MODEL 1
REMARK VINA RESULT:      -7.1      0.000      0.000
REMARK  Name = 
REMARK  10 active torsions:
REMARK  status: ('A' for Active; 'I' for Inactive)
REMARK    1  A    between atoms: C_1  and  C_2
REMARK    2  A    between atoms: C_7  and  C_8
REMARK    3  A    between atoms: C_13  and  C_14
REMARK    4  A    between atoms: C_16  and  O_17
REMARK    5  A    between atoms: C_18  and  O_19
REMARK    6  A    between atoms: C_20  and  C_21
REMARK    7  A    between atoms: C_20  and  C_22
REMARK    8  A    between atoms: C_22  and  O_23
REMARK    9  A    between atoms: C_27  and  C_28
REMARK   10  A    between atoms: C_29  and  C_30
REMARK                            x       y       z     vdW  Elec       q    Type
REMARK                         _______ _______ _______ _____ _____    ______ ____
ROOT
ATOM      1  C   UNL     1      -0.002  15.611  18.944  0.00  0.00    +0.000 C 
ATOM      2  C   UNL     1       1.202  15.697  19.866  0.00  0.00    +0.000 A 
ATOM      3  C   UNL     1       0.923  15.788  21.224  0.00  0.00    +0.000 A 
ATOM      4  C   UNL     1       1.963  15.747  22.130  0.00  0.00    +0.000 A 
ATOM      5  C   UNL     1       3.301  15.611  21.701  0.00  0.00    +0.000 A 
ATOM      6  C   UNL     1       3.678  15.632  20.328  0.00  0.00    +0.000 A 
ATOM      7  C   UNL     1       2.563  15.617  19.385  0.00  0.00    +0.000 A 
ATOM      8  C   UNL     1       2.600  15.506  17.867  0.00  0.00    +0.000 C 
ATOM      9  C   UNL     1       5.209  15.487  20.051  0.00  0.00    +0.000 C 
ATOM     10  C   UNL     1       5.584  15.169  18.805  0.00  0.00    +0.000 C 
ATOM     11  C   UNL     1       6.780  14.425  18.329  0.00  0.00    +0.000 C 
ATOM     12  C   UNL     1       7.976  14.765  19.160  0.00  0.00    +0.000 C 
ATOM     13  C   UNL     1       9.361  14.052  18.741  0.00  0.00    +0.000 C 
ATOM     14  C   UNL     1       9.020  12.600  19.237  0.00  0.00    +0.000 C 
ATOM     15  C   UNL     1      10.125  13.546  17.455  0.00  0.00    +0.000 C 
ATOM     16  C   UNL     1      11.588  13.983  17.238  0.00  0.00    +0.000 C 
ATOM     17  C   UNL     1      11.688  15.473  17.066  0.00  0.00    +0.000 C 
ATOM     18  C   UNL     1      11.063  16.207  18.275  0.00  0.00    +0.000 C 
ATOM     19  C   UNL     1      12.143  16.989  19.051  0.00  0.00    +0.000 C 
ATOM     20  C   UNL     1      10.289  15.225  19.307  0.00  0.00    +0.000 C 
ATOM     21  C   UNL     1      10.443  15.066  20.826  0.00  0.00    +0.000 C 
ATOM     22  C   UNL     1       9.070  15.495  21.472  0.00  0.00    +0.000 C 
ATOM     23  C   UNL     1       7.756  14.777  20.842  0.00  0.00    +0.000 C 
ATOM     24  C   UNL     1       7.833  13.416  21.613  0.00  0.00    +0.000 C 
ATOM     25  C   UNL     1       6.267  15.462  21.234  0.00  0.00    +0.000 C 
ATOM     26  C   UNL     1       6.550  16.881  21.815  0.00  0.00    +0.000 C 
ATOM     27  C   UNL     1       5.543  14.682  22.365  0.00  0.00    +0.000 C 
ATOM     28  C   UNL     1       4.259  15.343  22.830  0.00  0.00    +0.000 C 
ENDROOT
BRANCH  16  29
ATOM     29  O   UNL     1      12.062  13.345  16.041  0.00  0.00    +0.000 OA
ATOM     30  H   UNL     1      11.954  12.384  16.178  0.00  0.00    +0.000 HD
ENDBRANCH  16  29
BRANCH  17  31
ATOM     31  O   UNL     1      11.060  15.775  15.799  0.00  0.00    +0.000 OA
ATOM     32  H   UNL     1      11.592  15.404  15.079  0.00  0.00    +0.000 HD
ENDBRANCH  17  31
BRANCH  18  33
ATOM     33  C   UNL     1      10.104  17.311  17.643  0.00  0.00    +0.000 C 
BRANCH  33  34
ATOM     34  O   UNL     1      10.786  18.279  16.861  0.00  0.00    +0.000 OA
ATOM     35  H   UNL     1      10.114  18.768  16.357  0.00  0.00    +0.000 HD
ENDBRANCH  33  34
ENDBRANCH  18  33
TORSDOF 4
ENDMDL
MODEL 2
REMARK VINA RESULT:      -6.4      1.221      1.264
REMARK  Name = 
REMARK  10 active torsions:
REMARK  status: ('A' for Active; 'I' for Inactive)
REMARK    1  A    between atoms: C_1  and  C_2
REMARK    2  A    between atoms: C_7  and  C_8
REMARK    3  A    between atoms: C_13  and  C_14
REMARK    4  A    between atoms: C_16  and  O_17
REMARK    5  A    between atoms: C_18  and  O_19
REMARK    6  A    between atoms: C_20  and  C_21
REMARK    7  A    between atoms: C_20  and  C_22
REMARK    8  A    between atoms: C_22  and  O_23
REMARK    9  A    between atoms: C_27  and  C_28
REMARK   10  A    between atoms: C_29  and  C_30
REMARK                            x       y       z     vdW  Elec       q    Type
REMARK                         _______ _______ _______ _____ _____    ______ ____
ROOT
ATOM      1  C   UNL     1       0.126  16.767  18.013  0.00  0.00    +0.000 C 
ATOM      2  C   UNL     1       1.294  17.040  18.944  0.00  0.00    +0.000 A 
ATOM      3  C   UNL     1       0.977  17.633  20.160  0.00  0.00    +0.000 A 
ATOM      4  C   UNL     1       1.967  17.801  21.106  0.00  0.00    +0.000 A 
ATOM      5  C   UNL     1       3.291  17.378  20.861  0.00  0.00    +0.000 A 
ATOM      6  C   UNL     1       3.721  16.873  19.600  0.00  0.00    +0.000 A 
ATOM      7  C   UNL     1       2.651  16.648  18.633  0.00  0.00    +0.000 A 
ATOM      8  C   UNL     1       2.732  16.006  17.254  0.00  0.00    +0.000 C 
ATOM      9  C   UNL     1       5.229  16.474  19.518  0.00  0.00    +0.000 C 
ATOM     10  C   UNL     1       5.608  15.699  18.492  0.00  0.00    +0.000 C 
ATOM     11  C   UNL     1       6.714  14.710  18.401  0.00  0.00    +0.000 C 
ATOM     12  C   UNL     1       7.910  15.189  19.159  0.00  0.00    +0.000 C 
ATOM     13  C   UNL     1       9.206  14.228  19.127  0.00  0.00    +0.000 C 
ATOM     14  C   UNL     1       8.659  13.090  20.062  0.00  0.00    +0.000 C 
ATOM     15  C   UNL     1       9.947  13.222  18.160  0.00  0.00    +0.000 C 
ATOM     16  C   UNL     1      11.462  13.393  17.926  0.00  0.00    +0.000 C 
ATOM     17  C   UNL     1      11.762  14.707  17.260  0.00  0.00    +0.000 C 
ATOM     18  C   UNL     1      11.191  15.883  18.087  0.00  0.00    +0.000 C 
ATOM     19  C   UNL     1      12.333  16.765  18.632  0.00  0.00    +0.000 C 
ATOM     20  C   UNL     1      10.257  15.417  19.327  0.00  0.00    +0.000 C 
ATOM     21  C   UNL     1      10.330  15.787  20.815  0.00  0.00    +0.000 C 
ATOM     22  C   UNL     1       9.000  16.563  21.159  0.00  0.00    +0.000 C 
ATOM     23  C   UNL     1       7.630  15.816  20.709  0.00  0.00    +0.000 C 
ATOM     24  C   UNL     1       7.499  14.814  21.906  0.00  0.00    +0.000 C 
ATOM     25  C   UNL     1       6.228  16.753  20.718  0.00  0.00    +0.000 C 
ATOM     26  C   UNL     1       6.672  18.245  20.796  0.00  0.00    +0.000 C 
ATOM     27  C   UNL     1       5.366  16.505  21.986  0.00  0.00    +0.000 C 
ATOM     28  C   UNL     1       4.162  17.422  22.088  0.00  0.00    +0.000 C 
ENDROOT
BRANCH  16  29
ATOM     29  O   UNL     1      11.894  12.327  17.066  0.00  0.00    +0.000 OA
ATOM     30  H   UNL     1      12.578  12.705  16.480  0.00  0.00    +0.000 HD
ENDBRANCH  16  29
BRANCH  17  31
ATOM     31  O   UNL     1      11.228  14.610  15.920  0.00  0.00    +0.000 OA
ATOM     32  H   UNL     1      11.846  14.115  15.362  0.00  0.00    +0.000 HD
ENDBRANCH  17  31
BRANCH  18  33
ATOM     33  C   UNL     1      10.409  16.791  17.037  0.00  0.00    +0.000 C 
BRANCH  33  34
ATOM     34  O   UNL     1      10.904  18.118  16.951  0.00  0.00    +0.000 OA
ATOM     35  H   UNL     1      11.861  18.081  17.116  0.00  0.00    +0.000 HD
ENDBRANCH  33  34
ENDBRANCH  18  33
TORSDOF 4
ENDMDL
MODEL 3
REMARK VINA RESULT:      -6.1      6.388     11.264
REMARK  Name = 
REMARK  10 active torsions:
REMARK  status: ('A' for Active; 'I' for Inactive)
REMARK    1  A    between atoms: C_1  and  C_2
REMARK    2  A    between atoms: C_7  and  C_8
REMARK    3  A    between atoms: C_13  and  C_14
REMARK    4  A    between atoms: C_16  and  O_17
REMARK    5  A    between atoms: C_18  and  O_19
REMARK    6  A    between atoms: C_20  and  C_21
REMARK    7  A    between atoms: C_20  and  C_22
REMARK    8  A    between atoms: C_22  and  O_23
REMARK    9  A    between atoms: C_27  and  C_28
REMARK   10  A    between atoms: C_29  and  C_30
REMARK                            x       y       z     vdW  Elec       q    Type
REMARK                         _______ _______ _______ _____ _____    ______ ____
ROOT
ATOM      1  C   UNL     1       5.921  17.212  20.802  0.00  0.00    +0.000 C 
ATOM      2  C   UNL     1       4.907  16.342  20.078  0.00  0.00    +0.000 A 
ATOM      3  C   UNL     1       5.331  15.787  18.877  0.00  0.00    +0.000 A 
ATOM      4  C   UNL     1       4.511  14.891  18.223  0.00  0.00    +0.000 A 
ATOM      5  C   UNL     1       3.256  14.526  18.755  0.00  0.00    +0.000 A 
ATOM      6  C   UNL     1       2.700  15.138  19.915  0.00  0.00    +0.000 A 
ATOM      7  C   UNL     1       3.603  16.039  20.625  0.00  0.00    +0.000 A 
ATOM      8  C   UNL     1       3.389  16.753  21.952  0.00  0.00    +0.000 C 
ATOM      9  C   UNL     1       1.292  14.613  20.340  0.00  0.00    +0.000 C 
ATOM     10  C   UNL     1       0.873  14.901  21.580  0.00  0.00    +0.000 C 
ATOM     11  C   UNL     1      -0.047  14.151  22.475  0.00  0.00    +0.000 C 
ATOM     12  C   UNL     1      -1.153  13.526  21.686  0.00  0.00    +0.000 C 
ATOM     13  C   UNL     1      -2.252  12.699  22.529  0.00  0.00    +0.000 C 
ATOM     14  C   UNL     1      -1.362  11.455  22.888  0.00  0.00    +0.000 C 
ATOM     15  C   UNL     1      -2.972  12.722  23.935  0.00  0.00    +0.000 C 
ATOM     16  C   UNL     1      -4.510  12.634  23.986  0.00  0.00    +0.000 C 
ATOM     17  C   UNL     1      -5.143  13.824  23.319  0.00  0.00    +0.000 C 
ATOM     18  C   UNL     1      -4.642  13.965  21.862  0.00  0.00    +0.000 C 
ATOM     19  C   UNL     1      -5.802  13.749  20.868  0.00  0.00    +0.000 C 
ATOM     20  C   UNL     1      -3.436  12.949  21.484  0.00  0.00    +0.000 C 
ATOM     21  C   UNL     1      -3.305  11.959  20.319  0.00  0.00    +0.000 C 
ATOM     22  C   UNL     1      -2.087  12.444  19.442  0.00  0.00    +0.000 C 
ATOM     23  C   UNL     1      -0.711  12.717  20.263  0.00  0.00    +0.000 C 
ATOM     24  C   UNL     1      -0.201  11.239  20.374  0.00  0.00    +0.000 C 
ATOM     25  C   UNL     1       0.489  13.574  19.448  0.00  0.00    +0.000 C 
ATOM     26  C   UNL     1      -0.180  14.239  18.207  0.00  0.00    +0.000 C 
ATOM     27  C   UNL     1       1.593  12.641  18.881  0.00  0.00    +0.000 C 
ATOM     28  C   UNL     1       2.623  13.366  18.034  0.00  0.00    +0.000 C 
ENDROOT
BRANCH  16  29
ATOM     29  O   UNL     1      -4.902  12.615  25.368  0.00  0.00    +0.000 OA
ATOM     30  H   UNL     1      -4.309  11.980  25.815  0.00  0.00    +0.000 HD
ENDBRANCH  16  29
BRANCH  17  31
ATOM     31  O   UNL     1      -4.847  14.962  24.160  0.00  0.00    +0.000 OA
ATOM     32  H   UNL     1      -4.412  15.648  23.633  0.00  0.00    +0.000 HD
ENDBRANCH  17  31
BRANCH  18  33
ATOM     33  C   UNL     1      -4.225  15.495  21.710  0.00  0.00    +0.000 C 
BRANCH  33  34
ATOM     34  O   UNL     1      -3.755  15.832  20.414  0.00  0.00    +0.000 OA
ATOM     35  H   UNL     1      -2.885  15.414  20.304  0.00  0.00    +0.000 HD
ENDBRANCH  33  34
ENDBRANCH  18  33
TORSDOF 4
ENDMDL
MODEL 4
REMARK VINA RESULT:      -6.0      1.000      1.011
REMARK  Name = 
REMARK  10 active torsions:
REMARK  status: ('A' for Active; 'I' for Inactive)
REMARK    1  A    between atoms: C_1  and  C_2
REMARK    2  A    between atoms: C_7  and  C_8
REMARK    3  A    between atoms: C_13  and  C_14
REMARK    4  A    between atoms: C_16  and  O_17
REMARK    5  A    between atoms: C_18  and  O_19
REMARK    6  A    between atoms: C_20  and  C_21
REMARK    7  A    between atoms: C_20  and  C_22
REMARK    8  A    between atoms: C_22  and  O_23
REMARK    9  A    between atoms: C_27  and  C_28
REMARK   10  A    between atoms: C_29  and  C_30
REMARK                            x       y       z     vdW  Elec       q    Type
REMARK                         _______ _______ _______ _____ _____    ______ ____
ROOT
ATOM      1  C   UNL     1       0.166  17.552  19.916  0.00  0.00    +0.000 C 
ATOM      2  C   UNL     1       1.424  17.338  20.740  0.00  0.00    +0.000 A 
ATOM      3  C   UNL     1       1.258  17.361  22.119  0.00  0.00    +0.000 A 
ATOM      4  C   UNL     1       2.330  17.055  22.931  0.00  0.00    +0.000 A 
ATOM      5  C   UNL     1       3.587  16.717  22.386  0.00  0.00    +0.000 A 
ATOM      6  C   UNL     1       3.869  16.788  20.991  0.00  0.00    +0.000 A 
ATOM      7  C   UNL     1       2.711  17.055  20.144  0.00  0.00    +0.000 A 
ATOM      8  C   UNL     1       2.624  17.071  18.624  0.00  0.00    +0.000 C 
ATOM      9  C   UNL     1       5.324  16.393  20.581  0.00  0.00    +0.000 C 
ATOM     10  C   UNL     1       5.549  16.121  19.288  0.00  0.00    +0.000 C 
ATOM     11  C   UNL     1       6.550  15.217  18.663  0.00  0.00    +0.000 C 
ATOM     12  C   UNL     1       7.841  15.262  19.416  0.00  0.00    +0.000 C 
ATOM     13  C   UNL     1       9.038  14.350  18.835  0.00  0.00    +0.000 C 
ATOM     14  C   UNL     1       8.465  12.947  19.250  0.00  0.00    +0.000 C 
ATOM     15  C   UNL     1       9.606  13.828  17.457  0.00  0.00    +0.000 C 
ATOM     16  C   UNL     1      11.107  14.010  17.152  0.00  0.00    +0.000 C 
ATOM     17  C   UNL     1      11.472  15.467  17.082  0.00  0.00    +0.000 C 
ATOM     18  C   UNL     1      11.077  16.194  18.388  0.00  0.00    +0.000 C 
ATOM     19  C   UNL     1      12.333  16.698  19.127  0.00  0.00    +0.000 C 
ATOM     20  C   UNL     1      10.205  15.283  19.406  0.00  0.00    +0.000 C 
ATOM     21  C   UNL     1      10.428  14.968  20.892  0.00  0.00    +0.000 C 
ATOM     22  C   UNL     1       9.205  15.581  21.678  0.00  0.00    +0.000 C 
ATOM     23  C   UNL     1       7.741  15.169  21.106  0.00  0.00    +0.000 C 
ATOM     24  C   UNL     1       7.614  13.755  21.768  0.00  0.00    +0.000 C 
ATOM     25  C   UNL     1       6.436  16.076  21.667  0.00  0.00    +0.000 C 
ATOM     26  C   UNL     1       7.017  17.364  22.325  0.00  0.00    +0.000 C 
ATOM     27  C   UNL     1       5.657  15.345  22.795  0.00  0.00    +0.000 C 
ATOM     28  C   UNL     1       4.553  16.184  23.410  0.00  0.00    +0.000 C 
ENDROOT
BRANCH  16  29
ATOM     29  O   UNL     1      11.372  13.403  15.878  0.00  0.00    +0.000 OA
ATOM     30  H   UNL     1      12.319  13.164  15.877  0.00  0.00    +0.000 HD
ENDBRANCH  16  29
BRANCH  17  31
ATOM     31  O   UNL     1      10.827  15.985  15.896  0.00  0.00    +0.000 OA
ATOM     32  H   UNL     1      10.016  16.451  16.148  0.00  0.00    +0.000 HD
ENDBRANCH  17  31
BRANCH  18  33
ATOM     33  C   UNL     1      10.300  17.504  17.918  0.00  0.00    +0.000 C 
BRANCH  33  34
ATOM     34  O   UNL     1      11.089  18.383  17.132  0.00  0.00    +0.000 OA
ATOM     35  H   UNL     1      11.878  18.606  17.652  0.00  0.00    +0.000 HD
ENDBRANCH  33  34
ENDBRANCH  18  33
TORSDOF 4
ENDMDL
MODEL 5
REMARK VINA RESULT:      -5.9      4.649      8.892
REMARK  Name = 
REMARK  10 active torsions:
REMARK  status: ('A' for Active; 'I' for Inactive)
REMARK    1  A    between atoms: C_1  and  C_2
REMARK    2  A    between atoms: C_7  and  C_8
REMARK    3  A    between atoms: C_13  and  C_14
REMARK    4  A    between atoms: C_16  and  O_17
REMARK    5  A    between atoms: C_18  and  O_19
REMARK    6  A    between atoms: C_20  and  C_21
REMARK    7  A    between atoms: C_20  and  C_22
REMARK    8  A    between atoms: C_22  and  O_23
REMARK    9  A    between atoms: C_27  and  C_28
REMARK   10  A    between atoms: C_29  and  C_30
REMARK                            x       y       z     vdW  Elec       q    Type
REMARK                         _______ _______ _______ _____ _____    ______ ____
ROOT
ATOM      1  C   UNL     1       9.417  15.996  17.529  0.00  0.00    +0.000 C 
ATOM      2  C   UNL     1       8.386  16.229  18.620  0.00  0.00    +0.000 A 
ATOM      3  C   UNL     1       8.711  17.190  19.569  0.00  0.00    +0.000 A 
ATOM      4  C   UNL     1       7.775  17.542  20.519  0.00  0.00    +0.000 A 
ATOM      5  C   UNL     1       6.495  16.948  20.540  0.00  0.00    +0.000 A 
ATOM      6  C   UNL     1       6.128  15.874  19.679  0.00  0.00    +0.000 A 
ATOM      7  C   UNL     1       7.107  15.554  18.645  0.00  0.00    +0.000 A 
ATOM      8  C   UNL     1       6.989  14.565  17.493  0.00  0.00    +0.000 C 
ATOM      9  C   UNL     1       4.673  15.335  19.864  0.00  0.00    +0.000 C 
ATOM     10  C   UNL     1       4.167  14.573  18.884  0.00  0.00    +0.000 C 
ATOM     11  C   UNL     1       2.757  14.388  18.451  0.00  0.00    +0.000 C 
ATOM     12  C   UNL     1       1.839  14.393  19.631  0.00  0.00    +0.000 C 
ATOM     13  C   UNL     1       0.273  14.173  19.316  0.00  0.00    +0.000 C 
ATOM     14  C   UNL     1      -0.020  15.574  18.668  0.00  0.00    +0.000 C 
ATOM     15  C   UNL     1      -0.666  13.395  18.312  0.00  0.00    +0.000 C 
ATOM     16  C   UNL     1      -1.811  12.532  18.879  0.00  0.00    +0.000 C 
ATOM     17  C   UNL     1      -1.275  11.399  19.710  0.00  0.00    +0.000 C 
ATOM     18  C   UNL     1      -0.368  11.933  20.843  0.00  0.00    +0.000 C 
ATOM     19  C   UNL     1      -0.996  11.641  22.221  0.00  0.00    +0.000 C 
ATOM     20  C   UNL     1      -0.057  13.521  20.739  0.00  0.00    +0.000 C 
ATOM     21  C   UNL     1      -0.226  14.633  21.783  0.00  0.00    +0.000 C 
ATOM     22  C   UNL     1       1.216  15.195  22.090  0.00  0.00    +0.000 C 
ATOM     23  C   UNL     1       2.086  15.613  20.783  0.00  0.00    +0.000 C 
ATOM     24  C   UNL     1       1.459  17.025  20.519  0.00  0.00    +0.000 C 
ATOM     25  C   UNL     1       3.734  15.863  21.029  0.00  0.00    +0.000 C 
ATOM     26  C   UNL     1       4.093  15.246  22.415  0.00  0.00    +0.000 C 
ATOM     27  C   UNL     1       4.088  17.372  21.137  0.00  0.00    +0.000 C 
ATOM     28  C   UNL     1       5.542  17.629  21.484  0.00  0.00    +0.000 C 
ENDROOT
BRANCH  16  29
ATOM     29  O   UNL     1      -2.540  11.988  17.768  0.00  0.00    +0.000 OA
ATOM     30  H   UNL     1      -3.281  11.476  18.147  0.00  0.00    +0.000 HD
ENDBRANCH  16  29
BRANCH  17  31
ATOM     31  O   UNL     1      -0.610  10.505  18.789  0.00  0.00    +0.000 OA
ATOM     32  H   UNL     1      -0.974  10.630  17.900  0.00  0.00    +0.000 HD
ENDBRANCH  17  31
BRANCH  18  33
ATOM     33  C   UNL     1       0.952  11.044  20.775  0.00  0.00    +0.000 C 
BRANCH  33  34
ATOM     34  O   UNL     1       0.781   9.728  21.278  0.00  0.00    +0.000 OA
ATOM     35  H   UNL     1       0.847   9.119  20.523  0.00  0.00    +0.000 HD
ENDBRANCH  33  34
ENDBRANCH  18  33
TORSDOF 4
ENDMDL
MODEL 6
REMARK VINA RESULT:      -5.7      7.359     12.702
REMARK  Name = 
REMARK  10 active torsions:
REMARK  status: ('A' for Active; 'I' for Inactive)
REMARK    1  A    between atoms: C_1  and  C_2
REMARK    2  A    between atoms: C_7  and  C_8
REMARK    3  A    between atoms: C_13  and  C_14
REMARK    4  A    between atoms: C_16  and  O_17
REMARK    5  A    between atoms: C_18  and  O_19
REMARK    6  A    between atoms: C_20  and  C_21
REMARK    7  A    between atoms: C_20  and  C_22
REMARK    8  A    between atoms: C_22  and  O_23
REMARK    9  A    between atoms: C_27  and  C_28
REMARK   10  A    between atoms: C_29  and  C_30
REMARK                            x       y       z     vdW  Elec       q    Type
REMARK                         _______ _______ _______ _____ _____    ______ ____
ROOT
ATOM      1  C   UNL     1       3.846  16.457  18.073  0.00  0.00    +0.000 C 
ATOM      2  C   UNL     1       2.879  15.318  18.350  0.00  0.00    +0.000 A 
ATOM      3  C   UNL     1       3.392  14.036  18.201  0.00  0.00    +0.000 A 
ATOM      4  C   UNL     1       2.611  12.954  18.550  0.00  0.00    +0.000 A 
ATOM      5  C   UNL     1       1.306  13.128  19.059  0.00  0.00    +0.000 A 
ATOM      6  C   UNL     1       0.667  14.399  19.128  0.00  0.00    +0.000 A 
ATOM      7  C   UNL     1       1.526  15.536  18.810  0.00  0.00    +0.000 A 
ATOM      8  C   UNL     1       1.214  17.023  18.906  0.00  0.00    +0.000 C 
ATOM      9  C   UNL     1      -0.785  14.388  19.703  0.00  0.00    +0.000 C 
ATOM     10  C   UNL     1      -1.303  15.559  20.098  0.00  0.00    +0.000 C 
ATOM     11  C   UNL     1      -2.315  15.850  21.147  0.00  0.00    +0.000 C 
ATOM     12  C   UNL     1      -3.363  14.784  21.176  0.00  0.00    +0.000 C 
ATOM     13  C   UNL     1      -4.550  14.980  22.251  0.00  0.00    +0.000 C 
ATOM     14  C   UNL     1      -3.725  14.664  23.550  0.00  0.00    +0.000 C 
ATOM     15  C   UNL     1      -5.388  16.130  22.937  0.00  0.00    +0.000 C 
ATOM     16  C   UNL     1      -6.928  16.033  22.935  0.00  0.00    +0.000 C 
ATOM     17  C   UNL     1      -7.471  16.075  21.534  0.00  0.00    +0.000 C 
ATOM     18  C   UNL     1      -6.843  14.958  20.669  0.00  0.00    +0.000 C 
ATOM     19  C   UNL     1      -7.916  13.937  20.240  0.00  0.00    +0.000 C 
ATOM     20  C   UNL     1      -5.633  14.166  21.402  0.00  0.00    +0.000 C 
ATOM     21  C   UNL     1      -5.425  12.661  21.619  0.00  0.00    +0.000 C 
ATOM     22  C   UNL     1      -4.124  12.259  20.822  0.00  0.00    +0.000 C 
ATOM     23  C   UNL     1      -2.819  13.179  21.124  0.00  0.00    +0.000 C 
ATOM     24  C   UNL     1      -2.355  12.506  22.461  0.00  0.00    +0.000 C 
ATOM     25  C   UNL     1      -1.532  13.030  20.046  0.00  0.00    +0.000 C 
ATOM     26  C   UNL     1      -2.075  12.306  18.777  0.00  0.00    +0.000 C 
ATOM     27  C   UNL     1      -0.406  12.116  20.601  0.00  0.00    +0.000 C 
ATOM     28  C   UNL     1       0.711  11.859  19.606  0.00  0.00    +0.000 C 
ENDROOT
BRANCH  16  29
ATOM     29  O   UNL     1      -7.438  17.159  23.666  0.00  0.00    +0.000 OA
ATOM     30  H   UNL     1      -7.537  16.866  24.592  0.00  0.00    +0.000 HD
ENDBRANCH  16  29
BRANCH  17  31
ATOM     31  O   UNL     1      -7.223  17.414  21.047  0.00  0.00    +0.000 OA
ATOM     32  H   UNL     1      -6.270  17.537  20.915  0.00  0.00    +0.000 HD
ENDBRANCH  17  31
BRANCH  18  33
ATOM     33  C   UNL     1      -6.378  15.682  19.327  0.00  0.00    +0.000 C 
BRANCH  33  34
ATOM     34  O   UNL     1      -6.349  14.824  18.197  0.00  0.00    +0.000 OA
ATOM     35  H   UNL     1      -7.261  14.743  17.872  0.00  0.00    +0.000 HD
ENDBRANCH  33  34
ENDBRANCH  18  33
TORSDOF 4
ENDMDL
MODEL 7
REMARK VINA RESULT:      -5.7      7.917     12.891
REMARK  Name = 
REMARK  10 active torsions:
REMARK  status: ('A' for Active; 'I' for Inactive)
REMARK    1  A    between atoms: C_1  and  C_2
REMARK    2  A    between atoms: C_7  and  C_8
REMARK    3  A    between atoms: C_13  and  C_14
REMARK    4  A    between atoms: C_16  and  O_17
REMARK    5  A    between atoms: C_18  and  O_19
REMARK    6  A    between atoms: C_20  and  C_21
REMARK    7  A    between atoms: C_20  and  C_22
REMARK    8  A    between atoms: C_22  and  O_23
REMARK    9  A    between atoms: C_27  and  C_28
REMARK   10  A    between atoms: C_29  and  C_30
REMARK                            x       y       z     vdW  Elec       q    Type
REMARK                         _______ _______ _______ _____ _____    ______ ____
ROOT
ATOM      1  C   UNL     1       3.160  16.647  17.489  0.00  0.00    +0.000 C 
ATOM      2  C   UNL     1       2.411  15.562  18.243  0.00  0.00    +0.000 A 
ATOM      3  C   UNL     1       3.125  14.399  18.505  0.00  0.00    +0.000 A 
ATOM      4  C   UNL     1       2.553  13.419  19.288  0.00  0.00    +0.000 A 
ATOM      5  C   UNL     1       1.260  13.579  19.831  0.00  0.00    +0.000 A 
ATOM      6  C   UNL     1       0.420  14.685  19.513  0.00  0.00    +0.000 A 
ATOM      7  C   UNL     1       1.061  15.738  18.731  0.00  0.00    +0.000 A 
ATOM      8  C   UNL     1       0.508  17.098  18.329  0.00  0.00    +0.000 C 
ATOM      9  C   UNL     1      -0.984  14.677  20.197  0.00  0.00    +0.000 C 
ATOM     10  C   UNL     1      -1.674  15.827  20.205  0.00  0.00    +0.000 C 
ATOM     11  C   UNL     1      -2.676  16.332  21.180  0.00  0.00    +0.000 C 
ATOM     12  C   UNL     1      -3.527  15.213  21.687  0.00  0.00    +0.000 C 
ATOM     13  C   UNL     1      -4.684  15.615  22.737  0.00  0.00    +0.000 C 
ATOM     14  C   UNL     1      -3.763  15.912  23.975  0.00  0.00    +0.000 C 
ATOM     15  C   UNL     1      -5.673  16.804  23.055  0.00  0.00    +0.000 C 
ATOM     16  C   UNL     1      -7.173  16.496  23.242  0.00  0.00    +0.000 C 
ATOM     17  C   UNL     1      -7.775  15.950  21.977  0.00  0.00    +0.000 C 
ATOM     18  C   UNL     1      -7.005  14.696  21.501  0.00  0.00    +0.000 C 
ATOM     19  C   UNL     1      -7.909  13.449  21.569  0.00  0.00    +0.000 C 
ATOM     20  C   UNL     1      -5.649  14.404  22.341  0.00  0.00    +0.000 C 
ATOM     21  C   UNL     1      -5.182  13.126  23.052  0.00  0.00    +0.000 C 
ATOM     22  C   UNL     1      -3.867  12.651  22.321  0.00  0.00    +0.000 C 
ATOM     23  C   UNL     1      -2.723  13.792  22.148  0.00  0.00    +0.000 C 
ATOM     24  C   UNL     1      -2.097  13.723  23.583  0.00  0.00    +0.000 C 
ATOM     25  C   UNL     1      -1.477  13.446  21.068  0.00  0.00    +0.000 C 
ATOM     26  C   UNL     1      -1.944  12.242  20.196  0.00  0.00    +0.000 C 
ATOM     27  C   UNL     1      -0.191  12.965  21.794  0.00  0.00    +0.000 C 
ATOM     28  C   UNL     1       0.910  12.525  20.846  0.00  0.00    +0.000 C 
ENDROOT
BRANCH  16  29
ATOM     29  O   UNL     1      -7.834  17.727  23.577  0.00  0.00    +0.000 OA
ATOM     30  H   UNL     1      -8.626  17.484  24.094  0.00  0.00    +0.000 HD
ENDBRANCH  16  29
BRANCH  17  31
ATOM     31  O   UNL     1      -7.776  17.041  21.028  0.00  0.00    +0.000 OA
ATOM     32  H   UNL     1      -8.581  17.001  20.492  0.00  0.00    +0.000 HD
ENDBRANCH  17  31
BRANCH  18  33
ATOM     33  C   UNL     1      -6.725  14.941  19.952  0.00  0.00    +0.000 C 
BRANCH  33  34
ATOM     34  O   UNL     1      -7.877  14.797  19.135  0.00  0.00    +0.000 OA
ATOM     35  H   UNL     1      -7.765  13.980  18.620  0.00  0.00    +0.000 HD
ENDBRANCH  33  34
ENDBRANCH  18  33
TORSDOF 4
ENDMDL
MODEL 8
REMARK VINA RESULT:      -5.7     10.051     14.039
REMARK  Name = 
REMARK  10 active torsions:
REMARK  status: ('A' for Active; 'I' for Inactive)
REMARK    1  A    between atoms: C_1  and  C_2
REMARK    2  A    between atoms: C_7  and  C_8
REMARK    3  A    between atoms: C_13  and  C_14
REMARK    4  A    between atoms: C_16  and  O_17
REMARK    5  A    between atoms: C_18  and  O_19
REMARK    6  A    between atoms: C_20  and  C_21
REMARK    7  A    between atoms: C_20  and  C_22
REMARK    8  A    between atoms: C_22  and  O_23
REMARK    9  A    between atoms: C_27  and  C_28
REMARK   10  A    between atoms: C_29  and  C_30
REMARK                            x       y       z     vdW  Elec       q    Type
REMARK                         _______ _______ _______ _____ _____    ______ ____
ROOT
ATOM      1  C   UNL     1       0.101   9.679  17.802  0.00  0.00    +0.000 C 
ATOM      2  C   UNL     1      -1.350  10.129  17.829  0.00  0.00    +0.000 A 
ATOM      3  C   UNL     1      -2.231   9.388  17.051  0.00  0.00    +0.000 A 
ATOM      4  C   UNL     1      -3.581   9.660  17.118  0.00  0.00    +0.000 A 
ATOM      5  C   UNL     1      -4.082  10.672  17.964  0.00  0.00    +0.000 A 
ATOM      6  C   UNL     1      -3.237  11.552  18.700  0.00  0.00    +0.000 A 
ATOM      7  C   UNL     1      -1.817  11.213  18.663  0.00  0.00    +0.000 A 
ATOM      8  C   UNL     1      -0.665  11.851  19.427  0.00  0.00    +0.000 C 
ATOM      9  C   UNL     1      -3.976  12.621  19.567  0.00  0.00    +0.000 C 
ATOM     10  C   UNL     1      -3.266  13.243  20.519  0.00  0.00    +0.000 C 
ATOM     11  C   UNL     1      -3.709  13.824  21.814  0.00  0.00    +0.000 C 
ATOM     12  C   UNL     1      -5.056  14.457  21.673  0.00  0.00    +0.000 C 
ATOM     13  C   UNL     1      -5.656  15.158  22.996  0.00  0.00    +0.000 C 
ATOM     14  C   UNL     1      -5.992  13.851  23.802  0.00  0.00    +0.000 C 
ATOM     15  C   UNL     1      -5.175  15.949  24.275  0.00  0.00    +0.000 C 
ATOM     16  C   UNL     1      -5.855  17.289  24.623  0.00  0.00    +0.000 C 
ATOM     17  C   UNL     1      -5.619  18.311  23.545  0.00  0.00    +0.000 C 
ATOM     18  C   UNL     1      -6.101  17.782  22.174  0.00  0.00    +0.000 C 
ATOM     19  C   UNL     1      -7.285  18.623  21.656  0.00  0.00    +0.000 C 
ATOM     20  C   UNL     1      -6.541  16.221  22.193  0.00  0.00    +0.000 C 
ATOM     21  C   UNL     1      -7.840  15.553  21.723  0.00  0.00    +0.000 C 
ATOM     22  C   UNL     1      -7.456  14.592  20.533  0.00  0.00    +0.000 C 
ATOM     23  C   UNL     1      -6.235  13.566  20.841  0.00  0.00    +0.000 C 
ATOM     24  C   UNL     1      -7.034  12.472  21.627  0.00  0.00    +0.000 C 
ATOM     25  C   UNL     1      -5.553  12.791  19.508  0.00  0.00    +0.000 C 
ATOM     26  C   UNL     1      -6.027  13.558  18.237  0.00  0.00    +0.000 C 
ATOM     27  C   UNL     1      -6.078  11.340  19.343  0.00  0.00    +0.000 C 
ATOM     28  C   UNL     1      -5.582  10.656  18.082  0.00  0.00    +0.000 C 
ENDROOT
BRANCH  16  29
ATOM     29  O   UNL     1      -5.279  17.766  25.849  0.00  0.00    +0.000 OA
ATOM     30  H   UNL     1      -4.430  17.296  25.958  0.00  0.00    +0.000 HD
ENDBRANCH  16  29
BRANCH  17  31
ATOM     31  O   UNL     1      -4.210  18.631  23.595  0.00  0.00    +0.000 OA
ATOM     32  H   UNL     1      -3.733  18.085  22.953  0.00  0.00    +0.000 HD
ENDBRANCH  17  31
BRANCH  18  33
ATOM     33  C   UNL     1      -4.898  18.068  21.170  0.00  0.00    +0.000 C 
BRANCH  33  34
ATOM     34  O   UNL     1      -5.052  17.447  19.903  0.00  0.00    +0.000 OA
ATOM     35  H   UNL     1      -5.726  16.754  20.001  0.00  0.00    +0.000 HD
ENDBRANCH  33  34
ENDBRANCH  18  33
TORSDOF 4
ENDMDL
MODEL 9
REMARK VINA RESULT:      -5.6     10.225     12.529
REMARK  Name = 
REMARK  10 active torsions:
REMARK  status: ('A' for Active; 'I' for Inactive)
REMARK    1  A    between atoms: C_1  and  C_2
REMARK    2  A    between atoms: C_7  and  C_8
REMARK    3  A    between atoms: C_13  and  C_14
REMARK    4  A    between atoms: C_16  and  O_17
REMARK    5  A    between atoms: C_18  and  O_19
REMARK    6  A    between atoms: C_20  and  C_21
REMARK    7  A    between atoms: C_20  and  C_22
REMARK    8  A    between atoms: C_22  and  O_23
REMARK    9  A    between atoms: C_27  and  C_28
REMARK   10  A    between atoms: C_29  and  C_30
REMARK                            x       y       z     vdW  Elec       q    Type
REMARK                         _______ _______ _______ _____ _____    ______ ____
ROOT
ATOM      1  C   UNL     1      -2.292   9.920  16.228  0.00  0.00    +0.000 C 
ATOM      2  C   UNL     1      -3.314  10.712  17.026  0.00  0.00    +0.000 A 
ATOM      3  C   UNL     1      -4.639  10.558  16.639  0.00  0.00    +0.000 A 
ATOM      4  C   UNL     1      -5.633  11.149  17.390  0.00  0.00    +0.000 A 
ATOM      5  C   UNL     1      -5.327  11.901  18.545  0.00  0.00    +0.000 A 
ATOM      6  C   UNL     1      -3.992  12.204  18.939  0.00  0.00    +0.000 A 
ATOM      7  C   UNL     1      -2.956  11.523  18.168  0.00  0.00    +0.000 A 
ATOM      8  C   UNL     1      -1.450  11.514  18.395  0.00  0.00    +0.000 C 
ATOM      9  C   UNL     1      -3.856  13.064  20.236  0.00  0.00    +0.000 C 
ATOM     10  C   UNL     1      -2.655  13.098  20.831  0.00  0.00    +0.000 C 
ATOM     11  C   UNL     1      -2.306  13.291  22.263  0.00  0.00    +0.000 C 
ATOM     12  C   UNL     1      -3.229  14.277  22.902  0.00  0.00    +0.000 C 
ATOM     13  C   UNL     1      -2.953  14.611  24.456  0.00  0.00    +0.000 C 
ATOM     14  C   UNL     1      -3.454  13.252  25.065  0.00  0.00    +0.000 C 
ATOM     15  C   UNL     1      -1.752  14.746  25.473  0.00  0.00    +0.000 C 
ATOM     16  C   UNL     1      -1.653  16.013  26.346  0.00  0.00    +0.000 C 
ATOM     17  C   UNL     1      -1.452  17.239  25.498  0.00  0.00    +0.000 C 
ATOM     18  C   UNL     1      -2.583  17.372  24.451  0.00  0.00    +0.000 C 
ATOM     19  C   UNL     1      -3.430  18.631  24.727  0.00  0.00    +0.000 C 
ATOM     20  C   UNL     1      -3.568  16.086  24.386  0.00  0.00    +0.000 C 
ATOM     21  C   UNL     1      -5.098  16.005  24.476  0.00  0.00    +0.000 C 
ATOM     22  C   UNL     1      -5.610  15.451  23.091  0.00  0.00    +0.000 C 
ATOM     23  C   UNL     1      -4.885  14.089  22.582  0.00  0.00    +0.000 C 
ATOM     24  C   UNL     1      -5.695  13.053  23.434  0.00  0.00    +0.000 C 
ATOM     25  C   UNL     1      -5.126  13.669  20.968  0.00  0.00    +0.000 C 
ATOM     26  C   UNL     1      -5.693  14.928  20.244  0.00  0.00    +0.000 C 
ATOM     27  C   UNL     1      -6.210  12.569  20.805  0.00  0.00    +0.000 C 
ATOM     28  C   UNL     1      -6.543  12.256  19.358  0.00  0.00    +0.000 C 
ENDROOT
BRANCH  16  29
ATOM     29  O   UNL     1      -0.520  15.859  27.214  0.00  0.00    +0.000 OA
ATOM     30  H   UNL     1      -0.137  14.982  27.016  0.00  0.00    +0.000 HD
ENDBRANCH  16  29
BRANCH  17  31
ATOM     31  O   UNL     1      -0.128  17.122  24.930  0.00  0.00    +0.000 OA
ATOM     32  H   UNL     1       0.484  17.691  25.421  0.00  0.00    +0.000 HD
ENDBRANCH  17  31
BRANCH  18  33
ATOM     33  C   UNL     1      -1.841  17.647  23.068  0.00  0.00    +0.000 C 
BRANCH  33  34
ATOM     34  O   UNL     1      -2.701  17.603  21.941  0.00  0.00    +0.000 OA
ATOM     35  H   UNL     1      -3.495  18.117  22.163  0.00  0.00    +0.000 HD
ENDBRANCH  33  34
ENDBRANCH  18  33
TORSDOF 4
ENDMDL
