MODEL 1
REMARK VINA RESULT:      -7.5      0.000      0.000
REMARK  Name = 
REMARK  3 active torsions:
REMARK  status: ('A' for Active; 'I' for Inactive)
REMARK    1  A    between atoms: C_1  and  N_2
REMARK    2  A    between atoms: C_5  and  C_6
REMARK    3  A    between atoms: C_10  and  O_11
REMARK                            x       y       z     vdW  Elec       q    Type
REMARK                         _______ _______ _______ _____ _____    ______ ____
ROOT
ATOM      1  C   UNL     1       7.919   6.964  18.436  0.00  0.00    +0.000 C 
ATOM      2  N   UNL     1       7.185   6.364  17.323  0.00  0.00    +0.000 NA
ATOM      3  C   UNL     1       5.920   7.041  17.039  0.00  0.00    +0.000 C 
ATOM      4  C   UNL     1       4.638   6.439  17.624  0.00  0.00    +0.000 C 
ATOM      5  C   UNL     1       4.599   4.890  17.707  0.00  0.00    +0.000 C 
ATOM      6  C   UNL     1       4.439   4.231  16.310  0.00  0.00    +0.000 C 
ATOM      7  C   UNL     1       5.674   4.147  15.411  0.00  0.00    +0.000 C 
ATOM      8  C   UNL     1       7.042   4.224  16.078  0.00  0.00    +0.000 C 
ATOM      9  C   UNL     1       7.100   4.904  17.450  0.00  0.00    +0.000 C 
ATOM     10  C   UNL     1       5.938   4.442  18.314  0.00  0.00    +0.000 C 
ENDROOT
BRANCH   5  11
ATOM     11  C   UNL     1       3.376   4.472  18.563  0.00  0.00    +0.000 A 
ATOM     12  C   UNL     1       2.995   5.237  19.683  0.00  0.00    +0.000 A 
ATOM     13  C   UNL     1       1.874   4.897  20.448  0.00  0.00    +0.000 A 
ATOM     14  C   UNL     1       1.106   3.778  20.112  0.00  0.00    +0.000 A 
ATOM     15  C   UNL     1       1.479   3.018  19.020  0.00  0.00    +0.000 A 
ATOM     16  C   UNL     1       2.591   3.352  18.259  0.00  0.00    +0.000 A 
BRANCH  15  17
ATOM     17  O   UNL     1       0.771   1.914  18.643  0.00  0.00    +0.000 OA
ATOM     18  H   UNL     1      -0.174   2.139  18.699  0.00  0.00    +0.000 HD
ENDBRANCH  15  17
ENDBRANCH   5  11
TORSDOF 2
ENDMDL
MODEL 2
REMARK VINA RESULT:      -7.4      3.061      3.915
REMARK  Name = 
REMARK  3 active torsions:
REMARK  status: ('A' for Active; 'I' for Inactive)
REMARK    1  A    between atoms: C_1  and  N_2
REMARK    2  A    between atoms: C_5  and  C_6
REMARK    3  A    between atoms: C_10  and  O_11
REMARK                            x       y       z     vdW  Elec       q    Type
REMARK                         _______ _______ _______ _____ _____    ______ ____
ROOT
ATOM      1  C   UNL     1       7.237   4.896  18.105  0.00  0.00    +0.000 C 
ATOM      2  N   UNL     1       5.934   4.398  17.669  0.00  0.00    +0.000 NA
ATOM      3  C   UNL     1       5.324   5.226  16.628  0.00  0.00    +0.000 C 
ATOM      4  C   UNL     1       4.284   6.267  17.058  0.00  0.00    +0.000 C 
ATOM      5  C   UNL     1       3.376   5.859  18.248  0.00  0.00    +0.000 C 
ATOM      6  C   UNL     1       2.336   4.777  17.850  0.00  0.00    +0.000 C 
ATOM      7  C   UNL     1       2.818   3.329  17.728  0.00  0.00    +0.000 C 
ATOM      8  C   UNL     1       4.092   2.942  18.468  0.00  0.00    +0.000 C 
ATOM      9  C   UNL     1       5.063   4.079  18.806  0.00  0.00    +0.000 C 
ATOM     10  C   UNL     1       4.298   5.283  19.334  0.00  0.00    +0.000 C 
ENDROOT
BRANCH   5  11
ATOM     11  C   UNL     1       2.591   7.109  18.721  0.00  0.00    +0.000 A 
ATOM     12  C   UNL     1       2.054   7.163  20.022  0.00  0.00    +0.000 A 
ATOM     13  C   UNL     1       1.373   8.296  20.480  0.00  0.00    +0.000 A 
ATOM     14  C   UNL     1       1.209   9.405  19.645  0.00  0.00    +0.000 A 
ATOM     15  C   UNL     1       1.725   9.354  18.364  0.00  0.00    +0.000 A 
ATOM     16  C   UNL     1       2.401   8.232  17.905  0.00  0.00    +0.000 A 
BRANCH  15  17
ATOM     17  O   UNL     1       1.596  10.404  17.501  0.00  0.00    +0.000 OA
ATOM     18  H   UNL     1       1.941  10.118  16.637  0.00  0.00    +0.000 HD
ENDBRANCH  15  17
ENDBRANCH   5  11
TORSDOF 2
ENDMDL
MODEL 3
REMARK VINA RESULT:      -7.4      1.227      1.422
REMARK  Name = 
REMARK  3 active torsions:
REMARK  status: ('A' for Active; 'I' for Inactive)
REMARK    1  A    between atoms: C_1  and  N_2
REMARK    2  A    between atoms: C_5  and  C_6
REMARK    3  A    between atoms: C_10  and  O_11
REMARK                            x       y       z     vdW  Elec       q    Type
REMARK                         _______ _______ _______ _____ _____    ______ ____
ROOT
ATOM      1  C   UNL     1       7.770   7.140  18.131  0.00  0.00    +0.000 C 
ATOM      2  N   UNL     1       7.063   6.493  17.028  0.00  0.00    +0.000 NA
ATOM      3  C   UNL     1       5.714   7.021  16.824  0.00  0.00    +0.000 C 
ATOM      4  C   UNL     1       4.541   6.249  17.438  0.00  0.00    +0.000 C 
ATOM      5  C   UNL     1       4.691   4.705  17.462  0.00  0.00    +0.000 C 
ATOM      6  C   UNL     1       4.546   4.078  16.050  0.00  0.00    +0.000 C 
ATOM      7  C   UNL     1       5.740   4.175  15.097  0.00  0.00    +0.000 C 
ATOM      8  C   UNL     1       7.118   4.394  15.708  0.00  0.00    +0.000 C 
ATOM      9  C   UNL     1       7.158   5.030  17.102  0.00  0.00    +0.000 C 
ATOM     10  C   UNL     1       6.100   4.403  17.996  0.00  0.00    +0.000 C 
ENDROOT
BRANCH   5  11
ATOM     11  C   UNL     1       3.567   4.114  18.352  0.00  0.00    +0.000 A 
ATOM     12  C   UNL     1       2.234   4.095  17.899  0.00  0.00    +0.000 A 
ATOM     13  C   UNL     1       1.211   3.535  18.671  0.00  0.00    +0.000 A 
ATOM     14  C   UNL     1       1.497   2.981  19.922  0.00  0.00    +0.000 A 
ATOM     15  C   UNL     1       2.802   3.005  20.378  0.00  0.00    +0.000 A 
ATOM     16  C   UNL     1       3.819   3.560  19.614  0.00  0.00    +0.000 A 
BRANCH  15  17
ATOM     17  O   UNL     1       3.144   2.481  21.591  0.00  0.00    +0.000 OA
ATOM     18  H   UNL     1       3.630   1.654  21.427  0.00  0.00    +0.000 HD
ENDBRANCH  15  17
ENDBRANCH   5  11
TORSDOF 2
ENDMDL
MODEL 4
REMARK VINA RESULT:      -7.4      3.038      5.681
REMARK  Name = 
REMARK  3 active torsions:
REMARK  status: ('A' for Active; 'I' for Inactive)
REMARK    1  A    between atoms: C_1  and  N_2
REMARK    2  A    between atoms: C_5  and  C_6
REMARK    3  A    between atoms: C_10  and  O_11
REMARK                            x       y       z     vdW  Elec       q    Type
REMARK                         _______ _______ _______ _____ _____    ______ ____
ROOT
ATOM      1  C   UNL     1       1.801   1.587  18.517  0.00  0.00    +0.000 C 
ATOM      2  N   UNL     1       1.520   2.975  18.879  0.00  0.00    +0.000 NA
ATOM      3  C   UNL     1       1.645   3.899  17.751  0.00  0.00    +0.000 C 
ATOM      4  C   UNL     1       2.959   4.673  17.600  0.00  0.00    +0.000 C 
ATOM      5  C   UNL     1       3.650   5.091  18.925  0.00  0.00    +0.000 C 
ATOM      6  C   UNL     1       2.893   6.238  19.646  0.00  0.00    +0.000 C 
ATOM      7  C   UNL     1       1.624   5.883  20.424  0.00  0.00    +0.000 C 
ATOM      8  C   UNL     1       1.454   4.439  20.880  0.00  0.00    +0.000 C 
ATOM      9  C   UNL     1       2.233   3.375  20.098  0.00  0.00    +0.000 C 
ATOM     10  C   UNL     1       3.653   3.852  19.836  0.00  0.00    +0.000 C 
ENDROOT
BRANCH   5  11
ATOM     11  C   UNL     1       5.076   5.605  18.598  0.00  0.00    +0.000 A 
ATOM     12  C   UNL     1       5.288   6.473  17.510  0.00  0.00    +0.000 A 
ATOM     13  C   UNL     1       6.561   6.976  17.219  0.00  0.00    +0.000 A 
ATOM     14  C   UNL     1       7.656   6.619  18.010  0.00  0.00    +0.000 A 
ATOM     15  C   UNL     1       7.456   5.759  19.074  0.00  0.00    +0.000 A 
ATOM     16  C   UNL     1       6.195   5.258  19.365  0.00  0.00    +0.000 A 
BRANCH  15  17
ATOM     17  O   UNL     1       8.486   5.372  19.881  0.00  0.00    +0.000 OA
ATOM     18  H   UNL     1       8.215   4.553  20.331  0.00  0.00    +0.000 HD
ENDBRANCH  15  17
ENDBRANCH   5  11
TORSDOF 2
ENDMDL
MODEL 5
REMARK VINA RESULT:      -7.3      3.030      5.505
REMARK  Name = 
REMARK  3 active torsions:
REMARK  status: ('A' for Active; 'I' for Inactive)
REMARK    1  A    between atoms: C_1  and  N_2
REMARK    2  A    between atoms: C_5  and  C_6
REMARK    3  A    between atoms: C_10  and  O_11
REMARK                            x       y       z     vdW  Elec       q    Type
REMARK                         _______ _______ _______ _____ _____    ______ ____
ROOT
ATOM      1  C   UNL     1       1.986   2.981  21.709  0.00  0.00    +0.000 C 
ATOM      2  N   UNL     1       2.071   2.852  20.255  0.00  0.00    +0.000 NA
ATOM      3  C   UNL     1       3.273   2.146  19.812  0.00  0.00    +0.000 C 
ATOM      4  C   UNL     1       4.472   2.985  19.359  0.00  0.00    +0.000 C 
ATOM      5  C   UNL     1       4.128   4.308  18.625  0.00  0.00    +0.000 C 
ATOM      6  C   UNL     1       3.581   4.061  17.194  0.00  0.00    +0.000 C 
ATOM      7  C   UNL     1       2.127   3.608  17.049  0.00  0.00    +0.000 C 
ATOM      8  C   UNL     1       1.174   3.910  18.199  0.00  0.00    +0.000 C 
ATOM      9  C   UNL     1       1.808   4.127  19.578  0.00  0.00    +0.000 C 
ATOM     10  C   UNL     1       3.040   5.008  19.456  0.00  0.00    +0.000 C 
ENDROOT
BRANCH   5  11
ATOM     11  C   UNL     1       5.423   5.150  18.492  0.00  0.00    +0.000 A 
ATOM     12  C   UNL     1       5.509   6.179  17.534  0.00  0.00    +0.000 A 
ATOM     13  C   UNL     1       6.656   6.973  17.421  0.00  0.00    +0.000 A 
ATOM     14  C   UNL     1       7.749   6.754  18.264  0.00  0.00    +0.000 A 
ATOM     15  C   UNL     1       7.675   5.739  19.200  0.00  0.00    +0.000 A 
ATOM     16  C   UNL     1       6.539   4.949  19.314  0.00  0.00    +0.000 A 
BRANCH  15  17
ATOM     17  O   UNL     1       8.710   5.476  20.049  0.00  0.00    +0.000 OA
ATOM     18  H   UNL     1       9.523   5.435  19.517  0.00  0.00    +0.000 HD
ENDBRANCH  15  17
ENDBRANCH   5  11
TORSDOF 2
ENDMDL
MODEL 6
REMARK VINA RESULT:      -7.3      2.792      5.523
REMARK  Name = 
REMARK  3 active torsions:
REMARK  status: ('A' for Active; 'I' for Inactive)
REMARK    1  A    between atoms: C_1  and  N_2
REMARK    2  A    between atoms: C_5  and  C_6
REMARK    3  A    between atoms: C_10  and  O_11
REMARK                            x       y       z     vdW  Elec       q    Type
REMARK                         _______ _______ _______ _____ _____    ______ ____
ROOT
ATOM      1  C   UNL     1       1.823   2.972  21.043  0.00  0.00    +0.000 C 
ATOM      2  N   UNL     1       1.602   4.183  20.255  0.00  0.00    +0.000 NA
ATOM      3  C   UNL     1       1.393   3.912  18.833  0.00  0.00    +0.000 C 
ATOM      4  C   UNL     1       2.594   4.058  17.892  0.00  0.00    +0.000 C 
ATOM      5  C   UNL     1       3.594   5.188  18.248  0.00  0.00    +0.000 C 
ATOM      6  C   UNL     1       3.016   6.599  17.956  0.00  0.00    +0.000 C 
ATOM      7  C   UNL     1       2.009   7.181  18.952  0.00  0.00    +0.000 C 
ATOM      8  C   UNL     1       2.014   6.626  20.371  0.00  0.00    +0.000 C 
ATOM      9  C   UNL     1       2.596   5.220  20.556  0.00  0.00    +0.000 C 
ATOM     10  C   UNL     1       3.879   5.073  19.754  0.00  0.00    +0.000 C 
ENDROOT
BRANCH   5  11
ATOM     11  C   UNL     1       4.865   5.016  17.377  0.00  0.00    +0.000 A 
ATOM     12  C   UNL     1       4.836   5.328  16.004  0.00  0.00    +0.000 A 
ATOM     13  C   UNL     1       5.981   5.213  15.207  0.00  0.00    +0.000 A 
ATOM     14  C   UNL     1       7.186   4.779  15.767  0.00  0.00    +0.000 A 
ATOM     15  C   UNL     1       7.219   4.461  17.111  0.00  0.00    +0.000 A 
ATOM     16  C   UNL     1       6.085   4.574  17.904  0.00  0.00    +0.000 A 
BRANCH  15  17
ATOM     17  O   UNL     1       8.365   4.029  17.714  0.00  0.00    +0.000 OA
ATOM     18  H   UNL     1       8.144   3.798  18.633  0.00  0.00    +0.000 HD
ENDBRANCH  15  17
ENDBRANCH   5  11
TORSDOF 2
ENDMDL
MODEL 7
REMARK VINA RESULT:      -7.3      2.929      5.676
REMARK  Name = 
REMARK  3 active torsions:
REMARK  status: ('A' for Active; 'I' for Inactive)
REMARK    1  A    between atoms: C_1  and  N_2
REMARK    2  A    between atoms: C_5  and  C_6
REMARK    3  A    between atoms: C_10  and  O_11
REMARK                            x       y       z     vdW  Elec       q    Type
REMARK                         _______ _______ _______ _____ _____    ______ ____
ROOT
ATOM      1  C   UNL     1       1.695   2.559  20.671  0.00  0.00    +0.000 C 
ATOM      2  N   UNL     1       1.508   3.885  20.084  0.00  0.00    +0.000 NA
ATOM      3  C   UNL     1       1.254   3.843  18.644  0.00  0.00    +0.000 C 
ATOM      4  C   UNL     1       2.436   4.082  17.699  0.00  0.00    +0.000 C 
ATOM      5  C   UNL     1       3.495   5.103  18.192  0.00  0.00    +0.000 C 
ATOM      6  C   UNL     1       2.973   6.564  18.136  0.00  0.00    +0.000 C 
ATOM      7  C   UNL     1       2.018   7.028  19.239  0.00  0.00    +0.000 C 
ATOM      8  C   UNL     1       2.033   6.262  20.556  0.00  0.00    +0.000 C 
ATOM      9  C   UNL     1       2.555   4.821  20.508  0.00  0.00    +0.000 C 
ATOM     10  C   UNL     1       3.811   4.747  19.654  0.00  0.00    +0.000 C 
ENDROOT
BRANCH   5  11
ATOM     11  C   UNL     1       4.735   5.015  17.266  0.00  0.00    +0.000 A 
ATOM     12  C   UNL     1       4.871   3.948  16.356  0.00  0.00    +0.000 A 
ATOM     13  C   UNL     1       5.965   3.869  15.487  0.00  0.00    +0.000 A 
ATOM     14  C   UNL     1       6.954   4.856  15.510  0.00  0.00    +0.000 A 
ATOM     15  C   UNL     1       6.832   5.900  16.407  0.00  0.00    +0.000 A 
ATOM     16  C   UNL     1       5.748   5.982  17.271  0.00  0.00    +0.000 A 
BRANCH  15  17
ATOM     17  O   UNL     1       7.766   6.893  16.478  0.00  0.00    +0.000 OA
ATOM     18  H   UNL     1       8.142   6.878  17.375  0.00  0.00    +0.000 HD
ENDBRANCH  15  17
ENDBRANCH   5  11
TORSDOF 2
ENDMDL
MODEL 8
REMARK VINA RESULT:      -7.3      1.505      2.535
REMARK  Name = 
REMARK  3 active torsions:
REMARK  status: ('A' for Active; 'I' for Inactive)
REMARK    1  A    between atoms: C_1  and  N_2
REMARK    2  A    between atoms: C_5  and  C_6
REMARK    3  A    between atoms: C_10  and  O_11
REMARK                            x       y       z     vdW  Elec       q    Type
REMARK                         _______ _______ _______ _____ _____    ______ ____
ROOT
ATOM      1  C   UNL     1       7.538   4.454  16.896  0.00  0.00    +0.000 C 
ATOM      2  N   UNL     1       6.623   5.552  17.202  0.00  0.00    +0.000 NA
ATOM      3  C   UNL     1       6.398   5.728  18.636  0.00  0.00    +0.000 C 
ATOM      4  C   UNL     1       5.139   5.103  19.247  0.00  0.00    +0.000 C 
ATOM      5  C   UNL     1       3.882   5.097  18.338  0.00  0.00    +0.000 C 
ATOM      6  C   UNL     1       3.269   6.513  18.174  0.00  0.00    +0.000 C 
ATOM      7  C   UNL     1       3.955   7.485  17.211  0.00  0.00    +0.000 C 
ATOM      8  C   UNL     1       4.840   6.895  16.120  0.00  0.00    +0.000 C 
ATOM      9  C   UNL     1       5.408   5.495  16.379  0.00  0.00    +0.000 C 
ATOM     10  C   UNL     1       4.332   4.590  16.958  0.00  0.00    +0.000 C 
ENDROOT
BRANCH   5  11
ATOM     11  C   UNL     1       2.804   4.195  18.992  0.00  0.00    +0.000 A 
ATOM     12  C   UNL     1       1.814   3.579  18.201  0.00  0.00    +0.000 A 
ATOM     13  C   UNL     1       0.854   2.734  18.767  0.00  0.00    +0.000 A 
ATOM     14  C   UNL     1       0.859   2.484  20.142  0.00  0.00    +0.000 A 
ATOM     15  C   UNL     1       1.821   3.092  20.925  0.00  0.00    +0.000 A 
ATOM     16  C   UNL     1       2.775   3.933  20.368  0.00  0.00    +0.000 A 
BRANCH  15  17
ATOM     17  O   UNL     1       1.876   2.890  22.274  0.00  0.00    +0.000 OA
ATOM     18  H   UNL     1       2.747   3.196  22.581  0.00  0.00    +0.000 HD
ENDBRANCH  15  17
ENDBRANCH   5  11
TORSDOF 2
ENDMDL
MODEL 9
REMARK VINA RESULT:      -7.2      3.197      4.296
REMARK  Name = 
REMARK  3 active torsions:
REMARK  status: ('A' for Active; 'I' for Inactive)
REMARK    1  A    between atoms: C_1  and  N_2
REMARK    2  A    between atoms: C_5  and  C_6
REMARK    3  A    between atoms: C_10  and  O_11
REMARK                            x       y       z     vdW  Elec       q    Type
REMARK                         _______ _______ _______ _____ _____    ______ ____
ROOT
ATOM      1  C   UNL     1       3.710   2.074  19.154  0.00  0.00    +0.000 C 
ATOM      2  N   UNL     1       4.472   3.084  18.422  0.00  0.00    +0.000 NA
ATOM      3  C   UNL     1       5.098   4.075  19.297  0.00  0.00    +0.000 C 
ATOM      4  C   UNL     1       4.376   5.412  19.500  0.00  0.00    +0.000 C 
ATOM      5  C   UNL     1       3.609   5.955  18.266  0.00  0.00    +0.000 C 
ATOM      6  C   UNL     1       4.566   6.479  17.162  0.00  0.00    +0.000 C 
ATOM      7  C   UNL     1       5.263   5.449  16.270  0.00  0.00    +0.000 C 
ATOM      8  C   UNL     1       4.628   4.069  16.151  0.00  0.00    +0.000 C 
ATOM      9  C   UNL     1       3.707   3.636  17.298  0.00  0.00    +0.000 C 
ATOM     10  C   UNL     1       2.793   4.783  17.698  0.00  0.00    +0.000 C 
ENDROOT
BRANCH   5  11
ATOM     11  C   UNL     1       2.724   7.145  18.720  0.00  0.00    +0.000 A 
ATOM     12  C   UNL     1       2.128   7.144  19.997  0.00  0.00    +0.000 A 
ATOM     13  C   UNL     1       1.355   8.223  20.439  0.00  0.00    +0.000 A 
ATOM     14  C   UNL     1       1.156   9.331  19.611  0.00  0.00    +0.000 A 
ATOM     15  C   UNL     1       1.730   9.334  18.353  0.00  0.00    +0.000 A 
ATOM     16  C   UNL     1       2.497   8.265  17.911  0.00  0.00    +0.000 A 
BRANCH  15  17
ATOM     17  O   UNL     1       1.569  10.386  17.498  0.00  0.00    +0.000 OA
ATOM     18  H   UNL     1       2.207  10.274  16.772  0.00  0.00    +0.000 HD
ENDBRANCH  15  17
ENDBRANCH   5  11
TORSDOF 2
ENDMDL
