MODEL 1
REMARK VINA RESULT:      -7.9      0.000      0.000
REMARK  Name = 
REMARK  2 active torsions:
REMARK  status: ('A' for Active; 'I' for Inactive)
REMARK    1  A    between atoms: C_1  and  N_2
REMARK    2  A    between atoms: C_13  and  C_14
REMARK                            x       y       z     vdW  Elec       q    Type
REMARK                         _______ _______ _______ _____ _____    ______ ____
ROOT
ATOM      1  C   UNL     1       1.784   2.882  21.575  0.00  0.00    +0.000 C 
ATOM      2  N   UNL     1       2.613   3.109  20.403  0.00  0.00    +0.000 N 
ATOM      3  C   UNL     1       3.430   2.221  19.786  0.00  0.00    +0.000 A 
ATOM      4  N   UNL     1       4.106   2.780  18.755  0.00  0.00    +0.000 NA
ATOM      5  C   UNL     1       3.694   4.058  18.746  0.00  0.00    +0.000 A 
ATOM      6  C   UNL     1       4.123   5.113  17.939  0.00  0.00    +0.000 A 
ATOM      7  N   UNL     1       5.089   4.941  16.900  0.00  0.00    +0.000 N 
ATOM      8  C   UNL     1       5.586   6.021  16.078  0.00  0.00    +0.000 C 
ATOM      9  C   UNL     1       5.674   5.381  14.701  0.00  0.00    +0.000 C 
ATOM     10  C   UNL     1       6.215   4.006  15.063  0.00  0.00    +0.000 C 
ATOM     11  C   UNL     1       5.375   3.658  16.287  0.00  0.00    +0.000 C 
ATOM     12  N   UNL     1       3.593   6.348  18.196  0.00  0.00    +0.000 NA
ATOM     13  C   UNL     1       2.656   6.576  19.176  0.00  0.00    +0.000 A 
ATOM     14  C   UNL     1       2.206   5.505  19.977  0.00  0.00    +0.000 A 
ATOM     15  C   UNL     1       2.781   4.260  19.734  0.00  0.00    +0.000 A 
ENDROOT
BRANCH  13  16
ATOM     16  C   UNL     1       2.205   8.000  19.422  0.00  0.00    +0.000 C 
ATOM     17  C   UNL     1       1.562   8.693  18.208  0.00  0.00    +0.000 C 
ATOM     18  C   UNL     1       1.235  10.149  18.594  0.00  0.00    +0.000 C 
ATOM     19  N   UNL     1       0.327  10.207  19.754  0.00  0.00    +0.000 NA
ATOM     20  C   UNL     1       0.894   9.517  20.924  0.00  0.00    +0.000 C 
ATOM     21  C   UNL     1       1.218   8.055  20.601  0.00  0.00    +0.000 C 
ATOM     22  H   UNL     1      -0.592   9.774  19.501  0.00  0.00    +0.000 HD
ENDBRANCH  13  16
TORSDOF 1
ENDMDL
MODEL 2
REMARK VINA RESULT:      -7.6      0.487      1.175
REMARK  Name = 
REMARK  2 active torsions:
REMARK  status: ('A' for Active; 'I' for Inactive)
REMARK    1  A    between atoms: C_1  and  N_2
REMARK    2  A    between atoms: C_13  and  C_14
REMARK                            x       y       z     vdW  Elec       q    Type
REMARK                         _______ _______ _______ _____ _____    ______ ____
ROOT
ATOM      1  C   UNL     1       2.151   2.910  21.749  0.00  0.00    +0.000 C 
ATOM      2  N   UNL     1       2.961   3.169  20.569  0.00  0.00    +0.000 N 
ATOM      3  C   UNL     1       3.959   2.401  20.070  0.00  0.00    +0.000 A 
ATOM      4  N   UNL     1       4.548   2.967  18.991  0.00  0.00    +0.000 NA
ATOM      5  C   UNL     1       3.893   4.128  18.829  0.00  0.00    +0.000 A 
ATOM      6  C   UNL     1       4.134   5.152  17.912  0.00  0.00    +0.000 A 
ATOM      7  N   UNL     1       5.152   5.064  16.913  0.00  0.00    +0.000 N 
ATOM      8  C   UNL     1       5.455   6.125  15.979  0.00  0.00    +0.000 C 
ATOM      9  C   UNL     1       5.717   5.368  14.686  0.00  0.00    +0.000 C 
ATOM     10  C   UNL     1       6.506   4.178  15.211  0.00  0.00    +0.000 C 
ATOM     11  C   UNL     1       5.708   3.805  16.455  0.00  0.00    +0.000 C 
ATOM     12  N   UNL     1       3.361   6.277  18.019  0.00  0.00    +0.000 NA
ATOM     13  C   UNL     1       2.364   6.419  18.954  0.00  0.00    +0.000 A 
ATOM     14  C   UNL     1       2.104   5.374  19.866  0.00  0.00    +0.000 A 
ATOM     15  C   UNL     1       2.922   4.250  19.775  0.00  0.00    +0.000 A 
ENDROOT
BRANCH  13  16
ATOM     16  C   UNL     1       1.632   7.742  19.029  0.00  0.00    +0.000 C 
ATOM     17  C   UNL     1       1.564   8.365  20.434  0.00  0.00    +0.000 C 
ATOM     18  C   UNL     1       0.723   9.655  20.356  0.00  0.00    +0.000 C 
ATOM     19  N   UNL     1       1.300  10.617  19.398  0.00  0.00    +0.000 NA
ATOM     20  C   UNL     1       1.418  10.038  18.050  0.00  0.00    +0.000 C 
ATOM     21  C   UNL     1       2.265   8.761  18.067  0.00  0.00    +0.000 C 
ATOM     22  H   UNL     1       2.244  10.921  19.735  0.00  0.00    +0.000 HD
ENDBRANCH  13  16
TORSDOF 1
ENDMDL
MODEL 3
REMARK VINA RESULT:      -6.9      1.077      4.120
REMARK  Name = 
REMARK  2 active torsions:
REMARK  status: ('A' for Active; 'I' for Inactive)
REMARK    1  A    between atoms: C_1  and  N_2
REMARK    2  A    between atoms: C_13  and  C_14
REMARK                            x       y       z     vdW  Elec       q    Type
REMARK                         _______ _______ _______ _____ _____    ______ ____
ROOT
ATOM      1  C   UNL     1       5.556   6.458  15.372  0.00  0.00    +0.000 C 
ATOM      2  N   UNL     1       4.886   5.612  16.346  0.00  0.00    +0.000 N 
ATOM      3  C   UNL     1       4.926   4.260  16.430  0.00  0.00    +0.000 A 
ATOM      4  N   UNL     1       4.136   3.786  17.421  0.00  0.00    +0.000 NA
ATOM      5  C   UNL     1       3.586   4.888  17.959  0.00  0.00    +0.000 A 
ATOM      6  C   UNL     1       2.629   4.988  18.970  0.00  0.00    +0.000 A 
ATOM      7  N   UNL     1       2.114   3.843  19.655  0.00  0.00    +0.000 N 
ATOM      8  C   UNL     1       1.091   3.911  20.675  0.00  0.00    +0.000 C 
ATOM      9  C   UNL     1       1.566   2.886  21.693  0.00  0.00    +0.000 C 
ATOM     10  C   UNL     1       2.055   1.779  20.772  0.00  0.00    +0.000 C 
ATOM     11  C   UNL     1       2.810   2.572  19.712  0.00  0.00    +0.000 C 
ATOM     12  N   UNL     1       2.175   6.242  19.274  0.00  0.00    +0.000 NA
ATOM     13  C   UNL     1       2.635   7.380  18.656  0.00  0.00    +0.000 A 
ATOM     14  C   UNL     1       3.619   7.281  17.650  0.00  0.00    +0.000 A 
ATOM     15  C   UNL     1       4.047   5.997  17.320  0.00  0.00    +0.000 A 
ENDROOT
BRANCH  13  16
ATOM     16  C   UNL     1       1.997   8.704  19.019  0.00  0.00    +0.000 C 
ATOM     17  C   UNL     1       1.034   9.270  17.961  0.00  0.00    +0.000 C 
ATOM     18  C   UNL     1       0.537  10.648  18.440  0.00  0.00    +0.000 C 
ATOM     19  N   UNL     1      -0.141  10.550  19.746  0.00  0.00    +0.000 NA
ATOM     20  C   UNL     1       0.740   9.973  20.775  0.00  0.00    +0.000 C 
ATOM     21  C   UNL     1       1.247   8.589  20.357  0.00  0.00    +0.000 C 
ATOM     22  H   UNL     1      -1.002   9.963  19.650  0.00  0.00    +0.000 HD
ENDBRANCH  13  16
TORSDOF 1
ENDMDL
MODEL 4
REMARK VINA RESULT:      -6.9      1.116      1.116
REMARK  Name = 
REMARK  2 active torsions:
REMARK  status: ('A' for Active; 'I' for Inactive)
REMARK    1  A    between atoms: C_1  and  N_2
REMARK    2  A    between atoms: C_13  and  C_14
REMARK                            x       y       z     vdW  Elec       q    Type
REMARK                         _______ _______ _______ _____ _____    ______ ____
ROOT
ATOM      1  C   UNL     1       0.474   2.718  19.422  0.00  0.00    +0.000 C 
ATOM      2  N   UNL     1       1.672   2.995  18.646  0.00  0.00    +0.000 N 
ATOM      3  C   UNL     1       2.516   2.096  18.084  0.00  0.00    +0.000 A 
ATOM      4  N   UNL     1       3.570   2.693  17.481  0.00  0.00    +0.000 NA
ATOM      5  C   UNL     1       3.368   4.005  17.688  0.00  0.00    +0.000 A 
ATOM      6  C   UNL     1       4.185   5.084  17.349  0.00  0.00    +0.000 A 
ATOM      7  N   UNL     1       5.411   4.922  16.630  0.00  0.00    +0.000 N 
ATOM      8  C   UNL     1       6.300   6.014  16.303  0.00  0.00    +0.000 C 
ATOM      9  C   UNL     1       6.754   5.665  14.894  0.00  0.00    +0.000 C 
ATOM     10  C   UNL     1       6.946   4.161  15.025  0.00  0.00    +0.000 C 
ATOM     11  C   UNL     1       5.704   3.761  15.813  0.00  0.00    +0.000 C 
ATOM     12  N   UNL     1       3.777   6.326  17.755  0.00  0.00    +0.000 NA
ATOM     13  C   UNL     1       2.608   6.546  18.443  0.00  0.00    +0.000 A 
ATOM     14  C   UNL     1       1.770   5.457  18.766  0.00  0.00    +0.000 A 
ATOM     15  C   UNL     1       2.213   4.194  18.383  0.00  0.00    +0.000 A 
ENDROOT
BRANCH  13  16
ATOM     16  C   UNL     1       2.303   7.952  18.911  0.00  0.00    +0.000 C 
ATOM     17  C   UNL     1       1.605   8.844  17.870  0.00  0.00    +0.000 C 
ATOM     18  C   UNL     1       1.440  10.255  18.467  0.00  0.00    +0.000 C 
ATOM     19  N   UNL     1       0.659  10.223  19.717  0.00  0.00    +0.000 NA
ATOM     20  C   UNL     1       1.278   9.345  20.724  0.00  0.00    +0.000 C 
ATOM     21  C   UNL     1       1.445   7.920  20.187  0.00  0.00    +0.000 C 
ATOM     22  H   UNL     1      -0.314   9.893  19.513  0.00  0.00    +0.000 HD
ENDBRANCH  13  16
TORSDOF 1
ENDMDL
MODEL 5
REMARK VINA RESULT:      -6.8      1.437      5.787
REMARK  Name = 
REMARK  2 active torsions:
REMARK  status: ('A' for Active; 'I' for Inactive)
REMARK    1  A    between atoms: C_1  and  N_2
REMARK    2  A    between atoms: C_13  and  C_14
REMARK                            x       y       z     vdW  Elec       q    Type
REMARK                         _______ _______ _______ _____ _____    ______ ____
ROOT
ATOM      1  C   UNL     1       3.564   2.536  20.634  0.00  0.00    +0.000 C 
ATOM      2  N   UNL     1       3.059   3.885  20.428  0.00  0.00    +0.000 N 
ATOM      3  C   UNL     1       2.112   4.530  21.151  0.00  0.00    +0.000 A 
ATOM      4  N   UNL     1       1.834   5.756  20.650  0.00  0.00    +0.000 NA
ATOM      5  C   UNL     1       2.634   5.861  19.575  0.00  0.00    +0.000 A 
ATOM      6  C   UNL     1       2.710   6.889  18.635  0.00  0.00    +0.000 A 
ATOM      7  N   UNL     1       1.926   8.081  18.735  0.00  0.00    +0.000 N 
ATOM      8  C   UNL     1       1.949   9.142  17.754  0.00  0.00    +0.000 C 
ATOM      9  C   UNL     1       1.888  10.394  18.615  0.00  0.00    +0.000 C 
ATOM     10  C   UNL     1       0.878   9.963  19.668  0.00  0.00    +0.000 C 
ATOM     11  C   UNL     1       1.345   8.546  19.979  0.00  0.00    +0.000 C 
ATOM     12  N   UNL     1       3.562   6.705  17.580  0.00  0.00    +0.000 NA
ATOM     13  C   UNL     1       4.346   5.586  17.432  0.00  0.00    +0.000 A 
ATOM     14  C   UNL     1       4.286   4.556  18.395  0.00  0.00    +0.000 A 
ATOM     15  C   UNL     1       3.387   4.736  19.444  0.00  0.00    +0.000 A 
ENDROOT
BRANCH  13  16
ATOM     16  C   UNL     1       5.187   5.458  16.180  0.00  0.00    +0.000 C 
ATOM     17  C   UNL     1       6.705   5.406  16.424  0.00  0.00    +0.000 C 
ATOM     18  C   UNL     1       7.418   5.360  15.058  0.00  0.00    +0.000 C 
ATOM     19  N   UNL     1       6.989   4.191  14.267  0.00  0.00    +0.000 NA
ATOM     20  C   UNL     1       5.533   4.187  14.049  0.00  0.00    +0.000 C 
ATOM     21  C   UNL     1       4.774   4.211  15.380  0.00  0.00    +0.000 C 
ATOM     22  H   UNL     1       7.274   3.312  14.759  0.00  0.00    +0.000 HD
ENDBRANCH  13  16
TORSDOF 1
ENDMDL
MODEL 6
REMARK VINA RESULT:      -6.7      1.512      6.123
REMARK  Name = 
REMARK  2 active torsions:
REMARK  status: ('A' for Active; 'I' for Inactive)
REMARK    1  A    between atoms: C_1  and  N_2
REMARK    2  A    between atoms: C_13  and  C_14
REMARK                            x       y       z     vdW  Elec       q    Type
REMARK                         _______ _______ _______ _____ _____    ______ ____
ROOT
ATOM      1  C   UNL     1       1.956  10.060  18.391  0.00  0.00    +0.000 C 
ATOM      2  N   UNL     1       1.931   8.743  19.008  0.00  0.00    +0.000 N 
ATOM      3  C   UNL     1       1.288   8.376  20.142  0.00  0.00    +0.000 A 
ATOM      4  N   UNL     1       1.524   7.084  20.468  0.00  0.00    +0.000 NA
ATOM      5  C   UNL     1       2.349   6.646  19.502  0.00  0.00    +0.000 A 
ATOM      6  C   UNL     1       2.975   5.405  19.377  0.00  0.00    +0.000 A 
ATOM      7  N   UNL     1       2.756   4.339  20.304  0.00  0.00    +0.000 N 
ATOM      8  C   UNL     1       3.423   3.059  20.227  0.00  0.00    +0.000 C 
ATOM      9  C   UNL     1       2.317   2.082  20.596  0.00  0.00    +0.000 C 
ATOM     10  C   UNL     1       1.636   2.842  21.725  0.00  0.00    +0.000 C 
ATOM     11  C   UNL     1       1.586   4.256  21.156  0.00  0.00    +0.000 C 
ATOM     12  N   UNL     1       3.840   5.248  18.329  0.00  0.00    +0.000 NA
ATOM     13  C   UNL     1       4.088   6.233  17.403  0.00  0.00    +0.000 A 
ATOM     14  C   UNL     1       3.437   7.480  17.515  0.00  0.00    +0.000 A 
ATOM     15  C   UNL     1       2.588   7.644  18.608  0.00  0.00    +0.000 A 
ENDROOT
BRANCH  13  16
ATOM     16  C   UNL     1       5.128   5.971  16.335  0.00  0.00    +0.000 C 
ATOM     17  C   UNL     1       6.586   6.127  16.800  0.00  0.00    +0.000 C 
ATOM     18  C   UNL     1       7.512   5.910  15.587  0.00  0.00    +0.000 C 
ATOM     19  N   UNL     1       7.308   4.578  14.987  0.00  0.00    +0.000 NA
ATOM     20  C   UNL     1       5.911   4.378  14.567  0.00  0.00    +0.000 C 
ATOM     21  C   UNL     1       4.948   4.562  15.744  0.00  0.00    +0.000 C 
ATOM     22  H   UNL     1       7.578   3.839  15.678  0.00  0.00    +0.000 HD
ENDBRANCH  13  16
TORSDOF 1
ENDMDL
MODEL 7
REMARK VINA RESULT:      -6.6      1.386      5.563
REMARK  Name = 
REMARK  2 active torsions:
REMARK  status: ('A' for Active; 'I' for Inactive)
REMARK    1  A    between atoms: C_1  and  N_2
REMARK    2  A    between atoms: C_13  and  C_14
REMARK                            x       y       z     vdW  Elec       q    Type
REMARK                         _______ _______ _______ _____ _____    ______ ____
ROOT
ATOM      1  C   UNL     1       3.363   2.194  21.163  0.00  0.00    +0.000 C 
ATOM      2  N   UNL     1       2.945   3.533  20.775  0.00  0.00    +0.000 N 
ATOM      3  C   UNL     1       1.975   4.289  21.341  0.00  0.00    +0.000 A 
ATOM      4  N   UNL     1       1.802   5.465  20.695  0.00  0.00    +0.000 NA
ATOM      5  C   UNL     1       2.695   5.424  19.692  0.00  0.00    +0.000 A 
ATOM      6  C   UNL     1       2.903   6.343  18.663  0.00  0.00    +0.000 A 
ATOM      7  N   UNL     1       2.174   7.570  18.570  0.00  0.00    +0.000 N 
ATOM      8  C   UNL     1       2.335   8.520  17.493  0.00  0.00    +0.000 C 
ATOM      9  C   UNL     1       2.263   9.857  18.213  0.00  0.00    +0.000 C 
ATOM     10  C   UNL     1       1.146   9.582  19.209  0.00  0.00    +0.000 C 
ATOM     11  C   UNL     1       1.513   8.188  19.704  0.00  0.00    +0.000 C 
ATOM     12  N   UNL     1       3.832   6.014  17.713  0.00  0.00    +0.000 NA
ATOM     13  C   UNL     1       4.568   4.853  17.751  0.00  0.00    +0.000 A 
ATOM     14  C   UNL     1       4.374   3.935  18.804  0.00  0.00    +0.000 A 
ATOM     15  C   UNL     1       3.399   4.261  19.744  0.00  0.00    +0.000 A 
ENDROOT
BRANCH  13  16
ATOM     16  C   UNL     1       5.505   4.560  16.600  0.00  0.00    +0.000 C 
ATOM     17  C   UNL     1       4.836   4.515  15.215  0.00  0.00    +0.000 C 
ATOM     18  C   UNL     1       5.901   4.127  14.170  0.00  0.00    +0.000 C 
ATOM     19  N   UNL     1       7.022   5.085  14.163  0.00  0.00    +0.000 NA
ATOM     20  C   UNL     1       7.661   5.184  15.486  0.00  0.00    +0.000 C 
ATOM     21  C   UNL     1       6.648   5.589  16.561  0.00  0.00    +0.000 C 
ATOM     22  H   UNL     1       6.674   6.027  13.869  0.00  0.00    +0.000 HD
ENDBRANCH  13  16
TORSDOF 1
ENDMDL
MODEL 8
REMARK VINA RESULT:      -6.5      5.249      9.242
REMARK  Name = 
REMARK  2 active torsions:
REMARK  status: ('A' for Active; 'I' for Inactive)
REMARK    1  A    between atoms: C_1  and  N_2
REMARK    2  A    between atoms: C_13  and  C_14
REMARK                            x       y       z     vdW  Elec       q    Type
REMARK                         _______ _______ _______ _____ _____    ______ ____
ROOT
ATOM      1  C   UNL     1       1.423   8.251  20.461  0.00  0.00    +0.000 C 
ATOM      2  N   UNL     1       0.746   9.365  21.104  0.00  0.00    +0.000 N 
ATOM      3  C   UNL     1       0.828   9.741  22.403  0.00  0.00    +0.000 A 
ATOM      4  N   UNL     1       0.019  10.788  22.684  0.00  0.00    +0.000 NA
ATOM      5  C   UNL     1      -0.587  11.059  21.516  0.00  0.00    +0.000 A 
ATOM      6  C   UNL     1      -1.582  11.997  21.240  0.00  0.00    +0.000 A 
ATOM      7  N   UNL     1      -2.084  12.899  22.229  0.00  0.00    +0.000 N 
ATOM      8  C   UNL     1      -3.145  13.850  21.985  0.00  0.00    +0.000 C 
ATOM      9  C   UNL     1      -2.674  15.079  22.747  0.00  0.00    +0.000 C 
ATOM     10  C   UNL     1      -2.114  14.433  24.006  0.00  0.00    +0.000 C 
ATOM     11  C   UNL     1      -1.348  13.249  23.429  0.00  0.00    +0.000 C 
ATOM     12  N   UNL     1      -2.090  12.009  19.968  0.00  0.00    +0.000 NA
ATOM     13  C   UNL     1      -1.645  11.172  18.973  0.00  0.00    +0.000 A 
ATOM     14  C   UNL     1      -0.622  10.240  19.246  0.00  0.00    +0.000 A 
ATOM     15  C   UNL     1      -0.140  10.208  20.553  0.00  0.00    +0.000 A 
ENDROOT
BRANCH  13  16
ATOM     16  C   UNL     1      -2.340  11.222  17.629  0.00  0.00    +0.000 C 
ATOM     17  C   UNL     1      -2.093  10.000  16.727  0.00  0.00    +0.000 C 
ATOM     18  C   UNL     1      -2.795  10.240  15.376  0.00  0.00    +0.000 C 
ATOM     19  N   UNL     1      -4.243  10.458  15.554  0.00  0.00    +0.000 NA
ATOM     20  C   UNL     1      -4.516  11.597  16.446  0.00  0.00    +0.000 C 
ATOM     21  C   UNL     1      -3.856  11.399  17.814  0.00  0.00    +0.000 C 
ATOM     22  H   UNL     1      -4.681   9.591  15.944  0.00  0.00    +0.000 HD
ENDBRANCH  13  16
TORSDOF 1
ENDMDL
MODEL 9
REMARK VINA RESULT:      -6.4      1.031      1.487
REMARK  Name = 
REMARK  2 active torsions:
REMARK  status: ('A' for Active; 'I' for Inactive)
REMARK    1  A    between atoms: C_1  and  N_2
REMARK    2  A    between atoms: C_13  and  C_14
REMARK                            x       y       z     vdW  Elec       q    Type
REMARK                         _______ _______ _______ _____ _____    ______ ____
ROOT
ATOM      1  C   UNL     1       1.132   2.109  20.018  0.00  0.00    +0.000 C 
ATOM      2  N   UNL     1       2.197   2.507  19.112  0.00  0.00    +0.000 N 
ATOM      3  C   UNL     1       3.190   1.731  18.615  0.00  0.00    +0.000 A 
ATOM      4  N   UNL     1       4.052   2.436  17.846  0.00  0.00    +0.000 NA
ATOM      5  C   UNL     1       3.574   3.691  17.879  0.00  0.00    +0.000 A 
ATOM      6  C   UNL     1       4.112   4.851  17.321  0.00  0.00    +0.000 A 
ATOM      7  N   UNL     1       5.304   4.841  16.532  0.00  0.00    +0.000 N 
ATOM      8  C   UNL     1       5.910   6.032  15.978  0.00  0.00    +0.000 C 
ATOM      9  C   UNL     1       6.358   5.568  14.600  0.00  0.00    +0.000 C 
ATOM     10  C   UNL     1       6.886   4.180  14.928  0.00  0.00    +0.000 C 
ATOM     11  C   UNL     1       5.807   3.654  15.867  0.00  0.00    +0.000 C 
ATOM     12  N   UNL     1       3.459   6.026  17.578  0.00  0.00    +0.000 NA
ATOM     13  C   UNL     1       2.306   6.098  18.324  0.00  0.00    +0.000 A 
ATOM     14  C   UNL     1       1.749   4.922  18.869  0.00  0.00    +0.000 A 
ATOM     15  C   UNL     1       2.443   3.737  18.634  0.00  0.00    +0.000 A 
ENDROOT
BRANCH  13  16
ATOM     16  C   UNL     1       1.720   7.464  18.609  0.00  0.00    +0.000 C 
ATOM     17  C   UNL     1       1.748   7.883  20.090  0.00  0.00    +0.000 C 
ATOM     18  C   UNL     1       1.047   9.249  20.224  0.00  0.00    +0.000 C 
ATOM     19  N   UNL     1       1.703  10.275  19.391  0.00  0.00    +0.000 NA
ATOM     20  C   UNL     1       1.731   9.887  17.971  0.00  0.00    +0.000 C 
ATOM     21  C   UNL     1       2.438   8.541  17.779  0.00  0.00    +0.000 C 
ATOM     22  H   UNL     1       2.681  10.429  19.733  0.00  0.00    +0.000 HD
ENDBRANCH  13  16
TORSDOF 1
ENDMDL
