MODEL 1
REMARK VINA RESULT:      -8.0      0.000      0.000
REMARK  Name = 
REMARK  5 active torsions:
REMARK  status: ('A' for Active; 'I' for Inactive)
REMARK    1  A    between atoms: C_1  and  O_2
REMARK    2  A    between atoms: O_2  and  C_3
REMARK    3  A    between atoms: C_8  and  O_9
REMARK    4  A    between atoms: C_11  and  C_12
REMARK    5  A    between atoms: C_17  and  O_18
REMARK                            x       y       z     vdW  Elec       q    Type
REMARK                         _______ _______ _______ _____ _____    ______ ____
ROOT
ATOM      1  C   UNL     1      -0.223  10.518  21.462  0.00  0.00    +0.000 A 
ATOM      2  C   UNL     1       0.040  10.427  20.092  0.00  0.00    +0.000 A 
ATOM      3  C   UNL     1       0.895   9.437  19.604  0.00  0.00    +0.000 A 
ATOM      4  C   UNL     1       1.477   8.506  20.472  0.00  0.00    +0.000 A 
ATOM      5  C   UNL     1       1.241   8.613  21.848  0.00  0.00    +0.000 A 
ATOM      6  C   UNL     1       0.404   9.616  22.332  0.00  0.00    +0.000 A 
ATOM      7  C   UNL     1       2.373   7.419  19.941  0.00  0.00    +0.000 C 
ATOM      8  C   UNL     1       2.158   7.238  18.432  0.00  0.00    +0.000 C 
ATOM      9  C   UNL     1       2.176   8.624  17.785  0.00  0.00    +0.000 C 
ATOM     10  O   UNL     1       1.082   9.430  18.245  0.00  0.00    +0.000 OA
ENDROOT
BRANCH   8  11
ATOM     11  C   UNL     1       3.128   6.248  17.808  0.00  0.00    +0.000 A 
ATOM     12  C   UNL     1       4.304   6.739  17.204  0.00  0.00    +0.000 A 
ATOM     13  C   UNL     1       5.155   5.836  16.599  0.00  0.00    +0.000 A 
ATOM     14  C   UNL     1       4.860   4.497  16.537  0.00  0.00    +0.000 A 
ATOM     15  C   UNL     1       3.735   3.969  17.126  0.00  0.00    +0.000 A 
ATOM     16  C   UNL     1       2.894   4.857  17.800  0.00  0.00    +0.000 A 
ATOM     17  O   UNL     1       5.815   3.786  15.877  0.00  0.00    +0.000 OA
ATOM     18  C   UNL     1       6.833   4.796  15.740  0.00  0.00    +0.000 C 
ATOM     19  O   UNL     1       6.348   6.127  16.012  0.00  0.00    +0.000 OA
BRANCH  16  20
ATOM     20  O   UNL     1       1.834   4.356  18.500  0.00  0.00    +0.000 OA
ATOM     21  H   UNL     1       1.856   4.717  19.403  0.00  0.00    +0.000 HD
ENDBRANCH  16  20
ENDBRANCH   8  11
BRANCH   1  23
ATOM     22  C   UNL     1      -0.563  12.810  21.943  0.00  0.00    +0.000 C 
ATOM     23  O   UNL     1      -1.030  11.470  22.029  0.00  0.00    +0.000 OA
ENDBRANCH   1  23
BRANCH   6  24
ATOM     24  O   UNL     1       0.173   9.714  23.678  0.00  0.00    +0.000 OA
ATOM     25  H   UNL     1       0.953  10.102  24.105  0.00  0.00    +0.000 HD
ENDBRANCH   6  24
TORSDOF 4
ENDMDL
MODEL 2
REMARK VINA RESULT:      -7.3      1.192      8.125
REMARK  Name = 
REMARK  5 active torsions:
REMARK  status: ('A' for Active; 'I' for Inactive)
REMARK    1  A    between atoms: C_1  and  O_2
REMARK    2  A    between atoms: O_2  and  C_3
REMARK    3  A    between atoms: C_8  and  O_9
REMARK    4  A    between atoms: C_11  and  C_12
REMARK    5  A    between atoms: C_17  and  O_18
REMARK                            x       y       z     vdW  Elec       q    Type
REMARK                         _______ _______ _______ _____ _____    ______ ____
ROOT
ATOM      1  C   UNL     1       5.809   4.499  15.884  0.00  0.00    +0.000 A 
ATOM      2  C   UNL     1       4.566   4.288  16.486  0.00  0.00    +0.000 A 
ATOM      3  C   UNL     1       3.954   5.308  17.216  0.00  0.00    +0.000 A 
ATOM      4  C   UNL     1       4.561   6.564  17.332  0.00  0.00    +0.000 A 
ATOM      5  C   UNL     1       5.821   6.770  16.756  0.00  0.00    +0.000 A 
ATOM      6  C   UNL     1       6.437   5.740  16.047  0.00  0.00    +0.000 A 
ATOM      7  C   UNL     1       3.886   7.675  18.090  0.00  0.00    +0.000 C 
ATOM      8  C   UNL     1       2.391   7.373  18.263  0.00  0.00    +0.000 C 
ATOM      9  C   UNL     1       2.256   5.928  18.746  0.00  0.00    +0.000 C 
ATOM     10  O   UNL     1       2.733   5.001  17.761  0.00  0.00    +0.000 OA
ENDROOT
BRANCH   8  11
ATOM     11  C   UNL     1       1.677   8.390  19.138  0.00  0.00    +0.000 A 
ATOM     12  C   UNL     1       1.377   8.046  20.472  0.00  0.00    +0.000 A 
ATOM     13  C   UNL     1       0.686   8.959  21.245  0.00  0.00    +0.000 A 
ATOM     14  C   UNL     1       0.256  10.158  20.732  0.00  0.00    +0.000 A 
ATOM     15  C   UNL     1       0.539  10.545  19.443  0.00  0.00    +0.000 A 
ATOM     16  C   UNL     1       1.294   9.663  18.666  0.00  0.00    +0.000 A 
ATOM     17  O   UNL     1      -0.426  10.898  21.648  0.00  0.00    +0.000 OA
ATOM     18  C   UNL     1      -0.171  10.126  22.837  0.00  0.00    +0.000 C 
ATOM     19  O   UNL     1       0.356   8.813  22.556  0.00  0.00    +0.000 OA
BRANCH  16  20
ATOM     20  O   UNL     1       1.699  10.062  17.424  0.00  0.00    +0.000 OA
ATOM     21  H   UNL     1       2.105  10.943  17.496  0.00  0.00    +0.000 HD
ENDBRANCH  16  20
ENDBRANCH   8  11
BRANCH   1  23
ATOM     22  C   UNL     1       6.221   3.508  13.774  0.00  0.00    +0.000 C 
ATOM     23  O   UNL     1       6.490   3.547  15.170  0.00  0.00    +0.000 OA
ENDBRANCH   1  23
BRANCH   6  24
ATOM     24  O   UNL     1       7.667   5.949  15.483  0.00  0.00    +0.000 OA
ATOM     25  H   UNL     1       7.553   6.154  14.542  0.00  0.00    +0.000 HD
ENDBRANCH   6  24
TORSDOF 4
ENDMDL
MODEL 3
REMARK VINA RESULT:      -7.1      2.347      2.708
REMARK  Name = 
REMARK  5 active torsions:
REMARK  status: ('A' for Active; 'I' for Inactive)
REMARK    1  A    between atoms: C_1  and  O_2
REMARK    2  A    between atoms: O_2  and  C_3
REMARK    3  A    between atoms: C_8  and  O_9
REMARK    4  A    between atoms: C_11  and  C_12
REMARK    5  A    between atoms: C_17  and  O_18
REMARK                            x       y       z     vdW  Elec       q    Type
REMARK                         _______ _______ _______ _____ _____    ______ ____
ROOT
ATOM      1  C   UNL     1       0.789  10.867  20.473  0.00  0.00    +0.000 A 
ATOM      2  C   UNL     1       1.271  10.289  19.296  0.00  0.00    +0.000 A 
ATOM      3  C   UNL     1       1.641   8.943  19.272  0.00  0.00    +0.000 A 
ATOM      4  C   UNL     1       1.508   8.147  20.415  0.00  0.00    +0.000 A 
ATOM      5  C   UNL     1       1.054   8.730  21.605  0.00  0.00    +0.000 A 
ATOM      6  C   UNL     1       0.707  10.079  21.629  0.00  0.00    +0.000 A 
ATOM      7  C   UNL     1       1.874   6.688  20.380  0.00  0.00    +0.000 C 
ATOM      8  C   UNL     1       1.936   6.187  18.931  0.00  0.00    +0.000 C 
ATOM      9  C   UNL     1       2.749   7.196  18.118  0.00  0.00    +0.000 C 
ATOM     10  O   UNL     1       2.094   8.471  18.066  0.00  0.00    +0.000 OA
ENDROOT
BRANCH   8  11
ATOM     11  C   UNL     1       2.434   4.755  18.818  0.00  0.00    +0.000 A 
ATOM     12  C   UNL     1       3.444   4.316  19.698  0.00  0.00    +0.000 A 
ATOM     13  C   UNL     1       3.922   3.028  19.556  0.00  0.00    +0.000 A 
ATOM     14  C   UNL     1       3.469   2.196  18.563  0.00  0.00    +0.000 A 
ATOM     15  C   UNL     1       2.472   2.572  17.693  0.00  0.00    +0.000 A 
ATOM     16  C   UNL     1       1.930   3.848  17.861  0.00  0.00    +0.000 A 
ATOM     17  O   UNL     1       4.085   0.982  18.582  0.00  0.00    +0.000 OA
ATOM     18  C   UNL     1       4.799   1.081  19.829  0.00  0.00    +0.000 C 
ATOM     19  O   UNL     1       4.857   2.428  20.342  0.00  0.00    +0.000 OA
BRANCH  16  20
ATOM     20  O   UNL     1       0.858   4.214  17.098  0.00  0.00    +0.000 OA
ATOM     21  H   UNL     1       0.812   3.629  16.322  0.00  0.00    +0.000 HD
ENDBRANCH  16  20
ENDBRANCH   8  11
BRANCH   1  23
ATOM     22  C   UNL     1       0.059  12.837  19.383  0.00  0.00    +0.000 C 
ATOM     23  O   UNL     1       0.426  12.183  20.591  0.00  0.00    +0.000 OA
ENDBRANCH   1  23
BRANCH   6  24
ATOM     24  O   UNL     1       0.261  10.643  22.794  0.00  0.00    +0.000 OA
ATOM     25  H   UNL     1       0.858  10.391  23.516  0.00  0.00    +0.000 HD
ENDBRANCH   6  24
TORSDOF 4
ENDMDL
MODEL 4
REMARK VINA RESULT:      -7.0      1.364      2.141
REMARK  Name = 
REMARK  5 active torsions:
REMARK  status: ('A' for Active; 'I' for Inactive)
REMARK    1  A    between atoms: C_1  and  O_2
REMARK    2  A    between atoms: O_2  and  C_3
REMARK    3  A    between atoms: C_8  and  O_9
REMARK    4  A    between atoms: C_11  and  C_12
REMARK    5  A    between atoms: C_17  and  O_18
REMARK                            x       y       z     vdW  Elec       q    Type
REMARK                         _______ _______ _______ _____ _____    ______ ____
ROOT
ATOM      1  C   UNL     1       0.169  10.465  20.519  0.00  0.00    +0.000 A 
ATOM      2  C   UNL     1       0.652   9.220  20.932  0.00  0.00    +0.000 A 
ATOM      3  C   UNL     1       1.389   8.423  20.054  0.00  0.00    +0.000 A 
ATOM      4  C   UNL     1       1.679   8.870  18.760  0.00  0.00    +0.000 A 
ATOM      5  C   UNL     1       1.171  10.103  18.331  0.00  0.00    +0.000 A 
ATOM      6  C   UNL     1       0.418  10.884  19.205  0.00  0.00    +0.000 A 
ATOM      7  C   UNL     1       2.503   8.026  17.824  0.00  0.00    +0.000 C 
ATOM      8  C   UNL     1       3.279   6.959  18.610  0.00  0.00    +0.000 C 
ATOM      9  C   UNL     1       2.307   6.291  19.583  0.00  0.00    +0.000 C 
ATOM     10  O   UNL     1       1.822   7.224  20.559  0.00  0.00    +0.000 OA
ENDROOT
BRANCH   8  11
ATOM     11  C   UNL     1       4.026   5.986  17.712  0.00  0.00    +0.000 A 
ATOM     12  C   UNL     1       4.843   6.501  16.685  0.00  0.00    +0.000 A 
ATOM     13  C   UNL     1       5.480   5.609  15.845  0.00  0.00    +0.000 A 
ATOM     14  C   UNL     1       5.299   4.253  15.964  0.00  0.00    +0.000 A 
ATOM     15  C   UNL     1       4.527   3.703  16.959  0.00  0.00    +0.000 A 
ATOM     16  C   UNL     1       3.927   4.587  17.859  0.00  0.00    +0.000 A 
ATOM     17  O   UNL     1       5.995   3.554  15.025  0.00  0.00    +0.000 OA
ATOM     18  C   UNL     1       6.796   4.611  14.464  0.00  0.00    +0.000 C 
ATOM     19  O   UNL     1       6.336   5.927  14.837  0.00  0.00    +0.000 OA
BRANCH  16  20
ATOM     20  O   UNL     1       3.252   4.076  18.932  0.00  0.00    +0.000 OA
ATOM     21  H   UNL     1       3.223   3.108  18.851  0.00  0.00    +0.000 HD
ENDBRANCH  16  20
ENDBRANCH   8  11
BRANCH   1  23
ATOM     22  C   UNL     1      -0.811  10.856  22.637  0.00  0.00    +0.000 C 
ATOM     23  O   UNL     1      -0.581  11.299  21.306  0.00  0.00    +0.000 OA
ENDBRANCH   1  23
BRANCH   6  24
ATOM     24  O   UNL     1      -0.073  12.090  18.782  0.00  0.00    +0.000 OA
ATOM     25  H   UNL     1      -0.796  12.361  19.370  0.00  0.00    +0.000 HD
ENDBRANCH   6  24
TORSDOF 4
ENDMDL
MODEL 5
REMARK VINA RESULT:      -6.8      1.705      2.715
REMARK  Name = 
REMARK  5 active torsions:
REMARK  status: ('A' for Active; 'I' for Inactive)
REMARK    1  A    between atoms: C_1  and  O_2
REMARK    2  A    between atoms: O_2  and  C_3
REMARK    3  A    between atoms: C_8  and  O_9
REMARK    4  A    between atoms: C_11  and  C_12
REMARK    5  A    between atoms: C_17  and  O_18
REMARK                            x       y       z     vdW  Elec       q    Type
REMARK                         _______ _______ _______ _____ _____    ______ ____
ROOT
ATOM      1  C   UNL     1       0.104   9.317  20.689  0.00  0.00    +0.000 A 
ATOM      2  C   UNL     1       0.764   8.123  20.995  0.00  0.00    +0.000 A 
ATOM      3  C   UNL     1       1.739   7.616  20.135  0.00  0.00    +0.000 A 
ATOM      4  C   UNL     1       2.091   8.307  18.970  0.00  0.00    +0.000 A 
ATOM      5  C   UNL     1       1.411   9.488  18.644  0.00  0.00    +0.000 A 
ATOM      6  C   UNL     1       0.423   9.977  19.496  0.00  0.00    +0.000 A 
ATOM      7  C   UNL     1       3.166   7.778  18.060  0.00  0.00    +0.000 C 
ATOM      8  C   UNL     1       4.033   6.748  18.798  0.00  0.00    +0.000 C 
ATOM      9  C   UNL     1       3.098   5.776  19.519  0.00  0.00    +0.000 C 
ATOM     10  O   UNL     1       2.330   6.443  20.531  0.00  0.00    +0.000 OA
ENDROOT
BRANCH   8  11
ATOM     11  C   UNL     1       5.054   6.075  17.896  0.00  0.00    +0.000 A 
ATOM     12  C   UNL     1       4.894   6.174  16.498  0.00  0.00    +0.000 A 
ATOM     13  C   UNL     1       5.800   5.519  15.688  0.00  0.00    +0.000 A 
ATOM     14  C   UNL     1       6.811   4.750  16.210  0.00  0.00    +0.000 A 
ATOM     15  C   UNL     1       7.018   4.638  17.565  0.00  0.00    +0.000 A 
ATOM     16  C   UNL     1       6.151   5.346  18.401  0.00  0.00    +0.000 A 
ATOM     17  O   UNL     1       7.575   4.173  15.243  0.00  0.00    +0.000 OA
ATOM     18  C   UNL     1       7.065   4.850  14.079  0.00  0.00    +0.000 C 
ATOM     19  O   UNL     1       5.825   5.545  14.328  0.00  0.00    +0.000 OA
BRANCH  16  20
ATOM     20  O   UNL     1       6.396   5.358  19.744  0.00  0.00    +0.000 OA
ATOM     21  H   UNL     1       5.743   4.790  20.187  0.00  0.00    +0.000 HD
ENDBRANCH  16  20
ENDBRANCH   8  11
BRANCH   1  23
ATOM     22  C   UNL     1      -0.490  10.269  22.772  0.00  0.00    +0.000 C 
ATOM     23  O   UNL     1      -0.880   9.873  21.464  0.00  0.00    +0.000 OA
ENDBRANCH   1  23
BRANCH   6  24
ATOM     24  O   UNL     1      -0.235  11.133  19.173  0.00  0.00    +0.000 OA
ATOM     25  H   UNL     1      -0.709  11.456  19.955  0.00  0.00    +0.000 HD
ENDBRANCH   6  24
TORSDOF 4
ENDMDL
MODEL 6
REMARK VINA RESULT:      -6.8      1.862      7.925
REMARK  Name = 
REMARK  5 active torsions:
REMARK  status: ('A' for Active; 'I' for Inactive)
REMARK    1  A    between atoms: C_1  and  O_2
REMARK    2  A    between atoms: O_2  and  C_3
REMARK    3  A    between atoms: C_8  and  O_9
REMARK    4  A    between atoms: C_11  and  C_12
REMARK    5  A    between atoms: C_17  and  O_18
REMARK                            x       y       z     vdW  Elec       q    Type
REMARK                         _______ _______ _______ _____ _____    ______ ____
ROOT
ATOM      1  C   UNL     1       3.761   4.638  18.609  0.00  0.00    +0.000 A 
ATOM      2  C   UNL     1       2.938   5.108  19.636  0.00  0.00    +0.000 A 
ATOM      3  C   UNL     1       2.458   6.418  19.611  0.00  0.00    +0.000 A 
ATOM      4  C   UNL     1       2.768   7.271  18.546  0.00  0.00    +0.000 A 
ATOM      5  C   UNL     1       3.618   6.815  17.530  0.00  0.00    +0.000 A 
ATOM      6  C   UNL     1       4.112   5.512  17.571  0.00  0.00    +0.000 A 
ATOM      7  C   UNL     1       2.223   8.673  18.502  0.00  0.00    +0.000 C 
ATOM      8  C   UNL     1       1.025   8.811  19.452  0.00  0.00    +0.000 C 
ATOM      9  C   UNL     1       1.414   8.185  20.793  0.00  0.00    +0.000 C 
ATOM     10  O   UNL     1       1.653   6.777  20.663  0.00  0.00    +0.000 OA
ENDROOT
BRANCH   8  11
ATOM     11  C   UNL     1       0.512  10.237  19.558  0.00  0.00    +0.000 A 
ATOM     12  C   UNL     1       0.919  11.026  20.654  0.00  0.00    +0.000 A 
ATOM     13  C   UNL     1       0.409  12.304  20.766  0.00  0.00    +0.000 A 
ATOM     14  C   UNL     1      -0.505  12.798  19.867  0.00  0.00    +0.000 A 
ATOM     15  C   UNL     1      -0.918  12.074  18.774  0.00  0.00    +0.000 A 
ATOM     16  C   UNL     1      -0.364  10.802  18.607  0.00  0.00    +0.000 A 
ATOM     17  O   UNL     1      -0.898  14.065  20.172  0.00  0.00    +0.000 OA
ATOM     18  C   UNL     1       0.040  14.376  21.219  0.00  0.00    +0.000 C 
ATOM     19  O   UNL     1       0.726  13.213  21.727  0.00  0.00    +0.000 OA
BRANCH  16  20
ATOM     20  O   UNL     1      -0.655  10.101  17.471  0.00  0.00    +0.000 OA
ATOM     21  H   UNL     1      -0.708  10.722  16.725  0.00  0.00    +0.000 HD
ENDBRANCH  16  20
ENDBRANCH   8  11
BRANCH   1  23
ATOM     22  C   UNL     1       4.198   2.621  19.765  0.00  0.00    +0.000 C 
ATOM     23  O   UNL     1       4.294   3.377  18.565  0.00  0.00    +0.000 OA
ENDBRANCH   1  23
BRANCH   6  24
ATOM     24  O   UNL     1       4.939   5.071  16.574  0.00  0.00    +0.000 OA
ATOM     25  H   UNL     1       5.477   4.337  16.910  0.00  0.00    +0.000 HD
ENDBRANCH   6  24
TORSDOF 4
ENDMDL
MODEL 7
REMARK VINA RESULT:      -6.8      2.508      7.685
REMARK  Name = 
REMARK  5 active torsions:
REMARK  status: ('A' for Active; 'I' for Inactive)
REMARK    1  A    between atoms: C_1  and  O_2
REMARK    2  A    between atoms: O_2  and  C_3
REMARK    3  A    between atoms: C_8  and  O_9
REMARK    4  A    between atoms: C_11  and  C_12
REMARK    5  A    between atoms: C_17  and  O_18
REMARK                            x       y       z     vdW  Elec       q    Type
REMARK                         _______ _______ _______ _____ _____    ______ ____
ROOT
ATOM      1  C   UNL     1       3.418   4.826  19.154  0.00  0.00    +0.000 A 
ATOM      2  C   UNL     1       2.635   5.553  20.055  0.00  0.00    +0.000 A 
ATOM      3  C   UNL     1       2.239   6.857  19.752  0.00  0.00    +0.000 A 
ATOM      4  C   UNL     1       2.596   7.445  18.533  0.00  0.00    +0.000 A 
ATOM      5  C   UNL     1       3.407   6.731  17.641  0.00  0.00    +0.000 A 
ATOM      6  C   UNL     1       3.816   5.438  17.959  0.00  0.00    +0.000 A 
ATOM      7  C   UNL     1       2.142   8.838  18.192  0.00  0.00    +0.000 C 
ATOM      8  C   UNL     1       0.962   9.250  19.084  0.00  0.00    +0.000 C 
ATOM      9  C   UNL     1       1.320   8.897  20.529  0.00  0.00    +0.000 C 
ATOM     10  O   UNL     1       1.467   7.480  20.699  0.00  0.00    +0.000 OA
ENDROOT
BRANCH   8  11
ATOM     11  C   UNL     1       0.542  10.697  18.884  0.00  0.00    +0.000 A 
ATOM     12  C   UNL     1       1.467  11.719  19.180  0.00  0.00    +0.000 A 
ATOM     13  C   UNL     1       1.060  13.031  19.040  0.00  0.00    +0.000 A 
ATOM     14  C   UNL     1      -0.222  13.352  18.665  0.00  0.00    +0.000 A 
ATOM     15  C   UNL     1      -1.153  12.391  18.350  0.00  0.00    +0.000 A 
ATOM     16  C   UNL     1      -0.741  11.059  18.422  0.00  0.00    +0.000 A 
ATOM     17  O   UNL     1      -0.424  14.697  18.611  0.00  0.00    +0.000 OA
ATOM     18  C   UNL     1       0.929  15.163  18.771  0.00  0.00    +0.000 C 
ATOM     19  O   UNL     1       1.829  14.135  19.235  0.00  0.00    +0.000 OA
BRANCH  16  20
ATOM     20  O   UNL     1      -1.597  10.081  18.001  0.00  0.00    +0.000 OA
ATOM     21  H   UNL     1      -1.353   9.820  17.096  0.00  0.00    +0.000 HD
ENDBRANCH  16  20
ENDBRANCH   8  11
BRANCH   1  23
ATOM     22  C   UNL     1       2.882   2.529  19.344  0.00  0.00    +0.000 C 
ATOM     23  O   UNL     1       3.869   3.552  19.381  0.00  0.00    +0.000 OA
ENDBRANCH   1  23
BRANCH   6  24
ATOM     24  O   UNL     1       4.606   4.744  17.082  0.00  0.00    +0.000 OA
ATOM     25  H   UNL     1       5.525   5.036  17.184  0.00  0.00    +0.000 HD
ENDBRANCH   6  24
TORSDOF 4
ENDMDL
MODEL 8
REMARK VINA RESULT:      -6.7      2.391      7.653
REMARK  Name = 
REMARK  5 active torsions:
REMARK  status: ('A' for Active; 'I' for Inactive)
REMARK    1  A    between atoms: C_1  and  O_2
REMARK    2  A    between atoms: O_2  and  C_3
REMARK    3  A    between atoms: C_8  and  O_9
REMARK    4  A    between atoms: C_11  and  C_12
REMARK    5  A    between atoms: C_17  and  O_18
REMARK                            x       y       z     vdW  Elec       q    Type
REMARK                         _______ _______ _______ _____ _____    ______ ____
ROOT
ATOM      1  C   UNL     1       3.560   3.324  19.928  0.00  0.00    +0.000 A 
ATOM      2  C   UNL     1       3.702   4.467  19.136  0.00  0.00    +0.000 A 
ATOM      3  C   UNL     1       2.930   5.602  19.391  0.00  0.00    +0.000 A 
ATOM      4  C   UNL     1       2.025   5.623  20.458  0.00  0.00    +0.000 A 
ATOM      5  C   UNL     1       1.856   4.470  21.235  0.00  0.00    +0.000 A 
ATOM      6  C   UNL     1       2.614   3.333  20.962  0.00  0.00    +0.000 A 
ATOM      7  C   UNL     1       1.217   6.858  20.754  0.00  0.00    +0.000 C 
ATOM      8  C   UNL     1       1.845   8.083  20.076  0.00  0.00    +0.000 C 
ATOM      9  C   UNL     1       2.163   7.709  18.628  0.00  0.00    +0.000 C 
ATOM     10  O   UNL     1       3.151   6.672  18.561  0.00  0.00    +0.000 OA
ENDROOT
BRANCH   8  11
ATOM     11  C   UNL     1       1.004   9.340  20.223  0.00  0.00    +0.000 A 
ATOM     12  C   UNL     1       0.274   9.802  19.108  0.00  0.00    +0.000 A 
ATOM     13  C   UNL     1      -0.450  10.971  19.238  0.00  0.00    +0.000 A 
ATOM     14  C   UNL     1      -0.437  11.702  20.401  0.00  0.00    +0.000 A 
ATOM     15  C   UNL     1       0.245  11.284  21.519  0.00  0.00    +0.000 A 
ATOM     16  C   UNL     1       0.931  10.070  21.428  0.00  0.00    +0.000 A 
ATOM     17  O   UNL     1      -1.193  12.830  20.311  0.00  0.00    +0.000 OA
ATOM     18  C   UNL     1      -1.851  12.595  19.052  0.00  0.00    +0.000 C 
ATOM     19  O   UNL     1      -1.243  11.533  18.287  0.00  0.00    +0.000 OA
BRANCH  16  20
ATOM     20  O   UNL     1       1.518   9.561  22.551  0.00  0.00    +0.000 OA
ATOM     21  H   UNL     1       1.402  10.194  23.280  0.00  0.00    +0.000 HD
ENDBRANCH  16  20
ENDBRANCH   8  11
BRANCH   1  23
ATOM     22  C   UNL     1       3.834   1.357  18.643  0.00  0.00    +0.000 C 
ATOM     23  O   UNL     1       4.259   2.162  19.735  0.00  0.00    +0.000 OA
ENDBRANCH   1  23
BRANCH   6  24
ATOM     24  O   UNL     1       2.448   2.210  21.727  0.00  0.00    +0.000 OA
ATOM     25  H   UNL     1       1.578   2.244  22.155  0.00  0.00    +0.000 HD
ENDBRANCH   6  24
TORSDOF 4
ENDMDL
MODEL 9
REMARK VINA RESULT:      -6.7      1.653      7.827
REMARK  Name = 
REMARK  5 active torsions:
REMARK  status: ('A' for Active; 'I' for Inactive)
REMARK    1  A    between atoms: C_1  and  O_2
REMARK    2  A    between atoms: O_2  and  C_3
REMARK    3  A    between atoms: C_8  and  O_9
REMARK    4  A    between atoms: C_11  and  C_12
REMARK    5  A    between atoms: C_17  and  O_18
REMARK                            x       y       z     vdW  Elec       q    Type
REMARK                         _______ _______ _______ _____ _____    ______ ____
ROOT
ATOM      1  C   UNL     1       4.978   4.879  17.558  0.00  0.00    +0.000 A 
ATOM      2  C   UNL     1       4.485   6.077  17.034  0.00  0.00    +0.000 A 
ATOM      3  C   UNL     1       3.547   6.826  17.748  0.00  0.00    +0.000 A 
ATOM      4  C   UNL     1       3.109   6.403  19.008  0.00  0.00    +0.000 A 
ATOM      5  C   UNL     1       3.576   5.187  19.523  0.00  0.00    +0.000 A 
ATOM      6  C   UNL     1       4.496   4.434  18.796  0.00  0.00    +0.000 A 
ATOM      7  C   UNL     1       2.123   7.226  19.792  0.00  0.00    +0.000 C 
ATOM      8  C   UNL     1       2.077   8.662  19.252  0.00  0.00    +0.000 C 
ATOM      9  C   UNL     1       1.967   8.589  17.729  0.00  0.00    +0.000 C 
ATOM     10  O   UNL     1       3.133   7.988  17.149  0.00  0.00    +0.000 OA
ENDROOT
BRANCH   8  11
ATOM     11  C   UNL     1       1.002   9.511  19.913  0.00  0.00    +0.000 A 
ATOM     12  C   UNL     1       0.101  10.223  19.094  0.00  0.00    +0.000 A 
ATOM     13  C   UNL     1      -0.841  11.028  19.703  0.00  0.00    +0.000 A 
ATOM     14  C   UNL     1      -0.887  11.179  21.067  0.00  0.00    +0.000 A 
ATOM     15  C   UNL     1      -0.042  10.493  21.906  0.00  0.00    +0.000 A 
ATOM     16  C   UNL     1       0.875   9.623  21.313  0.00  0.00    +0.000 A 
ATOM     17  O   UNL     1      -1.871  12.033  21.460  0.00  0.00    +0.000 OA
ATOM     18  C   UNL     1      -2.565  12.213  20.211  0.00  0.00    +0.000 C 
ATOM     19  O   UNL     1      -1.811  11.744  19.073  0.00  0.00    +0.000 OA
BRANCH  16  20
ATOM     20  O   UNL     1       1.648   8.833  22.116  0.00  0.00    +0.000 OA
ATOM     21  H   UNL     1       2.343   8.421  21.575  0.00  0.00    +0.000 HD
ENDBRANCH  16  20
ENDBRANCH   8  11
BRANCH   1  23
ATOM     22  C   UNL     1       7.192   4.603  16.769  0.00  0.00    +0.000 C 
ATOM     23  O   UNL     1       5.881   4.072  16.917  0.00  0.00    +0.000 OA
ENDBRANCH   1  23
BRANCH   6  24
ATOM     24  O   UNL     1       4.952   3.248  19.306  0.00  0.00    +0.000 OA
ATOM     25  H   UNL     1       5.223   3.383  20.228  0.00  0.00    +0.000 HD
ENDBRANCH   6  24
TORSDOF 4
ENDMDL
