MODEL 1
REMARK VINA RESULT:      -7.7      0.000      0.000
REMARK  Name = 
REMARK  5 active torsions:
REMARK  status: ('A' for Active; 'I' for Inactive)
REMARK    1  A    between atoms: C_1  and  C_2
REMARK    2  A    between atoms: C_2  and  C_3
REMARK    3  A    between atoms: N_5  and  C_6
REMARK    4  A    between atoms: C_9  and  C_10
REMARK    5  A    between atoms: C_15  and  N_16
REMARK                            x       y       z     vdW  Elec       q    Type
REMARK                         _______ _______ _______ _____ _____    ______ ____
ROOT
ATOM      1  C   UNL     1      -1.552  10.911  18.955  0.00  0.00    +0.000 C 
ATOM      2  O   UNL     1      -1.955  11.782  19.723  0.00  0.00    +0.000 OA
ATOM      3  N   UNL     1      -0.443  10.124  19.240  0.00  0.00    +0.000 N 
ATOM      4  C   UNL     1       0.241  10.231  20.516  0.00  0.00    +0.000 C 
ATOM      5  C   UNL     1       1.705   9.994  20.182  0.00  0.00    +0.000 C 
ATOM      6  C   UNL     1       1.664   8.996  19.023  0.00  0.00    +0.000 C 
ATOM      7  C   UNL     1       0.367   9.370  18.285  0.00  0.00    +0.000 C 
ENDROOT
BRANCH   6   8
ATOM      8  N   UNL     1       1.633   7.622  19.532  0.00  0.00    +0.000 N 
ATOM      9  C   UNL     1       2.428   6.717  18.840  0.00  0.00    +0.000 A 
ATOM     10  N   UNL     1       1.982   5.454  18.802  0.00  0.00    +0.000 NA
ATOM     11  C   UNL     1       2.743   4.547  18.150  0.00  0.00    +0.000 A 
ATOM     12  C   UNL     1       3.924   4.859  17.526  0.00  0.00    +0.000 A 
ATOM     13  C   UNL     1       4.788   3.906  16.838  0.00  0.00    +0.000 A 
ATOM     14  C   UNL     1       5.927   4.342  16.280  0.00  0.00    +0.000 A 
ATOM     15  C   UNL     1       6.309   5.778  16.334  0.00  0.00    +0.000 A 
ATOM     16  O   UNL     1       7.351   6.167  15.809  0.00  0.00    +0.000 OA
ATOM     17  N   UNL     1       5.449   6.614  16.979  0.00  0.00    +0.000 N 
ATOM     18  C   UNL     1       4.270   6.195  17.597  0.00  0.00    +0.000 A 
ATOM     19  N   UNL     1       3.545   7.132  18.228  0.00  0.00    +0.000 NA
ATOM     20  H   UNL     1       0.716   7.195  19.623  0.00  0.00    +0.000 HD
ATOM     21  H   UNL     1       5.688   7.591  17.050  0.00  0.00    +0.000 HD
ENDBRANCH   6   8
BRANCH   1  25
ATOM     22  C   UNL     1      -3.632  10.199  15.247  0.00  0.00    +0.000 A 
ATOM     23  C   UNL     1      -3.750   9.312  16.321  0.00  0.00    +0.000 A 
ATOM     24  C   UNL     1      -3.091   9.562  17.533  0.00  0.00    +0.000 A 
ATOM     25  C   UNL     1      -2.294  10.701  17.679  0.00  0.00    +0.000 A 
ATOM     26  C   UNL     1      -2.134  11.554  16.583  0.00  0.00    +0.000 A 
ATOM     27  C   UNL     1      -2.823  11.326  15.391  0.00  0.00    +0.000 A 
BRANCH  22  30
ATOM     28  C   UNL     1      -3.601   9.702  12.807  0.00  0.00    +0.000 C 
ATOM     29  O   UNL     1      -2.408   9.457  12.681  0.00  0.00    +0.000 OA
ATOM     30  N   UNL     1      -4.243  10.000  13.994  0.00  0.00    +0.000 N 
ATOM     31  H   UNL     1      -5.256  10.035  13.972  0.00  0.00    +0.000 HD
BRANCH  28  33
ATOM     32  C   UNL     1      -5.962   9.351  12.058  0.00  0.00    +0.000 C 
ATOM     33  C   UNL     1      -4.549   9.704  11.624  0.00  0.00    +0.000 C 
ENDBRANCH  28  33
ENDBRANCH  22  30
ENDBRANCH   1  25
TORSDOF 4
ENDMDL
MODEL 2
REMARK VINA RESULT:      -7.6      4.071     10.157
REMARK  Name = 
REMARK  5 active torsions:
REMARK  status: ('A' for Active; 'I' for Inactive)
REMARK    1  A    between atoms: C_1  and  C_2
REMARK    2  A    between atoms: C_2  and  C_3
REMARK    3  A    between atoms: N_5  and  C_6
REMARK    4  A    between atoms: C_9  and  C_10
REMARK    5  A    between atoms: C_15  and  N_16
REMARK                            x       y       z     vdW  Elec       q    Type
REMARK                         _______ _______ _______ _____ _____    ______ ____
ROOT
ATOM      1  C   UNL     1       1.595  10.957  18.464  0.00  0.00    +0.000 C 
ATOM      2  O   UNL     1       2.581  11.547  18.028  0.00  0.00    +0.000 OA
ATOM      3  N   UNL     1       0.382  11.597  18.683  0.00  0.00    +0.000 N 
ATOM      4  C   UNL     1       0.194  12.988  18.312  0.00  0.00    +0.000 C 
ATOM      5  C   UNL     1      -0.733  13.543  19.382  0.00  0.00    +0.000 C 
ATOM      6  C   UNL     1      -1.631  12.357  19.745  0.00  0.00    +0.000 C 
ATOM      7  C   UNL     1      -0.705  11.145  19.549  0.00  0.00    +0.000 C 
ENDROOT
BRANCH   6   8
ATOM      8  N   UNL     1      -2.798  12.310  18.860  0.00  0.00    +0.000 N 
ATOM      9  C   UNL     1      -4.021  12.158  19.502  0.00  0.00    +0.000 A 
ATOM     10  N   UNL     1      -4.961  11.486  18.822  0.00  0.00    +0.000 NA
ATOM     11  C   UNL     1      -6.166  11.336  19.414  0.00  0.00    +0.000 A 
ATOM     12  C   UNL     1      -6.461  11.821  20.663  0.00  0.00    +0.000 A 
ATOM     13  C   UNL     1      -7.757  11.706  21.324  0.00  0.00    +0.000 A 
ATOM     14  C   UNL     1      -7.916  12.239  22.544  0.00  0.00    +0.000 A 
ATOM     15  C   UNL     1      -6.793  12.923  23.237  0.00  0.00    +0.000 A 
ATOM     16  O   UNL     1      -6.949  13.398  24.360  0.00  0.00    +0.000 OA
ATOM     17  N   UNL     1      -5.609  12.981  22.569  0.00  0.00    +0.000 N 
ATOM     18  C   UNL     1      -5.410  12.465  21.288  0.00  0.00    +0.000 A 
ATOM     19  N   UNL     1      -4.196  12.634  20.742  0.00  0.00    +0.000 NA
ATOM     20  H   UNL     1      -2.772  11.621  18.115  0.00  0.00    +0.000 HD
ATOM     21  H   UNL     1      -4.831  13.455  23.002  0.00  0.00    +0.000 HD
ENDBRANCH   6   8
BRANCH   1  25
ATOM     22  C   UNL     1       2.051   6.773  19.398  0.00  0.00    +0.000 A 
ATOM     23  C   UNL     1       1.633   7.687  20.370  0.00  0.00    +0.000 A 
ATOM     24  C   UNL     1       1.463   9.042  20.054  0.00  0.00    +0.000 A 
ATOM     25  C   UNL     1       1.721   9.501  18.758  0.00  0.00    +0.000 A 
ATOM     26  C   UNL     1       2.194   8.593  17.806  0.00  0.00    +0.000 A 
ATOM     27  C   UNL     1       2.323   7.237  18.111  0.00  0.00    +0.000 A 
BRANCH  22  30
ATOM     28  C   UNL     1       3.492   4.764  19.698  0.00  0.00    +0.000 C 
ATOM     29  O   UNL     1       4.586   5.308  19.639  0.00  0.00    +0.000 OA
ATOM     30  N   UNL     1       2.268   5.404  19.649  0.00  0.00    +0.000 N 
ATOM     31  H   UNL     1       1.449   4.846  19.858  0.00  0.00    +0.000 HD
BRANCH  28  33
ATOM     32  C   UNL     1       2.662   2.902  21.148  0.00  0.00    +0.000 C 
ATOM     33  C   UNL     1       3.349   3.261  19.841  0.00  0.00    +0.000 C 
ENDBRANCH  28  33
ENDBRANCH  22  30
ENDBRANCH   1  25
TORSDOF 4
ENDMDL
MODEL 3
REMARK VINA RESULT:      -7.3      4.820      9.610
REMARK  Name = 
REMARK  5 active torsions:
REMARK  status: ('A' for Active; 'I' for Inactive)
REMARK    1  A    between atoms: C_1  and  C_2
REMARK    2  A    between atoms: C_2  and  C_3
REMARK    3  A    between atoms: N_5  and  C_6
REMARK    4  A    between atoms: C_9  and  C_10
REMARK    5  A    between atoms: C_15  and  N_16
REMARK                            x       y       z     vdW  Elec       q    Type
REMARK                         _______ _______ _______ _____ _____    ______ ____
ROOT
ATOM      1  C   UNL     1       2.288   6.119  20.047  0.00  0.00    +0.000 C 
ATOM      2  O   UNL     1       2.147   5.171  20.817  0.00  0.00    +0.000 OA
ATOM      3  N   UNL     1       1.750   7.373  20.306  0.00  0.00    +0.000 N 
ATOM      4  C   UNL     1       1.071   7.650  21.559  0.00  0.00    +0.000 C 
ATOM      5  C   UNL     1      -0.038   8.619  21.181  0.00  0.00    +0.000 C 
ATOM      6  C   UNL     1       0.561   9.439  20.035  0.00  0.00    +0.000 C 
ATOM      7  C   UNL     1       1.490   8.434  19.335  0.00  0.00    +0.000 C 
ENDROOT
BRANCH   6   8
ATOM      8  N   UNL     1       1.293  10.594  20.562  0.00  0.00    +0.000 N 
ATOM      9  C   UNL     1       0.516  11.532  21.232  0.00  0.00    +0.000 A 
ATOM     10  N   UNL     1       0.931  12.804  21.149  0.00  0.00    +0.000 NA
ATOM     11  C   UNL     1       0.205  13.736  21.804  0.00  0.00    +0.000 A 
ATOM     12  C   UNL     1      -0.925  13.446  22.526  0.00  0.00    +0.000 A 
ATOM     13  C   UNL     1      -1.719  14.417  23.271  0.00  0.00    +0.000 A 
ATOM     14  C   UNL     1      -2.797  13.996  23.948  0.00  0.00    +0.000 A 
ATOM     15  C   UNL     1      -3.204  12.567  23.935  0.00  0.00    +0.000 A 
ATOM     16  O   UNL     1      -4.200  12.196  24.552  0.00  0.00    +0.000 OA
ATOM     17  N   UNL     1      -2.426  11.718  23.208  0.00  0.00    +0.000 N 
ATOM     18  C   UNL     1      -1.282  12.110  22.514  0.00  0.00    +0.000 A 
ATOM     19  N   UNL     1      -0.596  11.151  21.875  0.00  0.00    +0.000 NA
ATOM     20  H   UNL     1       1.862  11.108  19.896  0.00  0.00    +0.000 HD
ATOM     21  H   UNL     1      -2.664  10.738  23.194  0.00  0.00    +0.000 HD
ENDBRANCH   6   8
BRANCH   1  25
ATOM     22  C   UNL     1       4.622   5.397  16.495  0.00  0.00    +0.000 A 
ATOM     23  C   UNL     1       3.858   4.379  17.074  0.00  0.00    +0.000 A 
ATOM     24  C   UNL     1       3.082   4.626  18.215  0.00  0.00    +0.000 A 
ATOM     25  C   UNL     1       3.071   5.898  18.797  0.00  0.00    +0.000 A 
ATOM     26  C   UNL     1       3.881   6.896  18.247  0.00  0.00    +0.000 A 
ATOM     27  C   UNL     1       4.621   6.660  17.087  0.00  0.00    +0.000 A 
BRANCH  22  30
ATOM     28  C   UNL     1       6.795   4.919  15.375  0.00  0.00    +0.000 C 
ATOM     29  O   UNL     1       7.463   4.660  16.366  0.00  0.00    +0.000 OA
ATOM     30  N   UNL     1       5.445   5.215  15.366  0.00  0.00    +0.000 N 
ATOM     31  H   UNL     1       4.991   5.264  14.461  0.00  0.00    +0.000 HD
BRANCH  28  33
ATOM     32  C   UNL     1       6.606   4.059  13.033  0.00  0.00    +0.000 C 
ATOM     33  C   UNL     1       7.397   4.942  13.984  0.00  0.00    +0.000 C 
ENDBRANCH  28  33
ENDBRANCH  22  30
ENDBRANCH   1  25
TORSDOF 4
ENDMDL
MODEL 4
REMARK VINA RESULT:      -7.2      4.124      9.884
REMARK  Name = 
REMARK  5 active torsions:
REMARK  status: ('A' for Active; 'I' for Inactive)
REMARK    1  A    between atoms: C_1  and  C_2
REMARK    2  A    between atoms: C_2  and  C_3
REMARK    3  A    between atoms: N_5  and  C_6
REMARK    4  A    between atoms: C_9  and  C_10
REMARK    5  A    between atoms: C_15  and  N_16
REMARK                            x       y       z     vdW  Elec       q    Type
REMARK                         _______ _______ _______ _____ _____    ______ ____
ROOT
ATOM      1  C   UNL     1       1.674  11.101  18.359  0.00  0.00    +0.000 C 
ATOM      2  O   UNL     1       2.618  11.755  17.920  0.00  0.00    +0.000 OA
ATOM      3  N   UNL     1       0.424  11.660  18.586  0.00  0.00    +0.000 N 
ATOM      4  C   UNL     1       0.144  13.037  18.220  0.00  0.00    +0.000 C 
ATOM      5  C   UNL     1      -0.812  13.527  19.296  0.00  0.00    +0.000 C 
ATOM      6  C   UNL     1      -1.629  12.285  19.660  0.00  0.00    +0.000 C 
ATOM      7  C   UNL     1      -0.628  11.136  19.455  0.00  0.00    +0.000 C 
ENDROOT
BRANCH   6   8
ATOM      8  N   UNL     1      -2.795  12.165  18.780  0.00  0.00    +0.000 N 
ATOM      9  C   UNL     1      -4.018  12.056  19.431  0.00  0.00    +0.000 A 
ATOM     10  N   UNL     1      -4.954  11.330  18.804  0.00  0.00    +0.000 NA
ATOM     11  C   UNL     1      -6.159  11.219  19.405  0.00  0.00    +0.000 A 
ATOM     12  C   UNL     1      -6.458  11.797  20.613  0.00  0.00    +0.000 A 
ATOM     13  C   UNL     1      -7.753  11.726  21.280  0.00  0.00    +0.000 A 
ATOM     14  C   UNL     1      -7.916  12.350  22.456  0.00  0.00    +0.000 A 
ATOM     15  C   UNL     1      -6.797  13.090  23.095  0.00  0.00    +0.000 A 
ATOM     16  O   UNL     1      -6.957  13.649  24.179  0.00  0.00    +0.000 OA
ATOM     17  N   UNL     1      -5.613  13.103  22.425  0.00  0.00    +0.000 N 
ATOM     18  C   UNL     1      -5.410  12.491  21.187  0.00  0.00    +0.000 A 
ATOM     19  N   UNL     1      -4.196  12.624  20.631  0.00  0.00    +0.000 NA
ATOM     20  H   UNL     1      -2.764  11.421  18.090  0.00  0.00    +0.000 HD
ATOM     21  H   UNL     1      -4.838  13.612  22.822  0.00  0.00    +0.000 HD
ENDBRANCH   6   8
BRANCH   1  25
ATOM     22  C   UNL     1       2.241   6.892  19.098  0.00  0.00    +0.000 A 
ATOM     23  C   UNL     1       2.651   7.473  17.895  0.00  0.00    +0.000 A 
ATOM     24  C   UNL     1       2.486   8.847  17.670  0.00  0.00    +0.000 A 
ATOM     25  C   UNL     1       1.897   9.655  18.647  0.00  0.00    +0.000 A 
ATOM     26  C   UNL     1       1.437   9.058  19.825  0.00  0.00    +0.000 A 
ATOM     27  C   UNL     1       1.638   7.697  20.064  0.00  0.00    +0.000 A 
BRANCH  22  30
ATOM     28  C   UNL     1       1.818   4.480  18.639  0.00  0.00    +0.000 C 
ATOM     29  O   UNL     1       1.260   4.591  17.555  0.00  0.00    +0.000 OA
ATOM     30  N   UNL     1       2.349   5.516  19.383  0.00  0.00    +0.000 N 
ATOM     31  H   UNL     1       2.911   5.263  20.188  0.00  0.00    +0.000 HD
BRANCH  28  33
ATOM     32  C   UNL     1       0.926   2.154  18.869  0.00  0.00    +0.000 C 
ATOM     33  C   UNL     1       1.998   3.135  19.315  0.00  0.00    +0.000 C 
ENDBRANCH  28  33
ENDBRANCH  22  30
ENDBRANCH   1  25
TORSDOF 4
ENDMDL
MODEL 5
REMARK VINA RESULT:      -7.2      6.039      9.804
REMARK  Name = 
REMARK  5 active torsions:
REMARK  status: ('A' for Active; 'I' for Inactive)
REMARK    1  A    between atoms: C_1  and  C_2
REMARK    2  A    between atoms: C_2  and  C_3
REMARK    3  A    between atoms: N_5  and  C_6
REMARK    4  A    between atoms: C_9  and  C_10
REMARK    5  A    between atoms: C_15  and  N_16
REMARK                            x       y       z     vdW  Elec       q    Type
REMARK                         _______ _______ _______ _____ _____    ______ ____
ROOT
ATOM      1  C   UNL     1       2.080  17.131  18.118  0.00  0.00    +0.000 C 
ATOM      2  O   UNL     1       2.021  18.255  17.622  0.00  0.00    +0.000 OA
ATOM      3  N   UNL     1       0.945  16.420  18.485  0.00  0.00    +0.000 N 
ATOM      4  C   UNL     1      -0.383  16.938  18.208  0.00  0.00    +0.000 C 
ATOM      5  C   UNL     1      -1.223  16.477  19.389  0.00  0.00    +0.000 C 
ATOM      6  C   UNL     1      -0.613  15.126  19.771  0.00  0.00    +0.000 C 
ATOM      7  C   UNL     1       0.874  15.302  19.424  0.00  0.00    +0.000 C 
ENDROOT
BRANCH   6   8
ATOM      8  N   UNL     1      -1.237  14.047  19.000  0.00  0.00    +0.000 N 
ATOM      9  C   UNL     1      -0.948  12.762  19.441  0.00  0.00    +0.000 A 
ATOM     10  N   UNL     1      -0.910  11.812  18.496  0.00  0.00    +0.000 NA
ATOM     11  C   UNL     1      -0.648  10.549  18.897  0.00  0.00    +0.000 A 
ATOM     12  C   UNL     1      -0.410  10.203  20.203  0.00  0.00    +0.000 A 
ATOM     13  C   UNL     1      -0.153   8.849  20.681  0.00  0.00    +0.000 A 
ATOM     14  C   UNL     1       0.050   8.646  21.991  0.00  0.00    +0.000 A 
ATOM     15  C   UNL     1       0.037   9.778  22.955  0.00  0.00    +0.000 A 
ATOM     16  O   UNL     1       0.235   9.580  24.152  0.00  0.00    +0.000 OA
ATOM     17  N   UNL     1      -0.194  11.016  22.439  0.00  0.00    +0.000 N 
ATOM     18  C   UNL     1      -0.438  11.265  21.088  0.00  0.00    +0.000 A 
ATOM     19  N   UNL     1      -0.689  12.535  20.736  0.00  0.00    +0.000 NA
ATOM     20  H   UNL     1      -1.072  14.056  17.998  0.00  0.00    +0.000 HD
ATOM     21  H   UNL     1      -0.228  11.804  23.068  0.00  0.00    +0.000 HD
ENDBRANCH   6   8
BRANCH   1  25
ATOM     22  C   UNL     1       5.916  15.262  18.728  0.00  0.00    +0.000 A 
ATOM     23  C   UNL     1       5.071  14.851  17.693  0.00  0.00    +0.000 A 
ATOM     24  C   UNL     1       3.836  15.479  17.485  0.00  0.00    +0.000 A 
ATOM     25  C   UNL     1       3.426  16.523  18.321  0.00  0.00    +0.000 A 
ATOM     26  C   UNL     1       4.250  16.891  19.388  0.00  0.00    +0.000 A 
ATOM     27  C   UNL     1       5.498  16.293  19.570  0.00  0.00    +0.000 A 
BRANCH  22  30
ATOM     28  C   UNL     1       8.367  14.949  18.408  0.00  0.00    +0.000 C 
ATOM     29  O   UNL     1       8.567  15.848  17.603  0.00  0.00    +0.000 OA
ATOM     30  N   UNL     1       7.158  14.662  19.014  0.00  0.00    +0.000 N 
ATOM     31  H   UNL     1       7.171  13.985  19.769  0.00  0.00    +0.000 HD
BRANCH  28  33
ATOM     32  C   UNL     1      10.241  13.471  17.659  0.00  0.00    +0.000 C 
ATOM     33  C   UNL     1       9.470  14.009  18.853  0.00  0.00    +0.000 C 
ENDBRANCH  28  33
ENDBRANCH  22  30
ENDBRANCH   1  25
TORSDOF 4
ENDMDL
MODEL 6
REMARK VINA RESULT:      -7.2      5.020      8.487
REMARK  Name = 
REMARK  5 active torsions:
REMARK  status: ('A' for Active; 'I' for Inactive)
REMARK    1  A    between atoms: C_1  and  C_2
REMARK    2  A    between atoms: C_2  and  C_3
REMARK    3  A    between atoms: N_5  and  C_6
REMARK    4  A    between atoms: C_9  and  C_10
REMARK    5  A    between atoms: C_15  and  N_16
REMARK                            x       y       z     vdW  Elec       q    Type
REMARK                         _______ _______ _______ _____ _____    ______ ____
ROOT
ATOM      1  C   UNL     1      -0.146  10.856  19.039  0.00  0.00    +0.000 C 
ATOM      2  O   UNL     1      -1.317  10.659  18.724  0.00  0.00    +0.000 OA
ATOM      3  N   UNL     1       0.337  12.120  19.354  0.00  0.00    +0.000 N 
ATOM      4  C   UNL     1      -0.553  13.265  19.418  0.00  0.00    +0.000 C 
ATOM      5  C   UNL     1       0.287  14.427  18.911  0.00  0.00    +0.000 C 
ATOM      6  C   UNL     1       1.704  14.092  19.382  0.00  0.00    +0.000 C 
ATOM      7  C   UNL     1       1.732  12.555  19.342  0.00  0.00    +0.000 C 
ENDROOT
BRANCH   6   8
ATOM      8  N   UNL     1       1.929  14.613  20.734  0.00  0.00    +0.000 N 
ATOM      9  C   UNL     1       3.262  14.700  21.119  0.00  0.00    +0.000 A 
ATOM     10  N   UNL     1       3.506  14.526  22.426  0.00  0.00    +0.000 NA
ATOM     11  C   UNL     1       4.790  14.621  22.834  0.00  0.00    +0.000 A 
ATOM     12  C   UNL     1       5.838  14.869  21.983  0.00  0.00    +0.000 A 
ATOM     13  C   UNL     1       7.233  15.008  22.387  0.00  0.00    +0.000 A 
ATOM     14  C   UNL     1       8.160  15.265  21.453  0.00  0.00    +0.000 A 
ATOM     15  C   UNL     1       7.792  15.390  20.019  0.00  0.00    +0.000 A 
ATOM     16  O   UNL     1       8.654  15.616  19.170  0.00  0.00    +0.000 OA
ATOM     17  N   UNL     1       6.476  15.235  19.711  0.00  0.00    +0.000 N 
ATOM     18  C   UNL     1       5.477  14.995  20.655  0.00  0.00    +0.000 A 
ATOM     19  N   UNL     1       4.217  14.904  20.203  0.00  0.00    +0.000 NA
ATOM     20  H   UNL     1       1.437  14.142  21.486  0.00  0.00    +0.000 HD
ATOM     21  H   UNL     1       6.189  15.332  18.748  0.00  0.00    +0.000 HD
ENDBRANCH   6   8
BRANCH   1  25
ATOM     22  C   UNL     1       2.442   7.409  19.096  0.00  0.00    +0.000 A 
ATOM     23  C   UNL     1       2.209   8.115  17.913  0.00  0.00    +0.000 A 
ATOM     24  C   UNL     1       1.386   9.250  17.905  0.00  0.00    +0.000 A 
ATOM     25  C   UNL     1       0.776   9.685  19.086  0.00  0.00    +0.000 A 
ATOM     26  C   UNL     1       0.967   8.941  20.254  0.00  0.00    +0.000 A 
ATOM     27  C   UNL     1       1.818   7.835  20.269  0.00  0.00    +0.000 A 
BRANCH  22  30
ATOM     28  C   UNL     1       2.832   4.958  18.874  0.00  0.00    +0.000 C 
ATOM     29  O   UNL     1       1.755   4.641  18.389  0.00  0.00    +0.000 OA
ATOM     30  N   UNL     1       3.234   6.246  19.174  0.00  0.00    +0.000 N 
ATOM     31  H   UNL     1       4.205   6.376  19.433  0.00  0.00    +0.000 HD
BRANCH  28  33
ATOM     32  C   UNL     1       5.286   4.536  19.120  0.00  0.00    +0.000 C 
ATOM     33  C   UNL     1       3.894   3.931  19.213  0.00  0.00    +0.000 C 
ENDBRANCH  28  33
ENDBRANCH  22  30
ENDBRANCH   1  25
TORSDOF 4
ENDMDL
MODEL 7
REMARK VINA RESULT:      -7.1      4.334      9.365
REMARK  Name = 
REMARK  5 active torsions:
REMARK  status: ('A' for Active; 'I' for Inactive)
REMARK    1  A    between atoms: C_1  and  C_2
REMARK    2  A    between atoms: C_2  and  C_3
REMARK    3  A    between atoms: N_5  and  C_6
REMARK    4  A    between atoms: C_9  and  C_10
REMARK    5  A    between atoms: C_15  and  N_16
REMARK                            x       y       z     vdW  Elec       q    Type
REMARK                         _______ _______ _______ _____ _____    ______ ____
ROOT
ATOM      1  C   UNL     1       2.699   6.538  19.327  0.00  0.00    +0.000 C 
ATOM      2  O   UNL     1       2.524   5.845  20.327  0.00  0.00    +0.000 OA
ATOM      3  N   UNL     1       2.228   7.841  19.233  0.00  0.00    +0.000 N 
ATOM      4  C   UNL     1       1.582   8.485  20.363  0.00  0.00    +0.000 C 
ATOM      5  C   UNL     1       0.516   9.370  19.736  0.00  0.00    +0.000 C 
ATOM      6  C   UNL     1       1.137   9.813  18.409  0.00  0.00    +0.000 C 
ATOM      7  C   UNL     1       2.006   8.608  18.010  0.00  0.00    +0.000 C 
ENDROOT
BRANCH   6   8
ATOM      8  N   UNL     1       1.933  11.029  18.598  0.00  0.00    +0.000 N 
ATOM      9  C   UNL     1       1.204  12.171  18.907  0.00  0.00    +0.000 A 
ATOM     10  N   UNL     1       1.714  13.329  18.464  0.00  0.00    +0.000 NA
ATOM     11  C   UNL     1       1.036  14.459  18.762  0.00  0.00    +0.000 A 
ATOM     12  C   UNL     1      -0.138  14.472  19.474  0.00  0.00    +0.000 A 
ATOM     13  C   UNL     1      -0.884  15.670  19.841  0.00  0.00    +0.000 A 
ATOM     14  C   UNL     1      -2.013  15.543  20.553  0.00  0.00    +0.000 A 
ATOM     15  C   UNL     1      -2.523  14.205  20.954  0.00  0.00    +0.000 A 
ATOM     16  O   UNL     1      -3.565  14.101  21.598  0.00  0.00    +0.000 OA
ATOM     17  N   UNL     1      -1.784  13.130  20.565  0.00  0.00    +0.000 N 
ATOM     18  C   UNL     1      -0.591  13.221  19.848  0.00  0.00    +0.000 A 
ATOM     19  N   UNL     1       0.045  12.072  19.572  0.00  0.00    +0.000 NA
ATOM     20  H   UNL     1       2.562  11.279  17.841  0.00  0.00    +0.000 HD
ATOM     21  H   UNL     1      -2.092  12.208  20.836  0.00  0.00    +0.000 HD
ENDBRANCH   6   8
BRANCH   1  25
ATOM     22  C   UNL     1       4.820   4.906  15.948  0.00  0.00    +0.000 A 
ATOM     23  C   UNL     1       5.029   6.225  16.360  0.00  0.00    +0.000 A 
ATOM     24  C   UNL     1       4.355   6.742  17.475  0.00  0.00    +0.000 A 
ATOM     25  C   UNL     1       3.452   5.944  18.185  0.00  0.00    +0.000 A 
ATOM     26  C   UNL     1       3.205   4.644  17.733  0.00  0.00    +0.000 A 
ATOM     27  C   UNL     1       3.907   4.117  16.648  0.00  0.00    +0.000 A 
BRANCH  22  30
ATOM     28  C   UNL     1       6.664   4.683  14.288  0.00  0.00    +0.000 C 
ATOM     29  O   UNL     1       7.450   5.487  14.772  0.00  0.00    +0.000 OA
ATOM     30  N   UNL     1       5.441   4.327  14.823  0.00  0.00    +0.000 N 
ATOM     31  H   UNL     1       4.963   3.543  14.394  0.00  0.00    +0.000 HD
BRANCH  28  33
ATOM     32  C   UNL     1       5.685   3.387  12.386  0.00  0.00    +0.000 C 
ATOM     33  C   UNL     1       6.958   3.956  12.990  0.00  0.00    +0.000 C 
ENDBRANCH  28  33
ENDBRANCH  22  30
ENDBRANCH   1  25
TORSDOF 4
ENDMDL
MODEL 8
REMARK VINA RESULT:      -7.1      5.104      8.235
REMARK  Name = 
REMARK  5 active torsions:
REMARK  status: ('A' for Active; 'I' for Inactive)
REMARK    1  A    between atoms: C_1  and  C_2
REMARK    2  A    between atoms: C_2  and  C_3
REMARK    3  A    between atoms: N_5  and  C_6
REMARK    4  A    between atoms: C_9  and  C_10
REMARK    5  A    between atoms: C_15  and  N_16
REMARK                            x       y       z     vdW  Elec       q    Type
REMARK                         _______ _______ _______ _____ _____    ______ ____
ROOT
ATOM      1  C   UNL     1      -0.135  10.918  19.368  0.00  0.00    +0.000 C 
ATOM      2  O   UNL     1      -1.355  10.773  19.313  0.00  0.00    +0.000 OA
ATOM      3  N   UNL     1       0.457  12.151  19.613  0.00  0.00    +0.000 N 
ATOM      4  C   UNL     1      -0.350  13.320  19.916  0.00  0.00    +0.000 C 
ATOM      5  C   UNL     1       0.405  14.475  19.278  0.00  0.00    +0.000 C 
ATOM      6  C   UNL     1       1.876  14.074  19.411  0.00  0.00    +0.000 C 
ATOM      7  C   UNL     1       1.832  12.540  19.308  0.00  0.00    +0.000 C 
ENDROOT
BRANCH   6   8
ATOM      8  N   UNL     1       2.415  14.526  20.697  0.00  0.00    +0.000 N 
ATOM      9  C   UNL     1       3.798  14.657  20.745  0.00  0.00    +0.000 A 
ATOM     10  N   UNL     1       4.368  14.420  21.935  0.00  0.00    +0.000 NA
ATOM     11  C   UNL     1       5.709  14.555  22.018  0.00  0.00    +0.000 A 
ATOM     12  C   UNL     1       6.502  14.904  20.954  0.00  0.00    +0.000 A 
ATOM     13  C   UNL     1       7.948  15.088  21.008  0.00  0.00    +0.000 A 
ATOM     14  C   UNL     1       8.602  15.446  19.893  0.00  0.00    +0.000 A 
ATOM     15  C   UNL     1       7.883  15.635  18.607  0.00  0.00    +0.000 A 
ATOM     16  O   UNL     1       8.496  15.953  17.589  0.00  0.00    +0.000 OA
ATOM     17  N   UNL     1       6.537  15.433  18.625  0.00  0.00    +0.000 N 
ATOM     18  C   UNL     1       5.815  15.088  19.768  0.00  0.00    +0.000 A 
ATOM     19  N   UNL     1       4.486  14.961  19.637  0.00  0.00    +0.000 NA
ATOM     20  H   UNL     1       2.143  13.988  21.513  0.00  0.00    +0.000 HD
ATOM     21  H   UNL     1       6.015  15.571  17.772  0.00  0.00    +0.000 HD
ENDBRANCH   6   8
BRANCH   1  25
ATOM     22  C   UNL     1       2.436   7.496  18.861  0.00  0.00    +0.000 A 
ATOM     23  C   UNL     1       1.902   7.816  20.113  0.00  0.00    +0.000 A 
ATOM     24  C   UNL     1       1.047   8.916  20.266  0.00  0.00    +0.000 A 
ATOM     25  C   UNL     1       0.725   9.717  19.166  0.00  0.00    +0.000 A 
ATOM     26  C   UNL     1       1.307   9.425  17.929  0.00  0.00    +0.000 A 
ATOM     27  C   UNL     1       2.126   8.306  17.769  0.00  0.00    +0.000 A 
BRANCH  22  30
ATOM     28  C   UNL     1       2.987   5.168  18.166  0.00  0.00    +0.000 C 
ATOM     29  O   UNL     1       1.882   4.825  17.768  0.00  0.00    +0.000 OA
ATOM     30  N   UNL     1       3.322   6.423  18.637  0.00  0.00    +0.000 N 
ATOM     31  H   UNL     1       4.306   6.608  18.794  0.00  0.00    +0.000 HD
BRANCH  28  33
ATOM     32  C   UNL     1       4.523   3.759  16.782  0.00  0.00    +0.000 C 
ATOM     33  C   UNL     1       4.164   4.213  18.188  0.00  0.00    +0.000 C 
ENDBRANCH  28  33
ENDBRANCH  22  30
ENDBRANCH   1  25
TORSDOF 4
ENDMDL
MODEL 9
REMARK VINA RESULT:      -7.0      6.822     11.378
REMARK  Name = 
REMARK  5 active torsions:
REMARK  status: ('A' for Active; 'I' for Inactive)
REMARK    1  A    between atoms: C_1  and  C_2
REMARK    2  A    between atoms: C_2  and  C_3
REMARK    3  A    between atoms: N_5  and  C_6
REMARK    4  A    between atoms: C_9  and  C_10
REMARK    5  A    between atoms: C_15  and  N_16
REMARK                            x       y       z     vdW  Elec       q    Type
REMARK                         _______ _______ _______ _____ _____    ______ ____
ROOT
ATOM      1  C   UNL     1       9.989  14.372  19.464  0.00  0.00    +0.000 C 
ATOM      2  O   UNL     1      11.166  14.713  19.373  0.00  0.00    +0.000 OA
ATOM      3  N   UNL     1       8.963  15.288  19.656  0.00  0.00    +0.000 N 
ATOM      4  C   UNL     1       9.227  16.716  19.660  0.00  0.00    +0.000 C 
ATOM      5  C   UNL     1       8.249  17.279  20.679  0.00  0.00    +0.000 C 
ATOM      6  C   UNL     1       7.020  16.376  20.550  0.00  0.00    +0.000 C 
ATOM      7  C   UNL     1       7.625  15.012  20.176  0.00  0.00    +0.000 C 
ENDROOT
BRANCH   6   8
ATOM      8  N   UNL     1       6.119  16.883  19.512  0.00  0.00    +0.000 N 
ATOM      9  C   UNL     1       5.044  16.057  19.207  0.00  0.00    +0.000 A 
ATOM     10  N   UNL     1       4.610  16.103  17.939  0.00  0.00    +0.000 NA
ATOM     11  C   UNL     1       3.556  15.324  17.616  0.00  0.00    +0.000 A 
ATOM     12  C   UNL     1       2.928  14.491  18.508  0.00  0.00    +0.000 A 
ATOM     13  C   UNL     1       1.771  13.657  18.207  0.00  0.00    +0.000 A 
ATOM     14  C   UNL     1       1.243  12.897  19.178  0.00  0.00    +0.000 A 
ATOM     15  C   UNL     1       1.831  12.878  20.544  0.00  0.00    +0.000 A 
ATOM     16  O   UNL     1       1.344  12.169  21.423  0.00  0.00    +0.000 OA
ATOM     17  N   UNL     1       2.919  13.670  20.751  0.00  0.00    +0.000 N 
ATOM     18  C   UNL     1       3.480  14.495  19.776  0.00  0.00    +0.000 A 
ATOM     19  N   UNL     1       4.528  15.248  20.142  0.00  0.00    +0.000 NA
ATOM     20  H   UNL     1       6.548  17.142  18.629  0.00  0.00    +0.000 HD
ATOM     21  H   UNL     1       3.330  13.695  21.671  0.00  0.00    +0.000 HD
ENDBRANCH   6   8
BRANCH   1  25
ATOM     22  C   UNL     1       9.172  10.147  19.214  0.00  0.00    +0.000 A 
ATOM     23  C   UNL     1       9.346  10.774  20.451  0.00  0.00    +0.000 A 
ATOM     24  C   UNL     1       9.588  12.153  20.527  0.00  0.00    +0.000 A 
ATOM     25  C   UNL     1       9.668  12.919  19.360  0.00  0.00    +0.000 A 
ATOM     26  C   UNL     1       9.549  12.276  18.124  0.00  0.00    +0.000 A 
ATOM     27  C   UNL     1       9.269  10.911  18.051  0.00  0.00    +0.000 A 
BRANCH  22  30
ATOM     28  C   UNL     1       8.076   8.166  18.174  0.00  0.00    +0.000 C 
ATOM     29  O   UNL     1       7.430   8.743  17.310  0.00  0.00    +0.000 OA
ATOM     30  N   UNL     1       8.953   8.764  19.059  0.00  0.00    +0.000 N 
ATOM     31  H   UNL     1       9.529   8.148  19.622  0.00  0.00    +0.000 HD
BRANCH  28  33
ATOM     32  C   UNL     1       7.104   6.025  17.320  0.00  0.00    +0.000 C 
ATOM     33  C   UNL     1       7.984   6.667  18.379  0.00  0.00    +0.000 C 
ENDBRANCH  28  33
ENDBRANCH  22  30
ENDBRANCH   1  25
TORSDOF 4
ENDMDL
