MODEL 1
REMARK VINA RESULT:      -8.5      0.000      0.000
REMARK  Name = 
REMARK  4 active torsions:
REMARK  status: ('A' for Active; 'I' for Inactive)
REMARK    1  A    between atoms: C_1  and  C_2
REMARK    2  A    between atoms: C_2  and  N_3
REMARK    3  A    between atoms: C_2  and  C_20
REMARK    4  A    between atoms: C_6  and  C_7
REMARK                            x       y       z     vdW  Elec       q    Type
REMARK                         _______ _______ _______ _____ _____    ______ ____
ROOT
ATOM      1  N   UNL     1       0.912  10.343  18.212  0.00  0.00    +0.000 N 
ATOM      2  C   UNL     1       1.421   9.185  18.757  0.00  0.00    +0.000 A 
ATOM      3  C   UNL     1       2.065   8.285  17.916  0.00  0.00    +0.000 A 
ATOM      4  C   UNL     1       2.574   7.138  18.479  0.00  0.00    +0.000 A 
ATOM      5  N   UNL     1       2.433   6.868  19.794  0.00  0.00    +0.000 NA
ATOM      6  C   UNL     1       1.779   7.781  20.519  0.00  0.00    +0.000 A 
ATOM      7  N   UNL     1       1.262   8.929  20.073  0.00  0.00    +0.000 NA
ATOM      8  H   UNL     1       1.291  10.654  17.330  0.00  0.00    +0.000 HD
ENDROOT
BRANCH   4   9
ATOM      9  C   UNL     1       3.255   6.090  17.716  0.00  0.00    +0.000 A 
ATOM     10  C   UNL     1       3.137   4.673  17.886  0.00  0.00    +0.000 A 
ATOM     11  N   UNL     1       3.095   4.130  19.134  0.00  0.00    +0.000 N 
ATOM     12  N   UNL     1       3.770   4.056  16.893  0.00  0.00    +0.000 NA
ATOM     13  N   UNL     1       4.859   4.836  16.842  0.00  0.00    +0.000 N 
ATOM     14  C   UNL     1       6.168   4.364  16.841  0.00  0.00    +0.000 A 
ATOM     15  C   UNL     1       7.151   5.193  17.203  0.00  0.00    +0.000 A 
ATOM     16  C   UNL     1       6.763   6.637  17.331  0.00  0.00    +0.000 A 
ATOM     17  N   UNL     1       5.548   7.108  17.293  0.00  0.00    +0.000 NA
ATOM     18  C   UNL     1       4.553   6.161  17.204  0.00  0.00    +0.000 A 
ATOM     19  H   UNL     1       2.259   4.404  19.646  0.00  0.00    +0.000 HD
ATOM     20  H   UNL     1       3.842   4.524  19.714  0.00  0.00    +0.000 HD
ENDBRANCH   4   9
BRANCH   1  22
ATOM     21  C   UNL     1       0.263  12.686  18.669  0.00  0.00    +0.000 C 
ATOM     22  C   UNL     1      -0.078  11.200  18.847  0.00  0.00    +0.000 C 
BRANCH  22  23
ATOM     23  C   UNL     1      -1.427  10.936  18.186  0.00  0.00    +0.000 A 
ATOM     24  C   UNL     1      -2.553  11.684  18.560  0.00  0.00    +0.000 A 
ATOM     25  C   UNL     1      -3.766  11.521  17.888  0.00  0.00    +0.000 A 
ATOM     26  C   UNL     1      -3.874  10.601  16.844  0.00  0.00    +0.000 A 
ATOM     27  C   UNL     1      -2.774   9.826  16.485  0.00  0.00    +0.000 A 
ATOM     28  C   UNL     1      -1.561   9.989  17.154  0.00  0.00    +0.000 A 
ENDBRANCH  22  23
ENDBRANCH   1  22
TORSDOF 3
ENDMDL
MODEL 2
REMARK VINA RESULT:      -8.3      0.278      1.004
REMARK  Name = 
REMARK  4 active torsions:
REMARK  status: ('A' for Active; 'I' for Inactive)
REMARK    1  A    between atoms: C_1  and  C_2
REMARK    2  A    between atoms: C_2  and  N_3
REMARK    3  A    between atoms: C_2  and  C_20
REMARK    4  A    between atoms: C_6  and  C_7
REMARK                            x       y       z     vdW  Elec       q    Type
REMARK                         _______ _______ _______ _____ _____    ______ ____
ROOT
ATOM      1  N   UNL     1       1.053  10.140  18.415  0.00  0.00    +0.000 N 
ATOM      2  C   UNL     1       1.528   8.940  18.898  0.00  0.00    +0.000 A 
ATOM      3  C   UNL     1       2.177   8.083  18.017  0.00  0.00    +0.000 A 
ATOM      4  C   UNL     1       2.653   6.894  18.518  0.00  0.00    +0.000 A 
ATOM      5  N   UNL     1       2.474   6.543  19.810  0.00  0.00    +0.000 NA
ATOM      6  C   UNL     1       1.817   7.421  20.575  0.00  0.00    +0.000 A 
ATOM      7  N   UNL     1       1.332   8.605  20.190  0.00  0.00    +0.000 NA
ATOM      8  H   UNL     1       1.459  10.498  17.564  0.00  0.00    +0.000 HD
ENDROOT
BRANCH   4   9
ATOM      9  C   UNL     1       3.335   5.884  17.707  0.00  0.00    +0.000 A 
ATOM     10  C   UNL     1       3.276   4.460  17.858  0.00  0.00    +0.000 A 
ATOM     11  N   UNL     1       3.313   3.897  19.097  0.00  0.00    +0.000 N 
ATOM     12  N   UNL     1       3.885   3.882  16.827  0.00  0.00    +0.000 NA
ATOM     13  N   UNL     1       4.941   4.703  16.739  0.00  0.00    +0.000 N 
ATOM     14  C   UNL     1       6.265   4.280  16.669  0.00  0.00    +0.000 A 
ATOM     15  C   UNL     1       7.233   5.139  17.000  0.00  0.00    +0.000 A 
ATOM     16  C   UNL     1       6.800   6.566  17.170  0.00  0.00    +0.000 A 
ATOM     17  N   UNL     1       5.568   6.991  17.196  0.00  0.00    +0.000 NA
ATOM     18  C   UNL     1       4.605   6.010  17.137  0.00  0.00    +0.000 A 
ATOM     19  H   UNL     1       2.492   4.132  19.651  0.00  0.00    +0.000 HD
ATOM     20  H   UNL     1       4.071   4.310  19.649  0.00  0.00    +0.000 HD
ENDBRANCH   4   9
BRANCH   1  22
ATOM     21  C   UNL     1       0.505  12.442  19.136  0.00  0.00    +0.000 C 
ATOM     22  C   UNL     1       0.061  10.973  19.079  0.00  0.00    +0.000 C 
BRANCH  22  23
ATOM     23  C   UNL     1      -1.235  10.894  18.280  0.00  0.00    +0.000 A 
ATOM     24  C   UNL     1      -1.389   9.922  17.280  0.00  0.00    +0.000 A 
ATOM     25  C   UNL     1      -2.609   9.776  16.616  0.00  0.00    +0.000 A 
ATOM     26  C   UNL     1      -3.685  10.605  16.932  0.00  0.00    +0.000 A 
ATOM     27  C   UNL     1      -3.537  11.598  17.897  0.00  0.00    +0.000 A 
ATOM     28  C   UNL     1      -2.320  11.745  18.563  0.00  0.00    +0.000 A 
ENDBRANCH  22  23
ENDBRANCH   1  22
TORSDOF 3
ENDMDL
MODEL 3
REMARK VINA RESULT:      -8.1      1.488      8.188
REMARK  Name = 
REMARK  4 active torsions:
REMARK  status: ('A' for Active; 'I' for Inactive)
REMARK    1  A    between atoms: C_1  and  C_2
REMARK    2  A    between atoms: C_2  and  N_3
REMARK    3  A    between atoms: C_2  and  C_20
REMARK    4  A    between atoms: C_6  and  C_7
REMARK                            x       y       z     vdW  Elec       q    Type
REMARK                         _______ _______ _______ _____ _____    ______ ____
ROOT
ATOM      1  N   UNL     1       3.407   6.250  17.579  0.00  0.00    +0.000 N 
ATOM      2  C   UNL     1       2.690   6.937  18.533  0.00  0.00    +0.000 A 
ATOM      3  C   UNL     1       2.156   8.175  18.194  0.00  0.00    +0.000 A 
ATOM      4  C   UNL     1       1.435   8.844  19.156  0.00  0.00    +0.000 A 
ATOM      5  N   UNL     1       1.270   8.343  20.399  0.00  0.00    +0.000 NA
ATOM      6  C   UNL     1       1.840   7.157  20.638  0.00  0.00    +0.000 A 
ATOM      7  N   UNL     1       2.543   6.423  19.772  0.00  0.00    +0.000 NA
ATOM      8  H   UNL     1       3.253   6.489  16.611  0.00  0.00    +0.000 HD
ENDROOT
BRANCH   4   9
ATOM      9  C   UNL     1       0.836  10.164  18.952  0.00  0.00    +0.000 A 
ATOM     10  C   UNL     1       0.802  11.257  19.877  0.00  0.00    +0.000 A 
ATOM     11  N   UNL     1       0.551  11.035  21.197  0.00  0.00    +0.000 N 
ATOM     12  N   UNL     1       0.329  12.339  19.265  0.00  0.00    +0.000 NA
ATOM     13  N   UNL     1      -0.660  11.754  18.575  0.00  0.00    +0.000 N 
ATOM     14  C   UNL     1      -1.978  12.203  18.552  0.00  0.00    +0.000 A 
ATOM     15  C   UNL     1      -2.942  11.350  18.197  0.00  0.00    +0.000 A 
ATOM     16  C   UNL     1      -2.471  10.053  17.607  0.00  0.00    +0.000 A 
ATOM     17  N   UNL     1      -1.238   9.630  17.579  0.00  0.00    +0.000 NA
ATOM     18  C   UNL     1      -0.326  10.434  18.223  0.00  0.00    +0.000 A 
ATOM     19  H   UNL     1       1.289  10.495  21.643  0.00  0.00    +0.000 HD
ATOM     20  H   UNL     1      -0.261  10.420  21.302  0.00  0.00    +0.000 HD
ENDBRANCH   4   9
BRANCH   1  22
ATOM     21  C   UNL     1       4.366   4.151  16.686  0.00  0.00    +0.000 C 
ATOM     22  C   UNL     1       4.317   5.147  17.853  0.00  0.00    +0.000 C 
BRANCH  22  23
ATOM     23  C   UNL     1       5.715   5.724  18.049  0.00  0.00    +0.000 A 
ATOM     24  C   UNL     1       6.171   6.762  17.223  0.00  0.00    +0.000 A 
ATOM     25  C   UNL     1       7.407   7.366  17.461  0.00  0.00    +0.000 A 
ATOM     26  C   UNL     1       8.208   6.935  18.518  0.00  0.00    +0.000 A 
ATOM     27  C   UNL     1       7.786   5.881  19.325  0.00  0.00    +0.000 A 
ATOM     28  C   UNL     1       6.550   5.278  19.090  0.00  0.00    +0.000 A 
ENDBRANCH  22  23
ENDBRANCH   1  22
TORSDOF 3
ENDMDL
MODEL 4
REMARK VINA RESULT:      -8.1      4.899      8.658
REMARK  Name = 
REMARK  4 active torsions:
REMARK  status: ('A' for Active; 'I' for Inactive)
REMARK    1  A    between atoms: C_1  and  C_2
REMARK    2  A    between atoms: C_2  and  N_3
REMARK    3  A    between atoms: C_2  and  C_20
REMARK    4  A    between atoms: C_6  and  C_7
REMARK                            x       y       z     vdW  Elec       q    Type
REMARK                         _______ _______ _______ _____ _____    ______ ____
ROOT
ATOM      1  N   UNL     1       6.716   4.300  14.687  0.00  0.00    +0.000 N 
ATOM      2  C   UNL     1       5.930   4.825  15.689  0.00  0.00    +0.000 A 
ATOM      3  C   UNL     1       5.670   4.039  16.805  0.00  0.00    +0.000 A 
ATOM      4  C   UNL     1       4.890   4.583  17.800  0.00  0.00    +0.000 A 
ATOM      5  N   UNL     1       4.364   5.822  17.695  0.00  0.00    +0.000 NA
ATOM      6  C   UNL     1       4.650   6.493  16.574  0.00  0.00    +0.000 A 
ATOM      7  N   UNL     1       5.407   6.062  15.561  0.00  0.00    +0.000 NA
ATOM      8  H   UNL     1       7.327   3.532  14.922  0.00  0.00    +0.000 HD
ENDROOT
BRANCH   4   9
ATOM      9  C   UNL     1       4.513   3.868  19.020  0.00  0.00    +0.000 A 
ATOM     10  C   UNL     1       4.574   2.456  19.257  0.00  0.00    +0.000 A 
ATOM     11  N   UNL     1       4.195   1.579  18.287  0.00  0.00    +0.000 N 
ATOM     12  N   UNL     1       4.316   2.212  20.538  0.00  0.00    +0.000 NA
ATOM     13  N   UNL     1       3.305   3.077  20.701  0.00  0.00    +0.000 N 
ATOM     14  C   UNL     1       2.075   2.754  21.267  0.00  0.00    +0.000 A 
ATOM     15  C   UNL     1       1.023   3.535  21.010  0.00  0.00    +0.000 A 
ATOM     16  C   UNL     1       1.337   4.839  20.336  0.00  0.00    +0.000 A 
ATOM     17  N   UNL     1       2.490   5.180  19.834  0.00  0.00    +0.000 NA
ATOM     18  C   UNL     1       3.463   4.207  19.878  0.00  0.00    +0.000 A 
ATOM     19  H   UNL     1       4.807   1.613  17.475  0.00  0.00    +0.000 HD
ATOM     20  H   UNL     1       3.294   1.861  17.890  0.00  0.00    +0.000 HD
ENDBRANCH   4   9
BRANCH   1  22
ATOM     21  C   UNL     1       8.186   5.380  13.016  0.00  0.00    +0.000 C 
ATOM     22  C   UNL     1       6.793   4.817  13.328  0.00  0.00    +0.000 C 
BRANCH  22  23
ATOM     23  C   UNL     1       6.515   3.666  12.367  0.00  0.00    +0.000 A 
ATOM     24  C   UNL     1       7.579   2.952  11.796  0.00  0.00    +0.000 A 
ATOM     25  C   UNL     1       7.334   1.833  10.998  0.00  0.00    +0.000 A 
ATOM     26  C   UNL     1       6.026   1.420  10.750  0.00  0.00    +0.000 A 
ATOM     27  C   UNL     1       4.957   2.139  11.280  0.00  0.00    +0.000 A 
ATOM     28  C   UNL     1       5.200   3.256  12.079  0.00  0.00    +0.000 A 
ENDBRANCH  22  23
ENDBRANCH   1  22
TORSDOF 3
ENDMDL
MODEL 5
REMARK VINA RESULT:      -7.8      2.591      8.164
REMARK  Name = 
REMARK  4 active torsions:
REMARK  status: ('A' for Active; 'I' for Inactive)
REMARK    1  A    between atoms: C_1  and  C_2
REMARK    2  A    between atoms: C_2  and  N_3
REMARK    3  A    between atoms: C_2  and  C_20
REMARK    4  A    between atoms: C_6  and  C_7
REMARK                            x       y       z     vdW  Elec       q    Type
REMARK                         _______ _______ _______ _____ _____    ______ ____
ROOT
ATOM      1  N   UNL     1       2.780   6.848  19.104  0.00  0.00    +0.000 N 
ATOM      2  C   UNL     1       2.051   8.016  19.062  0.00  0.00    +0.000 A 
ATOM      3  C   UNL     1       1.584   8.547  20.259  0.00  0.00    +0.000 A 
ATOM      4  C   UNL     1       0.865   9.719  20.198  0.00  0.00    +0.000 A 
ATOM      5  N   UNL     1       0.588  10.325  19.024  0.00  0.00    +0.000 NA
ATOM      6  C   UNL     1       1.058   9.726  17.925  0.00  0.00    +0.000 A 
ATOM      7  N   UNL     1       1.777   8.601  17.877  0.00  0.00    +0.000 NA
ATOM      8  H   UNL     1       3.221   6.600  19.977  0.00  0.00    +0.000 HD
ENDROOT
BRANCH   4   9
ATOM      9  C   UNL     1       0.292  10.382  21.371  0.00  0.00    +0.000 A 
ATOM     10  C   UNL     1      -0.120   9.774  22.601  0.00  0.00    +0.000 A 
ATOM     11  N   UNL     1      -0.789   8.588  22.593  0.00  0.00    +0.000 N 
ATOM     12  N   UNL     1      -0.422  10.723  23.482  0.00  0.00    +0.000 NA
ATOM     13  N   UNL     1      -1.081  11.550  22.659  0.00  0.00    +0.000 N 
ATOM     14  C   UNL     1      -2.338  12.088  22.923  0.00  0.00    +0.000 A 
ATOM     15  C   UNL     1      -3.071  12.540  21.902  0.00  0.00    +0.000 A 
ATOM     16  C   UNL     1      -2.351  12.656  20.591  0.00  0.00    +0.000 A 
ATOM     17  N   UNL     1      -1.158  12.197  20.332  0.00  0.00    +0.000 NA
ATOM     18  C   UNL     1      -0.568  11.484  21.351  0.00  0.00    +0.000 A 
ATOM     19  H   UNL     1      -0.215   7.825  22.243  0.00  0.00    +0.000 HD
ATOM     20  H   UNL     1      -1.550   8.618  21.908  0.00  0.00    +0.000 HD
ENDBRANCH   4   9
BRANCH   1  22
ATOM     21  C   UNL     1       4.532   5.792  17.714  0.00  0.00    +0.000 C 
ATOM     22  C   UNL     1       3.029   5.978  17.964  0.00  0.00    +0.000 C 
BRANCH  22  23
ATOM     23  C   UNL     1       2.421   4.613  18.268  0.00  0.00    +0.000 A 
ATOM     24  C   UNL     1       2.759   3.501  17.483  0.00  0.00    +0.000 A 
ATOM     25  C   UNL     1       2.290   2.229  17.817  0.00  0.00    +0.000 A 
ATOM     26  C   UNL     1       1.467   2.053  18.930  0.00  0.00    +0.000 A 
ATOM     27  C   UNL     1       1.094   3.153  19.698  0.00  0.00    +0.000 A 
ATOM     28  C   UNL     1       1.563   4.424  19.368  0.00  0.00    +0.000 A 
ENDBRANCH  22  23
ENDBRANCH   1  22
TORSDOF 3
ENDMDL
MODEL 6
REMARK VINA RESULT:      -7.6      2.779      8.273
REMARK  Name = 
REMARK  4 active torsions:
REMARK  status: ('A' for Active; 'I' for Inactive)
REMARK    1  A    between atoms: C_1  and  C_2
REMARK    2  A    between atoms: C_2  and  N_3
REMARK    3  A    between atoms: C_2  and  C_20
REMARK    4  A    between atoms: C_6  and  C_7
REMARK                            x       y       z     vdW  Elec       q    Type
REMARK                         _______ _______ _______ _____ _____    ______ ____
ROOT
ATOM      1  N   UNL     1       2.402   7.065  19.597  0.00  0.00    +0.000 N 
ATOM      2  C   UNL     1       1.833   8.309  19.433  0.00  0.00    +0.000 A 
ATOM      3  C   UNL     1       1.237   8.913  20.534  0.00  0.00    +0.000 A 
ATOM      4  C   UNL     1       0.682  10.159  20.354  0.00  0.00    +0.000 A 
ATOM      5  N   UNL     1       0.681  10.772  19.151  0.00  0.00    +0.000 NA
ATOM      6  C   UNL     1       1.258  10.102  18.147  0.00  0.00    +0.000 A 
ATOM      7  N   UNL     1       1.836   8.901  18.220  0.00  0.00    +0.000 NA
ATOM      8  H   UNL     1       2.656   6.783  20.532  0.00  0.00    +0.000 HD
ENDROOT
BRANCH   4   9
ATOM      9  C   UNL     1      -0.001  10.906  21.412  0.00  0.00    +0.000 A 
ATOM     10  C   UNL     1      -0.343  10.442  22.723  0.00  0.00    +0.000 A 
ATOM     11  N   UNL     1      -0.837   9.186  22.902  0.00  0.00    +0.000 N 
ATOM     12  N   UNL     1      -0.792  11.462  23.449  0.00  0.00    +0.000 NA
ATOM     13  N   UNL     1      -1.548  12.050  22.511  0.00  0.00    +0.000 N 
ATOM     14  C   UNL     1      -2.872  12.437  22.694  0.00  0.00    +0.000 A 
ATOM     15  C   UNL     1      -3.644  12.617  21.620  0.00  0.00    +0.000 A 
ATOM     16  C   UNL     1      -2.925  12.632  20.303  0.00  0.00    +0.000 A 
ATOM     17  N   UNL     1      -1.675  12.314  20.113  0.00  0.00    +0.000 NA
ATOM     18  C   UNL     1      -1.008  11.858  21.227  0.00  0.00    +0.000 A 
ATOM     19  H   UNL     1      -0.154   8.467  22.672  0.00  0.00    +0.000 HD
ATOM     20  H   UNL     1      -1.582   9.001  22.224  0.00  0.00    +0.000 HD
ENDBRANCH   4   9
BRANCH   1  22
ATOM     21  C   UNL     1       4.255   6.042  18.318  0.00  0.00    +0.000 C 
ATOM     22  C   UNL     1       2.737   6.152  18.514  0.00  0.00    +0.000 C 
BRANCH  22  23
ATOM     23  C   UNL     1       2.200   4.771  18.876  0.00  0.00    +0.000 A 
ATOM     24  C   UNL     1       1.678   4.531  20.156  0.00  0.00    +0.000 A 
ATOM     25  C   UNL     1       1.090   3.302  20.462  0.00  0.00    +0.000 A 
ATOM     26  C   UNL     1       1.026   2.294  19.500  0.00  0.00    +0.000 A 
ATOM     27  C   UNL     1       1.572   2.505  18.236  0.00  0.00    +0.000 A 
ATOM     28  C   UNL     1       2.158   3.732  17.927  0.00  0.00    +0.000 A 
ENDBRANCH  22  23
ENDBRANCH   1  22
TORSDOF 3
ENDMDL
MODEL 7
REMARK VINA RESULT:      -7.6      1.444      2.501
REMARK  Name = 
REMARK  4 active torsions:
REMARK  status: ('A' for Active; 'I' for Inactive)
REMARK    1  A    between atoms: C_1  and  C_2
REMARK    2  A    between atoms: C_2  and  N_3
REMARK    3  A    between atoms: C_2  and  C_20
REMARK    4  A    between atoms: C_6  and  C_7
REMARK                            x       y       z     vdW  Elec       q    Type
REMARK                         _______ _______ _______ _____ _____    ______ ____
ROOT
ATOM      1  N   UNL     1       0.255  10.356  18.332  0.00  0.00    +0.000 N 
ATOM      2  C   UNL     1       0.815   9.442  19.197  0.00  0.00    +0.000 A 
ATOM      3  C   UNL     1       1.649   8.460  18.672  0.00  0.00    +0.000 A 
ATOM      4  C   UNL     1       2.207   7.561  19.552  0.00  0.00    +0.000 A 
ATOM      5  N   UNL     1       1.938   7.599  20.874  0.00  0.00    +0.000 NA
ATOM      6  C   UNL     1       1.107   8.564  21.282  0.00  0.00    +0.000 A 
ATOM      7  N   UNL     1       0.528   9.491  20.514  0.00  0.00    +0.000 NA
ATOM      8  H   UNL     1       0.702  10.492  17.438  0.00  0.00    +0.000 HD
ENDROOT
BRANCH   4   9
ATOM      9  C   UNL     1       3.083   6.461  19.144  0.00  0.00    +0.000 A 
ATOM     10  C   UNL     1       4.151   6.507  18.190  0.00  0.00    +0.000 A 
ATOM     11  N   UNL     1       4.006   7.198  17.026  0.00  0.00    +0.000 N 
ATOM     12  N   UNL     1       4.821   5.359  18.224  0.00  0.00    +0.000 NA
ATOM     13  N   UNL     1       3.775   4.525  18.318  0.00  0.00    +0.000 N 
ATOM     14  C   UNL     1       3.581   3.411  17.508  0.00  0.00    +0.000 A 
ATOM     15  C   UNL     1       2.350   2.905  17.393  0.00  0.00    +0.000 A 
ATOM     16  C   UNL     1       1.339   3.444  18.362  0.00  0.00    +0.000 A 
ATOM     17  N   UNL     1       1.512   4.460  19.160  0.00  0.00    +0.000 NA
ATOM     18  C   UNL     1       2.712   5.119  19.021  0.00  0.00    +0.000 A 
ATOM     19  H   UNL     1       3.912   8.199  17.182  0.00  0.00    +0.000 HD
ATOM     20  H   UNL     1       3.111   6.963  16.587  0.00  0.00    +0.000 HD
ENDBRANCH   4   9
BRANCH   1  22
ATOM     21  C   UNL     1      -0.543  12.690  18.518  0.00  0.00    +0.000 C 
ATOM     22  C   UNL     1      -0.891  11.199  18.637  0.00  0.00    +0.000 C 
BRANCH  22  23
ATOM     23  C   UNL     1      -1.993  10.883  17.632  0.00  0.00    +0.000 A 
ATOM     24  C   UNL     1      -3.186  11.621  17.639  0.00  0.00    +0.000 A 
ATOM     25  C   UNL     1      -4.157  11.409  16.658  0.00  0.00    +0.000 A 
ATOM     26  C   UNL     1      -3.954  10.450  15.665  0.00  0.00    +0.000 A 
ATOM     27  C   UNL     1      -2.790   9.685  15.665  0.00  0.00    +0.000 A 
ATOM     28  C   UNL     1      -1.819   9.897  16.644  0.00  0.00    +0.000 A 
ENDBRANCH  22  23
ENDBRANCH   1  22
TORSDOF 3
ENDMDL
MODEL 8
REMARK VINA RESULT:      -7.6      1.623      2.628
REMARK  Name = 
REMARK  4 active torsions:
REMARK  status: ('A' for Active; 'I' for Inactive)
REMARK    1  A    between atoms: C_1  and  C_2
REMARK    2  A    between atoms: C_2  and  N_3
REMARK    3  A    between atoms: C_2  and  C_20
REMARK    4  A    between atoms: C_6  and  C_7
REMARK                            x       y       z     vdW  Elec       q    Type
REMARK                         _______ _______ _______ _____ _____    ______ ____
ROOT
ATOM      1  N   UNL     1       1.426   8.483  20.356  0.00  0.00    +0.000 N 
ATOM      2  C   UNL     1       1.777   7.167  20.146  0.00  0.00    +0.000 A 
ATOM      3  C   UNL     1       2.562   6.861  19.041  0.00  0.00    +0.000 A 
ATOM      4  C   UNL     1       2.911   5.544  18.851  0.00  0.00    +0.000 A 
ATOM      5  N   UNL     1       2.486   4.568  19.683  0.00  0.00    +0.000 NA
ATOM      6  C   UNL     1       1.716   4.956  20.704  0.00  0.00    +0.000 A 
ATOM      7  N   UNL     1       1.336   6.206  20.984  0.00  0.00    +0.000 NA
ATOM      8  H   UNL     1       1.992   9.196  19.922  0.00  0.00    +0.000 HD
ENDROOT
BRANCH   4   9
ATOM      9  C   UNL     1       3.711   5.069  17.721  0.00  0.00    +0.000 A 
ATOM     10  C   UNL     1       4.092   3.719  17.430  0.00  0.00    +0.000 A 
ATOM     11  N   UNL     1       4.493   2.885  18.429  0.00  0.00    +0.000 N 
ATOM     12  N   UNL     1       4.662   3.671  16.230  0.00  0.00    +0.000 NA
ATOM     13  N   UNL     1       5.407   4.781  16.324  0.00  0.00    +0.000 N 
ATOM     14  C   UNL     1       6.766   4.846  16.033  0.00  0.00    +0.000 A 
ATOM     15  C   UNL     1       7.486   5.849  16.542  0.00  0.00    +0.000 A 
ATOM     16  C   UNL     1       6.694   6.956  17.174  0.00  0.00    +0.000 A 
ATOM     17  N   UNL     1       5.414   6.935  17.419  0.00  0.00    +0.000 NA
ATOM     18  C   UNL     1       4.779   5.749  17.128  0.00  0.00    +0.000 A 
ATOM     19  H   UNL     1       3.743   2.682  19.086  0.00  0.00    +0.000 HD
ATOM     20  H   UNL     1       5.180   3.356  19.025  0.00  0.00    +0.000 HD
ENDBRANCH   4   9
BRANCH   1  22
ATOM     21  C   UNL     1       0.867   9.355  22.602  0.00  0.00    +0.000 C 
ATOM     22  C   UNL     1       0.346   8.930  21.223  0.00  0.00    +0.000 C 
BRANCH  22  23
ATOM     23  C   UNL     1      -0.318  10.137  20.568  0.00  0.00    +0.000 A 
ATOM     24  C   UNL     1      -0.528  10.159  19.182  0.00  0.00    +0.000 A 
ATOM     25  C   UNL     1      -1.227  11.212  18.588  0.00  0.00    +0.000 A 
ATOM     26  C   UNL     1      -1.714  12.261  19.368  0.00  0.00    +0.000 A 
ATOM     27  C   UNL     1      -1.482  12.270  20.742  0.00  0.00    +0.000 A 
ATOM     28  C   UNL     1      -0.786  11.219  21.337  0.00  0.00    +0.000 A 
ENDBRANCH  22  23
ENDBRANCH   1  22
TORSDOF 3
ENDMDL
MODEL 9
REMARK VINA RESULT:      -7.6      1.456      8.170
REMARK  Name = 
REMARK  4 active torsions:
REMARK  status: ('A' for Active; 'I' for Inactive)
REMARK    1  A    between atoms: C_1  and  C_2
REMARK    2  A    between atoms: C_2  and  N_3
REMARK    3  A    between atoms: C_2  and  C_20
REMARK    4  A    between atoms: C_6  and  C_7
REMARK                            x       y       z     vdW  Elec       q    Type
REMARK                         _______ _______ _______ _____ _____    ______ ____
ROOT
ATOM      1  N   UNL     1       3.049   5.730  17.754  0.00  0.00    +0.000 N 
ATOM      2  C   UNL     1       2.468   6.532  18.711  0.00  0.00    +0.000 A 
ATOM      3  C   UNL     1       2.104   7.826  18.357  0.00  0.00    +0.000 A 
ATOM      4  C   UNL     1       1.517   8.610  19.324  0.00  0.00    +0.000 A 
ATOM      5  N   UNL     1       1.325   8.164  20.583  0.00  0.00    +0.000 NA
ATOM      6  C   UNL     1       1.730   6.914  20.835  0.00  0.00    +0.000 A 
ATOM      7  N   UNL     1       2.293   6.070  19.967  0.00  0.00    +0.000 NA
ATOM      8  H   UNL     1       2.898   5.969  16.785  0.00  0.00    +0.000 HD
ENDROOT
BRANCH   4   9
ATOM      9  C   UNL     1       1.103   9.997  19.105  0.00  0.00    +0.000 A 
ATOM     10  C   UNL     1       1.126  11.073  20.051  0.00  0.00    +0.000 A 
ATOM     11  N   UNL     1       0.740  10.864  21.340  0.00  0.00    +0.000 N 
ATOM     12  N   UNL     1       0.842  12.213  19.429  0.00  0.00    +0.000 NA
ATOM     13  N   UNL     1      -0.150  11.766  18.646  0.00  0.00    +0.000 N 
ATOM     14  C   UNL     1      -1.396  12.375  18.528  0.00  0.00    +0.000 A 
ATOM     15  C   UNL     1      -2.424  11.654  18.074  0.00  0.00    +0.000 A 
ATOM     16  C   UNL     1      -2.068  10.317  17.492  0.00  0.00    +0.000 A 
ATOM     17  N   UNL     1      -0.898   9.745  17.554  0.00  0.00    +0.000 NA
ATOM     18  C   UNL     1       0.049  10.420  18.290  0.00  0.00    +0.000 A 
ATOM     19  H   UNL     1       1.366  10.230  21.831  0.00  0.00    +0.000 HD
ATOM     20  H   UNL     1      -0.147  10.353  21.363  0.00  0.00    +0.000 HD
ENDBRANCH   4   9
BRANCH   1  22
ATOM     21  C   UNL     1       2.974   3.258  17.735  0.00  0.00    +0.000 C 
ATOM     22  C   UNL     1       3.803   4.516  18.028  0.00  0.00    +0.000 C 
BRANCH  22  23
ATOM     23  C   UNL     1       5.029   4.504  17.121  0.00  0.00    +0.000 A 
ATOM     24  C   UNL     1       4.874   4.430  15.729  0.00  0.00    +0.000 A 
ATOM     25  C   UNL     1       5.985   4.524  14.887  0.00  0.00    +0.000 A 
ATOM     26  C   UNL     1       7.262   4.680  15.423  0.00  0.00    +0.000 A 
ATOM     27  C   UNL     1       7.436   4.720  16.805  0.00  0.00    +0.000 A 
ATOM     28  C   UNL     1       6.328   4.628  17.648  0.00  0.00    +0.000 A 
ENDBRANCH  22  23
ENDBRANCH   1  22
TORSDOF 3
ENDMDL
