MODEL 1
REMARK VINA RESULT:      -7.4      0.000      0.000
REMARK  Name = 
REMARK  8 active torsions:
REMARK  status: ('A' for Active; 'I' for Inactive)
REMARK    1  A    between atoms: C_1  and  C_2
REMARK    2  A    between atoms: C_2  and  O_3
REMARK    3  A    between atoms: O_3  and  C_4
REMARK    4  A    between atoms: C_9  and  N_10
REMARK    5  A    between atoms: C_11  and  C_13
REMARK    6  A    between atoms: C_13  and  C_14
REMARK    7  A    between atoms: N_20  and  C_21
REMARK    8  A    between atoms: C_21  and  C_22
REMARK                            x       y       z     vdW  Elec       q    Type
REMARK                         _______ _______ _______ _____ _____    ______ ____
ROOT
ATOM      1  C   UNL     1       1.873   7.946  20.628  0.00  0.00    +0.000 C 
ENDROOT
BRANCH   1   2
ATOM      2  C   UNL     1       0.910   8.632  19.639  0.00  0.00    +0.000 C 
ATOM      3  C   UNL     1       1.704   9.191  18.423  0.00  0.00    +0.000 C 
ATOM      4  O   UNL     1       2.601   8.559  17.865  0.00  0.00    +0.000 OA
ATOM      5  N   UNL     1       1.323  10.370  17.856  0.00  0.00    +0.000 N 
ATOM      6  C   UNL     1       0.339  11.250  18.430  0.00  0.00    +0.000 C 
ATOM      7  C   UNL     1      -0.674  10.469  19.268  0.00  0.00    +0.000 C 
ATOM      8  N   UNL     1      -0.029   9.627  20.299  0.00  0.00    +0.000 NA
ATOM      9  H   UNL     1       1.907  10.678  17.087  0.00  0.00    +0.000 HD
BRANCH   8  10
ATOM     10  C   UNL     1       0.616  10.425  21.359  0.00  0.00    +0.000 C 
BRANCH  10  11
ATOM     11  C   UNL     1      -0.274  11.419  22.086  0.00  0.00    +0.000 A 
ATOM     12  C   UNL     1      -0.145  12.802  21.876  0.00  0.00    +0.000 A 
ATOM     13  C   UNL     1      -1.065  13.693  22.431  0.00  0.00    +0.000 A 
ATOM     14  C   UNL     1      -2.126  13.217  23.207  0.00  0.00    +0.000 A 
ATOM     15  C   UNL     1      -2.248  11.849  23.445  0.00  0.00    +0.000 A 
ATOM     16  C   UNL     1      -1.326  10.957  22.894  0.00  0.00    +0.000 A 
ENDBRANCH  10  11
ENDBRANCH   8  10
ENDBRANCH   1   2
BRANCH   1  18
ATOM     17  N   UNL     1       3.275   6.158  19.750  0.00  0.00    +0.000 N 
ATOM     18  C   UNL     1       2.107   6.465  20.407  0.00  0.00    +0.000 C 
ATOM     19  O   UNL     1       1.266   5.626  20.714  0.00  0.00    +0.000 OA
ATOM     20  H   UNL     1       3.880   6.915  19.462  0.00  0.00    +0.000 HD
BRANCH  17  26
ATOM     21  C   UNL     1       6.390   4.496  16.252  0.00  0.00    +0.000 C 
ATOM     22  O   UNL     1       7.598   4.521  16.454  0.00  0.00    +0.000 OA
ATOM     23  N   UNL     1       5.450   4.826  17.205  0.00  0.00    +0.000 N 
ATOM     24  C   UNL     1       5.910   5.354  18.475  0.00  0.00    +0.000 C 
ATOM     25  C   UNL     1       5.208   4.640  19.619  0.00  0.00    +0.000 C 
ATOM     26  C   UNL     1       3.686   4.778  19.486  0.00  0.00    +0.000 C 
ATOM     27  C   UNL     1       3.236   4.257  18.107  0.00  0.00    +0.000 C 
ATOM     28  C   UNL     1       4.010   4.898  16.960  0.00  0.00    +0.000 C 
BRANCH  21  29
ATOM     29  O   UNL     1       5.834   4.201  15.048  0.00  0.00    +0.000 OA
BRANCH  29  31
ATOM     30  C   UNL     1       6.206   3.592  12.770  0.00  0.00    +0.000 C 
ATOM     31  C   UNL     1       6.692   4.448  13.927  0.00  0.00    +0.000 C 
ENDBRANCH  29  31
ENDBRANCH  21  29
ENDBRANCH  17  26
ENDBRANCH   1  18
TORSDOF 7
ENDMDL
MODEL 2
REMARK VINA RESULT:      -7.4      2.755      9.013
REMARK  Name = 
REMARK  8 active torsions:
REMARK  status: ('A' for Active; 'I' for Inactive)
REMARK    1  A    between atoms: C_1  and  C_2
REMARK    2  A    between atoms: C_2  and  O_3
REMARK    3  A    between atoms: O_3  and  C_4
REMARK    4  A    between atoms: C_9  and  N_10
REMARK    5  A    between atoms: C_11  and  C_13
REMARK    6  A    between atoms: C_13  and  C_14
REMARK    7  A    between atoms: N_20  and  C_21
REMARK    8  A    between atoms: C_21  and  C_22
REMARK                            x       y       z     vdW  Elec       q    Type
REMARK                         _______ _______ _______ _____ _____    ______ ____
ROOT
ATOM      1  C   UNL     1       2.232   6.105  19.727  0.00  0.00    +0.000 C 
ENDROOT
BRANCH   1   2
ATOM      2  C   UNL     1       2.113   4.910  18.761  0.00  0.00    +0.000 C 
ATOM      3  C   UNL     1       1.357   3.739  19.453  0.00  0.00    +0.000 C 
ATOM      4  O   UNL     1       0.350   3.909  20.138  0.00  0.00    +0.000 OA
ATOM      5  N   UNL     1       1.733   2.453  19.199  0.00  0.00    +0.000 N 
ATOM      6  C   UNL     1       2.924   2.099  18.474  0.00  0.00    +0.000 C 
ATOM      7  C   UNL     1       3.306   3.192  17.476  0.00  0.00    +0.000 C 
ATOM      8  N   UNL     1       3.431   4.523  18.111  0.00  0.00    +0.000 NA
ATOM      9  H   UNL     1       1.209   1.751  19.709  0.00  0.00    +0.000 HD
BRANCH   8  10
ATOM     10  C   UNL     1       4.582   4.605  19.030  0.00  0.00    +0.000 C 
BRANCH  10  11
ATOM     11  C   UNL     1       5.764   5.432  18.554  0.00  0.00    +0.000 A 
ATOM     12  C   UNL     1       5.673   6.241  17.409  0.00  0.00    +0.000 A 
ATOM     13  C   UNL     1       6.711   7.110  17.070  0.00  0.00    +0.000 A 
ATOM     14  C   UNL     1       7.857   7.183  17.867  0.00  0.00    +0.000 A 
ATOM     15  C   UNL     1       7.971   6.365  18.990  0.00  0.00    +0.000 A 
ATOM     16  C   UNL     1       6.935   5.492  19.328  0.00  0.00    +0.000 A 
ENDBRANCH  10  11
ENDBRANCH   8  10
ENDBRANCH   1   2
BRANCH   1  18
ATOM     17  N   UNL     1       1.550   8.442  19.640  0.00  0.00    +0.000 N 
ATOM     18  C   UNL     1       2.346   7.471  19.080  0.00  0.00    +0.000 C 
ATOM     19  O   UNL     1       3.030   7.656  18.079  0.00  0.00    +0.000 OA
ATOM     20  H   UNL     1       0.955   8.189  20.418  0.00  0.00    +0.000 HD
BRANCH  17  26
ATOM     21  C   UNL     1      -2.298  11.557  19.188  0.00  0.00    +0.000 C 
ATOM     22  O   UNL     1      -2.689  12.183  20.165  0.00  0.00    +0.000 OA
ATOM     23  N   UNL     1      -1.169  10.762  19.192  0.00  0.00    +0.000 N 
ATOM     24  C   UNL     1      -0.479  10.551  20.449  0.00  0.00    +0.000 C 
ATOM     25  C   UNL     1       1.015  10.762  20.262  0.00  0.00    +0.000 C 
ATOM     26  C   UNL     1       1.559   9.829  19.172  0.00  0.00    +0.000 C 
ATOM     27  C   UNL     1       0.769  10.042  17.866  0.00  0.00    +0.000 C 
ATOM     28  C   UNL     1      -0.738   9.930  18.070  0.00  0.00    +0.000 C 
BRANCH  21  29
ATOM     29  O   UNL     1      -2.960  11.521  18.003  0.00  0.00    +0.000 OA
BRANCH  29  31
ATOM     30  C   UNL     1      -5.090  11.829  16.973  0.00  0.00    +0.000 C 
ATOM     31  C   UNL     1      -4.343  11.159  18.112  0.00  0.00    +0.000 C 
ENDBRANCH  29  31
ENDBRANCH  21  29
ENDBRANCH  17  26
ENDBRANCH   1  18
TORSDOF 7
ENDMDL
MODEL 3
REMARK VINA RESULT:      -7.4      2.853      8.644
REMARK  Name = 
REMARK  8 active torsions:
REMARK  status: ('A' for Active; 'I' for Inactive)
REMARK    1  A    between atoms: C_1  and  C_2
REMARK    2  A    between atoms: C_2  and  O_3
REMARK    3  A    between atoms: O_3  and  C_4
REMARK    4  A    between atoms: C_9  and  N_10
REMARK    5  A    between atoms: C_11  and  C_13
REMARK    6  A    between atoms: C_13  and  C_14
REMARK    7  A    between atoms: N_20  and  C_21
REMARK    8  A    between atoms: C_21  and  C_22
REMARK                            x       y       z     vdW  Elec       q    Type
REMARK                         _______ _______ _______ _____ _____    ______ ____
ROOT
ATOM      1  C   UNL     1       2.258   5.945  19.855  0.00  0.00    +0.000 C 
ENDROOT
BRANCH   1   2
ATOM      2  C   UNL     1       2.112   4.820  18.812  0.00  0.00    +0.000 C 
ATOM      3  C   UNL     1       1.346   3.615  19.432  0.00  0.00    +0.000 C 
ATOM      4  O   UNL     1       0.347   3.753  20.137  0.00  0.00    +0.000 OA
ATOM      5  N   UNL     1       1.700   2.344  19.089  0.00  0.00    +0.000 N 
ATOM      6  C   UNL     1       2.879   2.023  18.330  0.00  0.00    +0.000 C 
ATOM      7  C   UNL     1       3.268   3.175  17.403  0.00  0.00    +0.000 C 
ATOM      8  N   UNL     1       3.418   4.458  18.124  0.00  0.00    +0.000 NA
ATOM      9  H   UNL     1       1.170   1.617  19.556  0.00  0.00    +0.000 HD
BRANCH   8  10
ATOM     10  C   UNL     1       4.579   4.462  19.035  0.00  0.00    +0.000 C 
BRANCH  10  11
ATOM     11  C   UNL     1       5.697   5.431  18.693  0.00  0.00    +0.000 A 
ATOM     12  C   UNL     1       6.892   5.455  19.430  0.00  0.00    +0.000 A 
ATOM     13  C   UNL     1       7.968   6.241  19.013  0.00  0.00    +0.000 A 
ATOM     14  C   UNL     1       7.866   7.017  17.856  0.00  0.00    +0.000 A 
ATOM     15  C   UNL     1       6.675   7.023  17.131  0.00  0.00    +0.000 A 
ATOM     16  C   UNL     1       5.597   6.241  17.549  0.00  0.00    +0.000 A 
ENDBRANCH  10  11
ENDBRANCH   8  10
ENDBRANCH   1   2
BRANCH   1  18
ATOM     17  N   UNL     1       1.660   8.303  19.989  0.00  0.00    +0.000 N 
ATOM     18  C   UNL     1       2.375   7.351  19.300  0.00  0.00    +0.000 C 
ATOM     19  O   UNL     1       2.989   7.587  18.264  0.00  0.00    +0.000 OA
ATOM     20  H   UNL     1       1.116   8.013  20.790  0.00  0.00    +0.000 HD
BRANCH  17  26
ATOM     21  C   UNL     1      -2.071  11.104  18.274  0.00  0.00    +0.000 C 
ATOM     22  O   UNL     1      -2.860  11.611  19.062  0.00  0.00    +0.000 OA
ATOM     23  N   UNL     1      -0.943  10.412  18.663  0.00  0.00    +0.000 N 
ATOM     24  C   UNL     1      -0.742  10.156  20.076  0.00  0.00    +0.000 C 
ATOM     25  C   UNL     1       0.683  10.509  20.470  0.00  0.00    +0.000 C 
ATOM     26  C   UNL     1       1.687   9.720  19.621  0.00  0.00    +0.000 C 
ATOM     27  C   UNL     1       1.414   9.972  18.126  0.00  0.00    +0.000 C 
ATOM     28  C   UNL     1      -0.040   9.716  17.747  0.00  0.00    +0.000 C 
BRANCH  21  29
ATOM     29  O   UNL     1      -2.244  11.110  16.927  0.00  0.00    +0.000 OA
BRANCH  29  31
ATOM     30  C   UNL     1      -3.093  10.072  14.953  0.00  0.00    +0.000 C 
ATOM     31  C   UNL     1      -3.247  10.200  16.458  0.00  0.00    +0.000 C 
ENDBRANCH  29  31
ENDBRANCH  21  29
ENDBRANCH  17  26
ENDBRANCH   1  18
TORSDOF 7
ENDMDL
MODEL 4
REMARK VINA RESULT:      -7.3      2.311      9.555
REMARK  Name = 
REMARK  8 active torsions:
REMARK  status: ('A' for Active; 'I' for Inactive)
REMARK    1  A    between atoms: C_1  and  C_2
REMARK    2  A    between atoms: C_2  and  O_3
REMARK    3  A    between atoms: O_3  and  C_4
REMARK    4  A    between atoms: C_9  and  N_10
REMARK    5  A    between atoms: C_11  and  C_13
REMARK    6  A    between atoms: C_13  and  C_14
REMARK    7  A    between atoms: N_20  and  C_21
REMARK    8  A    between atoms: C_21  and  C_22
REMARK                            x       y       z     vdW  Elec       q    Type
REMARK                         _______ _______ _______ _____ _____    ______ ____
ROOT
ATOM      1  C   UNL     1       3.146   6.911  18.862  0.00  0.00    +0.000 C 
ENDROOT
BRANCH   1   2
ATOM      2  C   UNL     1       2.243   5.668  18.980  0.00  0.00    +0.000 C 
ATOM      3  C   UNL     1       1.704   5.537  20.434  0.00  0.00    +0.000 C 
ATOM      4  O   UNL     1       1.291   6.498  21.081  0.00  0.00    +0.000 OA
ATOM      5  N   UNL     1       1.557   4.299  20.988  0.00  0.00    +0.000 N 
ATOM      6  C   UNL     1       2.053   3.091  20.384  0.00  0.00    +0.000 C 
ATOM      7  C   UNL     1       2.106   3.220  18.861  0.00  0.00    +0.000 C 
ATOM      8  N   UNL     1       2.872   4.405  18.417  0.00  0.00    +0.000 NA
ATOM      9  H   UNL     1       1.226   4.302  21.946  0.00  0.00    +0.000 HD
BRANCH   8  10
ATOM     10  C   UNL     1       4.313   4.289  18.713  0.00  0.00    +0.000 C 
BRANCH  10  11
ATOM     11  C   UNL     1       5.247   4.300  17.515  0.00  0.00    +0.000 A 
ATOM     12  C   UNL     1       4.761   4.118  16.210  0.00  0.00    +0.000 A 
ATOM     13  C   UNL     1       5.604   4.283  15.109  0.00  0.00    +0.000 A 
ATOM     14  C   UNL     1       6.946   4.627  15.295  0.00  0.00    +0.000 A 
ATOM     15  C   UNL     1       7.447   4.784  16.587  0.00  0.00    +0.000 A 
ATOM     16  C   UNL     1       6.606   4.616  17.689  0.00  0.00    +0.000 A 
ENDBRANCH  10  11
ENDBRANCH   8  10
ENDBRANCH   1   2
BRANCH   1  18
ATOM     17  N   UNL     1       1.597   8.790  18.860  0.00  0.00    +0.000 N 
ATOM     18  C   UNL     1       2.545   8.101  18.141  0.00  0.00    +0.000 C 
ATOM     19  O   UNL     1       2.826   8.359  16.975  0.00  0.00    +0.000 OA
ATOM     20  H   UNL     1       1.366   8.467  19.789  0.00  0.00    +0.000 HD
BRANCH  17  26
ATOM     21  C   UNL     1      -0.237  12.641  21.413  0.00  0.00    +0.000 C 
ATOM     22  O   UNL     1       0.511  13.544  21.768  0.00  0.00    +0.000 OA
ATOM     23  N   UNL     1       0.160  11.596  20.604  0.00  0.00    +0.000 N 
ATOM     24  C   UNL     1       1.563  11.485  20.258  0.00  0.00    +0.000 C 
ATOM     25  C   UNL     1       1.711  11.247  18.763  0.00  0.00    +0.000 C 
ATOM     26  C   UNL     1       0.939   9.991  18.340  0.00  0.00    +0.000 C 
ATOM     27  C   UNL     1      -0.535  10.118  18.769  0.00  0.00    +0.000 C 
ATOM     28  C   UNL     1      -0.685  10.457  20.248  0.00  0.00    +0.000 C 
BRANCH  21  29
ATOM     29  O   UNL     1      -1.527  12.527  21.823  0.00  0.00    +0.000 OA
BRANCH  29  31
ATOM     30  C   UNL     1      -3.159  12.232  23.539  0.00  0.00    +0.000 C 
ATOM     31  C   UNL     1      -1.691  12.488  23.246  0.00  0.00    +0.000 C 
ENDBRANCH  29  31
ENDBRANCH  21  29
ENDBRANCH  17  26
ENDBRANCH   1  18
TORSDOF 7
ENDMDL
MODEL 5
REMARK VINA RESULT:      -7.2      2.543      9.267
REMARK  Name = 
REMARK  8 active torsions:
REMARK  status: ('A' for Active; 'I' for Inactive)
REMARK    1  A    between atoms: C_1  and  C_2
REMARK    2  A    between atoms: C_2  and  O_3
REMARK    3  A    between atoms: O_3  and  C_4
REMARK    4  A    between atoms: C_9  and  N_10
REMARK    5  A    between atoms: C_11  and  C_13
REMARK    6  A    between atoms: C_13  and  C_14
REMARK    7  A    between atoms: N_20  and  C_21
REMARK    8  A    between atoms: C_21  and  C_22
REMARK                            x       y       z     vdW  Elec       q    Type
REMARK                         _______ _______ _______ _____ _____    ______ ____
ROOT
ATOM      1  C   UNL     1       2.630   6.490  19.477  0.00  0.00    +0.000 C 
ENDROOT
BRANCH   1   2
ATOM      2  C   UNL     1       2.358   5.110  18.846  0.00  0.00    +0.000 C 
ATOM      3  C   UNL     1       1.516   4.237  19.820  0.00  0.00    +0.000 C 
ATOM      4  O   UNL     1       0.555   4.678  20.450  0.00  0.00    +0.000 OA
ATOM      5  N   UNL     1       1.752   2.896  19.898  0.00  0.00    +0.000 N 
ATOM      6  C   UNL     1       2.875   2.248  19.274  0.00  0.00    +0.000 C 
ATOM      7  C   UNL     1       3.327   3.010  18.027  0.00  0.00    +0.000 C 
ATOM      8  N   UNL     1       3.606   4.436  18.303  0.00  0.00    +0.000 NA
ATOM      9  H   UNL     1       1.180   2.404  20.574  0.00  0.00    +0.000 HD
BRANCH   8  10
ATOM     10  C   UNL     1       4.793   4.624  19.160  0.00  0.00    +0.000 C 
BRANCH  10  11
ATOM     11  C   UNL     1       5.898   5.498  18.592  0.00  0.00    +0.000 A 
ATOM     12  C   UNL     1       5.699   6.263  17.432  0.00  0.00    +0.000 A 
ATOM     13  C   UNL     1       6.668   7.176  17.008  0.00  0.00    +0.000 A 
ATOM     14  C   UNL     1       7.850   7.336  17.736  0.00  0.00    +0.000 A 
ATOM     15  C   UNL     1       8.071   6.562  18.874  0.00  0.00    +0.000 A 
ATOM     16  C   UNL     1       7.105   5.646  19.297  0.00  0.00    +0.000 A 
ENDBRANCH  10  11
ENDBRANCH   8  10
ENDBRANCH   1   2
BRANCH   1  18
ATOM     17  N   UNL     1       1.423   8.551  18.999  0.00  0.00    +0.000 N 
ATOM     18  C   UNL     1       2.405   7.687  18.575  0.00  0.00    +0.000 C 
ATOM     19  O   UNL     1       2.996   7.811  17.507  0.00  0.00    +0.000 OA
ATOM     20  H   UNL     1       0.928   8.337  19.854  0.00  0.00    +0.000 HD
BRANCH  17  26
ATOM     21  C   UNL     1      -1.127  12.492  20.634  0.00  0.00    +0.000 C 
ATOM     22  O   UNL     1      -0.554  13.358  21.284  0.00  0.00    +0.000 OA
ATOM     23  N   UNL     1      -0.479  11.427  20.043  0.00  0.00    +0.000 N 
ATOM     24  C   UNL     1       0.935  11.246  20.308  0.00  0.00    +0.000 C 
ATOM     25  C   UNL     1       1.679  10.999  19.005  0.00  0.00    +0.000 C 
ATOM     26  C   UNL     1       1.096   9.782  18.276  0.00  0.00    +0.000 C 
ATOM     27  C   UNL     1      -0.416   9.982  18.057  0.00  0.00    +0.000 C 
ATOM     28  C   UNL     1      -1.151  10.331  19.347  0.00  0.00    +0.000 C 
BRANCH  21  29
ATOM     29  O   UNL     1      -2.475  12.442  20.470  0.00  0.00    +0.000 OA
BRANCH  29  31
ATOM     30  C   UNL     1      -4.690  12.763  21.296  0.00  0.00    +0.000 C 
ATOM     31  C   UNL     1      -3.223  12.662  21.672  0.00  0.00    +0.000 C 
ENDBRANCH  29  31
ENDBRANCH  21  29
ENDBRANCH  17  26
ENDBRANCH   1  18
TORSDOF 7
ENDMDL
MODEL 6
REMARK VINA RESULT:      -7.1      0.567      1.062
REMARK  Name = 
REMARK  8 active torsions:
REMARK  status: ('A' for Active; 'I' for Inactive)
REMARK    1  A    between atoms: C_1  and  C_2
REMARK    2  A    between atoms: C_2  and  O_3
REMARK    3  A    between atoms: O_3  and  C_4
REMARK    4  A    between atoms: C_9  and  N_10
REMARK    5  A    between atoms: C_11  and  C_13
REMARK    6  A    between atoms: C_13  and  C_14
REMARK    7  A    between atoms: N_20  and  C_21
REMARK    8  A    between atoms: C_21  and  C_22
REMARK                            x       y       z     vdW  Elec       q    Type
REMARK                         _______ _______ _______ _____ _____    ______ ____
ROOT
ATOM      1  C   UNL     1       2.004   7.602  20.493  0.00  0.00    +0.000 C 
ENDROOT
BRANCH   1   2
ATOM      2  C   UNL     1       1.191   8.355  19.422  0.00  0.00    +0.000 C 
ATOM      3  C   UNL     1       2.141   8.889  18.311  0.00  0.00    +0.000 C 
ATOM      4  O   UNL     1       3.058   8.218  17.838  0.00  0.00    +0.000 OA
ATOM      5  N   UNL     1       1.887  10.097  17.731  0.00  0.00    +0.000 N 
ATOM      6  C   UNL     1       0.895  11.020  18.216  0.00  0.00    +0.000 C 
ATOM      7  C   UNL     1      -0.243  10.283  18.923  0.00  0.00    +0.000 C 
ATOM      8  N   UNL     1       0.240   9.390  19.999  0.00  0.00    +0.000 NA
ATOM      9  H   UNL     1       2.566  10.384  17.036  0.00  0.00    +0.000 HD
BRANCH   8  10
ATOM     10  C   UNL     1       0.809  10.135  21.139  0.00  0.00    +0.000 C 
BRANCH  10  11
ATOM     11  C   UNL     1      -0.093  11.179  21.775  0.00  0.00    +0.000 A 
ATOM     12  C   UNL     1      -1.108  10.816  22.675  0.00  0.00    +0.000 A 
ATOM     13  C   UNL     1      -1.827  11.793  23.366  0.00  0.00    +0.000 A 
ATOM     14  C   UNL     1      -1.546  13.147  23.167  0.00  0.00    +0.000 A 
ATOM     15  C   UNL     1      -0.559  13.521  22.255  0.00  0.00    +0.000 A 
ATOM     16  C   UNL     1       0.157  12.545  21.559  0.00  0.00    +0.000 A 
ENDBRANCH  10  11
ENDBRANCH   8  10
ENDBRANCH   1   2
BRANCH   1  18
ATOM     17  N   UNL     1       3.660   6.011  19.681  0.00  0.00    +0.000 N 
ATOM     18  C   UNL     1       2.380   6.173  20.156  0.00  0.00    +0.000 C 
ATOM     19  O   UNL     1       1.564   5.258  20.222  0.00  0.00    +0.000 OA
ATOM     20  H   UNL     1       4.246   6.829  19.584  0.00  0.00    +0.000 HD
BRANCH  17  26
ATOM     21  C   UNL     1       6.278   4.717  15.658  0.00  0.00    +0.000 C 
ATOM     22  O   UNL     1       7.486   4.919  15.630  0.00  0.00    +0.000 OA
ATOM     23  N   UNL     1       5.493   4.935  16.772  0.00  0.00    +0.000 N 
ATOM     24  C   UNL     1       6.100   5.557  17.933  0.00  0.00    +0.000 C 
ATOM     25  C   UNL     1       5.733   4.780  19.188  0.00  0.00    +0.000 C 
ATOM     26  C   UNL     1       4.209   4.697  19.343  0.00  0.00    +0.000 C 
ATOM     27  C   UNL     1       3.592   4.081  18.072  0.00  0.00    +0.000 C 
ATOM     28  C   UNL     1       4.038   4.795  16.801  0.00  0.00    +0.000 C 
BRANCH  21  29
ATOM     29  O   UNL     1       5.557   4.315  14.580  0.00  0.00    +0.000 OA
BRANCH  29  31
ATOM     30  C   UNL     1       5.407   3.449  12.361  0.00  0.00    +0.000 C 
ATOM     31  C   UNL     1       6.351   3.848  13.482  0.00  0.00    +0.000 C 
ENDBRANCH  29  31
ENDBRANCH  21  29
ENDBRANCH  17  26
ENDBRANCH   1  18
TORSDOF 7
ENDMDL
MODEL 7
REMARK VINA RESULT:      -7.1      2.375      9.639
REMARK  Name = 
REMARK  8 active torsions:
REMARK  status: ('A' for Active; 'I' for Inactive)
REMARK    1  A    between atoms: C_1  and  C_2
REMARK    2  A    between atoms: C_2  and  O_3
REMARK    3  A    between atoms: O_3  and  C_4
REMARK    4  A    between atoms: C_9  and  N_10
REMARK    5  A    between atoms: C_11  and  C_13
REMARK    6  A    between atoms: C_13  and  C_14
REMARK    7  A    between atoms: N_20  and  C_21
REMARK    8  A    between atoms: C_21  and  C_22
REMARK                            x       y       z     vdW  Elec       q    Type
REMARK                         _______ _______ _______ _____ _____    ______ ____
ROOT
ATOM      1  C   UNL     1       3.089   6.995  18.874  0.00  0.00    +0.000 C 
ENDROOT
BRANCH   1   2
ATOM      2  C   UNL     1       2.231   5.721  18.997  0.00  0.00    +0.000 C 
ATOM      3  C   UNL     1       1.731   5.556  20.462  0.00  0.00    +0.000 C 
ATOM      4  O   UNL     1       1.300   6.496  21.129  0.00  0.00    +0.000 OA
ATOM      5  N   UNL     1       1.637   4.309  21.005  0.00  0.00    +0.000 N 
ATOM      6  C   UNL     1       2.160   3.125  20.375  0.00  0.00    +0.000 C 
ATOM      7  C   UNL     1       2.173   3.272  18.853  0.00  0.00    +0.000 C 
ATOM      8  N   UNL     1       2.889   4.487  18.406  0.00  0.00    +0.000 NA
ATOM      9  H   UNL     1       1.330   4.289  21.970  0.00  0.00    +0.000 HD
BRANCH   8  10
ATOM     10  C   UNL     1       4.340   4.416  18.668  0.00  0.00    +0.000 C 
BRANCH  10  11
ATOM     11  C   UNL     1       5.248   4.558  17.458  0.00  0.00    +0.000 A 
ATOM     12  C   UNL     1       6.634   4.729  17.603  0.00  0.00    +0.000 A 
ATOM     13  C   UNL     1       7.473   4.705  16.487  0.00  0.00    +0.000 A 
ATOM     14  C   UNL     1       6.940   4.514  15.210  0.00  0.00    +0.000 A 
ATOM     15  C   UNL     1       5.562   4.370  15.050  0.00  0.00    +0.000 A 
ATOM     16  C   UNL     1       4.721   4.398  16.164  0.00  0.00    +0.000 A 
ENDBRANCH  10  11
ENDBRANCH   8  10
ENDBRANCH   1   2
BRANCH   1  18
ATOM     17  N   UNL     1       1.556   8.881  19.033  0.00  0.00    +0.000 N 
ATOM     18  C   UNL     1       2.417   8.186  18.218  0.00  0.00    +0.000 C 
ATOM     19  O   UNL     1       2.571   8.438  17.027  0.00  0.00    +0.000 OA
ATOM     20  H   UNL     1       1.425   8.562  19.983  0.00  0.00    +0.000 HD
BRANCH  17  26
ATOM     21  C   UNL     1      -0.705  12.337  21.800  0.00  0.00    +0.000 C 
ATOM     22  O   UNL     1      -0.047  13.247  22.290  0.00  0.00    +0.000 OA
ATOM     23  N   UNL     1      -0.185  11.404  20.927  0.00  0.00    +0.000 N 
ATOM     24  C   UNL     1       1.242  11.417  20.671  0.00  0.00    +0.000 C 
ATOM     25  C   UNL     1       1.502  11.338  19.175  0.00  0.00    +0.000 C 
ATOM     26  C   UNL     1       0.850  10.082  18.582  0.00  0.00    +0.000 C 
ATOM     27  C   UNL     1      -0.655  10.072  18.916  0.00  0.00    +0.000 C 
ATOM     28  C   UNL     1      -0.923  10.254  20.406  0.00  0.00    +0.000 C 
BRANCH  21  29
ATOM     29  O   UNL     1      -2.007  12.100  22.106  0.00  0.00    +0.000 OA
BRANCH  29  31
ATOM     30  C   UNL     1      -4.027  13.146  22.827  0.00  0.00    +0.000 C 
ATOM     31  C   UNL     1      -2.886  13.197  21.826  0.00  0.00    +0.000 C 
ENDBRANCH  29  31
ENDBRANCH  21  29
ENDBRANCH  17  26
ENDBRANCH   1  18
TORSDOF 7
ENDMDL
MODEL 8
REMARK VINA RESULT:      -6.9      2.645     10.011
REMARK  Name = 
REMARK  8 active torsions:
REMARK  status: ('A' for Active; 'I' for Inactive)
REMARK    1  A    between atoms: C_1  and  C_2
REMARK    2  A    between atoms: C_2  and  O_3
REMARK    3  A    between atoms: O_3  and  C_4
REMARK    4  A    between atoms: C_9  and  N_10
REMARK    5  A    between atoms: C_11  and  C_13
REMARK    6  A    between atoms: C_13  and  C_14
REMARK    7  A    between atoms: N_20  and  C_21
REMARK    8  A    between atoms: C_21  and  C_22
REMARK                            x       y       z     vdW  Elec       q    Type
REMARK                         _______ _______ _______ _____ _____    ______ ____
ROOT
ATOM      1  C   UNL     1       2.375   8.791  18.249  0.00  0.00    +0.000 C 
ENDROOT
BRANCH   1   2
ATOM      2  C   UNL     1       2.141   7.291  18.515  0.00  0.00    +0.000 C 
ATOM      3  C   UNL     1       2.073   7.026  20.047  0.00  0.00    +0.000 C 
ATOM      4  O   UNL     1       1.458   7.756  20.823  0.00  0.00    +0.000 OA
ATOM      5  N   UNL     1       2.601   5.876  20.555  0.00  0.00    +0.000 N 
ATOM      6  C   UNL     1       3.402   4.960  19.787  0.00  0.00    +0.000 C 
ATOM      7  C   UNL     1       3.031   5.013  18.305  0.00  0.00    +0.000 C 
ATOM      8  N   UNL     1       3.092   6.385  17.753  0.00  0.00    +0.000 NA
ATOM      9  H   UNL     1       2.540   5.791  21.563  0.00  0.00    +0.000 HD
BRANCH   8  10
ATOM     10  C   UNL     1       4.471   6.906  17.689  0.00  0.00    +0.000 C 
BRANCH  10  11
ATOM     11  C   UNL     1       5.455   6.102  16.856  0.00  0.00    +0.000 A 
ATOM     12  C   UNL     1       6.554   5.458  17.448  0.00  0.00    +0.000 A 
ATOM     13  C   UNL     1       7.361   4.599  16.699  0.00  0.00    +0.000 A 
ATOM     14  C   UNL     1       7.085   4.375  15.347  0.00  0.00    +0.000 A 
ATOM     15  C   UNL     1       6.014   5.030  14.742  0.00  0.00    +0.000 A 
ATOM     16  C   UNL     1       5.209   5.892  15.489  0.00  0.00    +0.000 A 
ENDBRANCH  10  11
ENDBRANCH   8  10
ENDBRANCH   1   2
BRANCH   1  18
ATOM     17  N   UNL     1       1.131  10.785  18.888  0.00  0.00    +0.000 N 
ATOM     18  C   UNL     1       1.128   9.644  18.122  0.00  0.00    +0.000 C 
ATOM     19  O   UNL     1       0.164   9.282  17.455  0.00  0.00    +0.000 OA
ATOM     20  H   UNL     1       1.935  10.973  19.472  0.00  0.00    +0.000 HD
BRANCH  17  26
ATOM     21  C   UNL     1      -0.858  13.283  22.698  0.00  0.00    +0.000 C 
ATOM     22  O   UNL     1      -0.331  14.319  23.085  0.00  0.00    +0.000 OA
ATOM     23  N   UNL     1      -0.446  12.589  21.579  0.00  0.00    +0.000 N 
ATOM     24  C   UNL     1       0.753  13.032  20.894  0.00  0.00    +0.000 C 
ATOM     25  C   UNL     1       0.497  13.108  19.398  0.00  0.00    +0.000 C 
ATOM     26  C   UNL     1       0.029  11.749  18.862  0.00  0.00    +0.000 C 
ATOM     27  C   UNL     1      -1.213  11.283  19.645  0.00  0.00    +0.000 C 
ATOM     28  C   UNL     1      -0.994  11.302  21.154  0.00  0.00    +0.000 C 
BRANCH  21  29
ATOM     29  O   UNL     1      -1.869  12.661  23.358  0.00  0.00    +0.000 OA
BRANCH  29  31
ATOM     30  C   UNL     1      -4.090  12.715  24.230  0.00  0.00    +0.000 C 
ATOM     31  C   UNL     1      -2.873  13.548  23.867  0.00  0.00    +0.000 C 
ENDBRANCH  29  31
ENDBRANCH  21  29
ENDBRANCH  17  26
ENDBRANCH   1  18
TORSDOF 7
ENDMDL
MODEL 9
REMARK VINA RESULT:      -6.9      2.716      4.375
REMARK  Name = 
REMARK  8 active torsions:
REMARK  status: ('A' for Active; 'I' for Inactive)
REMARK    1  A    between atoms: C_1  and  C_2
REMARK    2  A    between atoms: C_2  and  O_3
REMARK    3  A    between atoms: O_3  and  C_4
REMARK    4  A    between atoms: C_9  and  N_10
REMARK    5  A    between atoms: C_11  and  C_13
REMARK    6  A    between atoms: C_13  and  C_14
REMARK    7  A    between atoms: N_20  and  C_21
REMARK    8  A    between atoms: C_21  and  C_22
REMARK                            x       y       z     vdW  Elec       q    Type
REMARK                         _______ _______ _______ _____ _____    ______ ____
ROOT
ATOM      1  C   UNL     1       1.279  10.247  19.563  0.00  0.00    +0.000 C 
ENDROOT
BRANCH   1   2
ATOM      2  C   UNL     1       1.095  11.735  19.203  0.00  0.00    +0.000 C 
ATOM      3  C   UNL     1       1.265  12.615  20.475  0.00  0.00    +0.000 C 
ATOM      4  O   UNL     1       2.154  12.425  21.304  0.00  0.00    +0.000 OA
ATOM      5  N   UNL     1       0.489  13.725  20.634  0.00  0.00    +0.000 N 
ATOM      6  C   UNL     1      -0.631  14.042  19.787  0.00  0.00    +0.000 C 
ATOM      7  C   UNL     1      -0.439  13.466  18.384  0.00  0.00    +0.000 C 
ATOM      8  N   UNL     1      -0.164  12.013  18.399  0.00  0.00    +0.000 NA
ATOM      9  H   UNL     1       0.642  14.228  21.500  0.00  0.00    +0.000 HD
BRANCH   8  10
ATOM     10  C   UNL     1      -1.327  11.221  18.843  0.00  0.00    +0.000 C 
BRANCH  10  11
ATOM     11  C   UNL     1      -2.344  10.864  17.771  0.00  0.00    +0.000 A 
ATOM     12  C   UNL     1      -3.583  11.520  17.695  0.00  0.00    +0.000 A 
ATOM     13  C   UNL     1      -4.443  11.291  16.619  0.00  0.00    +0.000 A 
ATOM     14  C   UNL     1      -4.079  10.401  15.605  0.00  0.00    +0.000 A 
ATOM     15  C   UNL     1      -2.863   9.723  15.683  0.00  0.00    +0.000 A 
ATOM     16  C   UNL     1      -2.005   9.948  16.762  0.00  0.00    +0.000 A 
ENDBRANCH  10  11
ENDBRANCH   8  10
ENDBRANCH   1   2
BRANCH   1  18
ATOM     17  N   UNL     1       1.937   8.034  18.788  0.00  0.00    +0.000 N 
ATOM     18  C   UNL     1       1.689   9.336  18.423  0.00  0.00    +0.000 C 
ATOM     19  O   UNL     1       1.871   9.764  17.288  0.00  0.00    +0.000 OA
ATOM     20  H   UNL     1       1.838   7.777  19.761  0.00  0.00    +0.000 HD
BRANCH  17  26
ATOM     21  C   UNL     1       5.806   4.916  18.925  0.00  0.00    +0.000 C 
ATOM     22  O   UNL     1       5.727   3.880  19.572  0.00  0.00    +0.000 OA
ATOM     23  N   UNL     1       4.747   5.781  18.735  0.00  0.00    +0.000 N 
ATOM     24  C   UNL     1       3.508   5.521  19.442  0.00  0.00    +0.000 C 
ATOM     25  C   UNL     1       2.333   5.624  18.483  0.00  0.00    +0.000 C 
ATOM     26  C   UNL     1       2.304   7.004  17.814  0.00  0.00    +0.000 C 
ATOM     27  C   UNL     1       3.652   7.271  17.117  0.00  0.00    +0.000 C 
ATOM     28  C   UNL     1       4.842   7.069  18.050  0.00  0.00    +0.000 C 
BRANCH  21  29
ATOM     29  O   UNL     1       6.960   5.370  18.369  0.00  0.00    +0.000 OA
BRANCH  29  31
ATOM     30  C   UNL     1       7.071   4.862  16.040  0.00  0.00    +0.000 C 
ATOM     31  C   UNL     1       7.553   4.470  17.426  0.00  0.00    +0.000 C 
ENDBRANCH  29  31
ENDBRANCH  21  29
ENDBRANCH  17  26
ENDBRANCH   1  18
TORSDOF 7
ENDMDL
