MODEL 1
REMARK VINA RESULT:      -7.7      0.000      0.000
REMARK  Name = 
REMARK  4 active torsions:
REMARK  status: ('A' for Active; 'I' for Inactive)
REMARK    1  A    between atoms: C_2  and  C_3
REMARK    2  A    between atoms: C_3  and  N_4
REMARK    3  A    between atoms: N_7  and  C_8
REMARK    4  A    between atoms: C_8  and  C_9
REMARK                            x       y       z     vdW  Elec       q    Type
REMARK                         _______ _______ _______ _____ _____    ______ ____
ROOT
ATOM      1  N   UNL     1       2.313   7.464  18.923  0.00  0.00    +0.000 N 
ATOM      2  C   UNL     1       1.591   7.253  20.164  0.00  0.00    +0.000 C 
ATOM      3  C   UNL     1       1.279   8.669  20.629  0.00  0.00    +0.000 C 
ATOM      4  N   UNL     1       1.336   9.426  19.398  0.00  0.00    +0.000 N 
ATOM      5  C   UNL     1       1.996   8.721  18.398  0.00  0.00    +0.000 C 
ATOM      6  O   UNL     1       2.253   9.116  17.275  0.00  0.00    +0.000 OA
ENDROOT
BRANCH   1   7
ATOM      7  C   UNL     1       2.781   6.372  18.084  0.00  0.00    +0.000 C 
BRANCH   7   9
ATOM      8  O   UNL     1       4.859   5.788  19.178  0.00  0.00    +0.000 OA
ATOM      9  C   UNL     1       3.738   5.416  18.817  0.00  0.00    +0.000 C 
ATOM     10  N   UNL     1       3.321   4.101  19.028  0.00  0.00    +0.000 N 
ATOM     11  C   UNL     1       2.038   3.553  18.595  0.00  0.00    +0.000 C 
ATOM     12  C   UNL     1       0.957   3.705  19.666  0.00  0.00    +0.000 C 
ATOM     13  C   UNL     1       1.140   2.816  20.896  0.00  0.00    +0.000 C 
ATOM     14  C   UNL     1       2.507   2.911  21.575  0.00  0.00    +0.000 C 
ATOM     15  C   UNL     1       3.614   2.269  20.742  0.00  0.00    +0.000 C 
ATOM     16  C   UNL     1       4.247   3.216  19.729  0.00  0.00    +0.000 C 
ENDBRANCH   7   9
ENDBRANCH   1   7
BRANCH   4  17
ATOM     17  C   UNL     1       0.859  10.792  19.279  0.00  0.00    +0.000 C 
BRANCH  17  18
ATOM     18  C   UNL     1      -0.574  10.852  18.802  0.00  0.00    +0.000 A 
ATOM     19  C   UNL     1      -0.985   9.955  17.795  0.00  0.00    +0.000 A 
ATOM     20  C   UNL     1      -2.307   9.926  17.348  0.00  0.00    +0.000 A 
ATOM     21  C   UNL     1      -3.245  10.795  17.895  0.00  0.00    +0.000 A 
ATOM     22  C   UNL     1      -2.852  11.709  18.871  0.00  0.00    +0.000 A 
ATOM     23  C   UNL     1      -1.525  11.744  19.319  0.00  0.00    +0.000 A 
ATOM     24 CL   UNL     1      -1.129  12.926  20.514  0.00  0.00    +0.000 Cl
ENDBRANCH  17  18
ENDBRANCH   4  17
TORSDOF 4
ENDMDL
MODEL 2
REMARK VINA RESULT:      -7.6      1.903      3.062
REMARK  Name = 
REMARK  4 active torsions:
REMARK  status: ('A' for Active; 'I' for Inactive)
REMARK    1  A    between atoms: C_2  and  C_3
REMARK    2  A    between atoms: C_3  and  N_4
REMARK    3  A    between atoms: N_7  and  C_8
REMARK    4  A    between atoms: C_8  and  C_9
REMARK                            x       y       z     vdW  Elec       q    Type
REMARK                         _______ _______ _______ _____ _____    ______ ____
ROOT
ATOM      1  N   UNL     1       2.293   7.361  19.084  0.00  0.00    +0.000 N 
ATOM      2  C   UNL     1       1.546   7.339  20.328  0.00  0.00    +0.000 C 
ATOM      3  C   UNL     1       1.288   8.814  20.605  0.00  0.00    +0.000 C 
ATOM      4  N   UNL     1       1.394   9.406  19.290  0.00  0.00    +0.000 N 
ATOM      5  C   UNL     1       2.036   8.553  18.399  0.00  0.00    +0.000 C 
ATOM      6  O   UNL     1       2.324   8.792  17.239  0.00  0.00    +0.000 OA
ENDROOT
BRANCH   1   7
ATOM      7  C   UNL     1       2.724   6.154  18.399  0.00  0.00    +0.000 C 
BRANCH   7   9
ATOM      8  O   UNL     1       4.079   4.863  19.933  0.00  0.00    +0.000 OA
ATOM      9  C   UNL     1       4.052   5.595  18.939  0.00  0.00    +0.000 C 
ATOM     10  N   UNL     1       5.233   5.970  18.298  0.00  0.00    +0.000 N 
ATOM     11  C   UNL     1       5.310   6.869  17.149  0.00  0.00    +0.000 C 
ATOM     12  C   UNL     1       5.235   6.114  15.822  0.00  0.00    +0.000 C 
ATOM     13  C   UNL     1       6.466   5.272  15.489  0.00  0.00    +0.000 C 
ATOM     14  C   UNL     1       6.902   4.290  16.577  0.00  0.00    +0.000 C 
ATOM     15  C   UNL     1       7.508   4.998  17.787  0.00  0.00    +0.000 C 
ATOM     16  C   UNL     1       6.479   5.423  18.829  0.00  0.00    +0.000 C 
ENDBRANCH   7   9
ENDBRANCH   1   7
BRANCH   4  17
ATOM     17  C   UNL     1       0.977  10.764  18.990  0.00  0.00    +0.000 C 
BRANCH  17  18
ATOM     18  C   UNL     1      -0.492  10.841  18.639  0.00  0.00    +0.000 A 
ATOM     19  C   UNL     1      -0.997   9.959  17.664  0.00  0.00    +0.000 A 
ATOM     20  C   UNL     1      -2.352   9.946  17.332  0.00  0.00    +0.000 A 
ATOM     21  C   UNL     1      -3.231  10.817  17.967  0.00  0.00    +0.000 A 
ATOM     22  C   UNL     1      -2.747  11.717  18.914  0.00  0.00    +0.000 A 
ATOM     23  C   UNL     1      -1.386  11.736  19.246  0.00  0.00    +0.000 A 
ATOM     24 CL   UNL     1      -0.876  12.902  20.414  0.00  0.00    +0.000 Cl
ENDBRANCH  17  18
ENDBRANCH   4  17
TORSDOF 4
ENDMDL
MODEL 3
REMARK VINA RESULT:      -7.3      3.194      7.859
REMARK  Name = 
REMARK  4 active torsions:
REMARK  status: ('A' for Active; 'I' for Inactive)
REMARK    1  A    between atoms: C_2  and  C_3
REMARK    2  A    between atoms: C_3  and  N_4
REMARK    3  A    between atoms: N_7  and  C_8
REMARK    4  A    between atoms: C_8  and  C_9
REMARK                            x       y       z     vdW  Elec       q    Type
REMARK                         _______ _______ _______ _____ _____    ______ ____
ROOT
ATOM      1  N   UNL     1       1.156   9.238  19.365  0.00  0.00    +0.000 N 
ATOM      2  C   UNL     1       1.526   9.058  17.974  0.00  0.00    +0.000 C 
ATOM      3  C   UNL     1       2.700   8.091  18.049  0.00  0.00    +0.000 C 
ATOM      4  N   UNL     1       2.487   7.434  19.320  0.00  0.00    +0.000 N 
ATOM      5  C   UNL     1       1.602   8.147  20.119  0.00  0.00    +0.000 C 
ATOM      6  O   UNL     1       1.271   7.880  21.261  0.00  0.00    +0.000 OA
ENDROOT
BRANCH   1   7
ATOM      7  C   UNL     1       0.032  10.060  19.785  0.00  0.00    +0.000 C 
BRANCH   7   9
ATOM      8  O   UNL     1       0.567  10.915  21.985  0.00  0.00    +0.000 OA
ATOM      9  C   UNL     1       0.430  11.162  20.783  0.00  0.00    +0.000 C 
ATOM     10  N   UNL     1       0.596  12.459  20.298  0.00  0.00    +0.000 N 
ATOM     11  C   UNL     1       0.409  12.861  18.906  0.00  0.00    +0.000 C 
ATOM     12  C   UNL     1       1.705  12.763  18.101  0.00  0.00    +0.000 C 
ATOM     13  C   UNL     1       2.766  13.803  18.459  0.00  0.00    +0.000 C 
ATOM     14  C   UNL     1       3.127  13.886  19.943  0.00  0.00    +0.000 C 
ATOM     15  C   UNL     1       2.006  14.500  20.778  0.00  0.00    +0.000 C 
ATOM     16  C   UNL     1       0.977  13.485  21.266  0.00  0.00    +0.000 C 
ENDBRANCH   7   9
ENDBRANCH   1   7
BRANCH   4  17
ATOM     17  C   UNL     1       3.205   6.241  19.731  0.00  0.00    +0.000 C 
BRANCH  17  18
ATOM     18  C   UNL     1       2.463   4.977  19.360  0.00  0.00    +0.000 A 
ATOM     19  C   UNL     1       1.487   4.485  20.250  0.00  0.00    +0.000 A 
ATOM     20  C   UNL     1       0.733   3.352  19.942  0.00  0.00    +0.000 A 
ATOM     21  C   UNL     1       0.940   2.685  18.740  0.00  0.00    +0.000 A 
ATOM     22  C   UNL     1       1.920   3.138  17.859  0.00  0.00    +0.000 A 
ATOM     23  C   UNL     1       2.683   4.272  18.167  0.00  0.00    +0.000 A 
ATOM     24 CL   UNL     1       3.888   4.745  17.024  0.00  0.00    +0.000 Cl
ENDBRANCH  17  18
ENDBRANCH   4  17
TORSDOF 4
ENDMDL
MODEL 4
REMARK VINA RESULT:      -7.3      2.618      7.798
REMARK  Name = 
REMARK  4 active torsions:
REMARK  status: ('A' for Active; 'I' for Inactive)
REMARK    1  A    between atoms: C_2  and  C_3
REMARK    2  A    between atoms: C_3  and  N_4
REMARK    3  A    between atoms: N_7  and  C_8
REMARK    4  A    between atoms: C_8  and  C_9
REMARK                            x       y       z     vdW  Elec       q    Type
REMARK                         _______ _______ _______ _____ _____    ______ ____
ROOT
ATOM      1  N   UNL     1       1.100   9.179  19.250  0.00  0.00    +0.000 N 
ATOM      2  C   UNL     1       1.003   8.989  20.685  0.00  0.00    +0.000 C 
ATOM      3  C   UNL     1       1.469   7.552  20.877  0.00  0.00    +0.000 C 
ATOM      4  N   UNL     1       2.270   7.318  19.696  0.00  0.00    +0.000 N 
ATOM      5  C   UNL     1       2.011   8.265  18.711  0.00  0.00    +0.000 C 
ATOM      6  O   UNL     1       2.484   8.297  17.589  0.00  0.00    +0.000 OA
ENDROOT
BRANCH   1   7
ATOM      7  C   UNL     1       0.796  10.442  18.596  0.00  0.00    +0.000 C 
BRANCH   7   9
ATOM      8  O   UNL     1      -1.578  10.162  18.220  0.00  0.00    +0.000 OA
ATOM      9  C   UNL     1      -0.684  10.846  18.725  0.00  0.00    +0.000 C 
ATOM     10  N   UNL     1      -0.985  12.032  19.396  0.00  0.00    +0.000 N 
ATOM     11  C   UNL     1       0.003  12.934  19.982  0.00  0.00    +0.000 C 
ATOM     12  C   UNL     1       0.303  12.588  21.441  0.00  0.00    +0.000 C 
ATOM     13  C   UNL     1      -0.833  12.885  22.420  0.00  0.00    +0.000 C 
ATOM     14  C   UNL     1      -2.189  12.283  22.052  0.00  0.00    +0.000 C 
ATOM     15  C   UNL     1      -2.823  12.976  20.848  0.00  0.00    +0.000 C 
ATOM     16  C   UNL     1      -2.397  12.390  19.507  0.00  0.00    +0.000 C 
ENDBRANCH   7   9
ENDBRANCH   1   7
BRANCH   4  17
ATOM     17  C   UNL     1       3.144   6.170  19.539  0.00  0.00    +0.000 C 
BRANCH  17  18
ATOM     18  C   UNL     1       2.463   4.881  19.941  0.00  0.00    +0.000 A 
ATOM     19  C   UNL     1       2.653   4.401  21.252  0.00  0.00    +0.000 A 
ATOM     20  C   UNL     1       2.012   3.245  21.699  0.00  0.00    +0.000 A 
ATOM     21  C   UNL     1       1.170   2.542  20.843  0.00  0.00    +0.000 A 
ATOM     22  C   UNL     1       0.992   2.984  19.534  0.00  0.00    +0.000 A 
ATOM     23  C   UNL     1       1.638   4.142  19.080  0.00  0.00    +0.000 A 
ATOM     24 CL   UNL     1       1.372   4.598  17.436  0.00  0.00    +0.000 Cl
ENDBRANCH  17  18
ENDBRANCH   4  17
TORSDOF 4
ENDMDL
MODEL 5
REMARK VINA RESULT:      -7.2      1.523      2.479
REMARK  Name = 
REMARK  4 active torsions:
REMARK  status: ('A' for Active; 'I' for Inactive)
REMARK    1  A    between atoms: C_2  and  C_3
REMARK    2  A    between atoms: C_3  and  N_4
REMARK    3  A    between atoms: N_7  and  C_8
REMARK    4  A    between atoms: C_8  and  C_9
REMARK                            x       y       z     vdW  Elec       q    Type
REMARK                         _______ _______ _______ _____ _____    ______ ____
ROOT
ATOM      1  N   UNL     1       2.640   7.453  18.840  0.00  0.00    +0.000 N 
ATOM      2  C   UNL     1       2.053   7.162  20.135  0.00  0.00    +0.000 C 
ATOM      3  C   UNL     1       1.407   8.484  20.528  0.00  0.00    +0.000 C 
ATOM      4  N   UNL     1       1.211   9.133  19.250  0.00  0.00    +0.000 N 
ATOM      5  C   UNL     1       1.985   8.543  18.257  0.00  0.00    +0.000 C 
ATOM      6  O   UNL     1       2.080   8.903  17.097  0.00  0.00    +0.000 OA
ENDROOT
BRANCH   1   7
ATOM      7  C   UNL     1       3.335   6.455  18.044  0.00  0.00    +0.000 C 
BRANCH   7   9
ATOM      8  O   UNL     1       5.187   5.749  19.433  0.00  0.00    +0.000 OA
ATOM      9  C   UNL     1       4.118   5.441  18.897  0.00  0.00    +0.000 C 
ATOM     10  N   UNL     1       3.606   4.149  19.017  0.00  0.00    +0.000 N 
ATOM     11  C   UNL     1       2.379   3.674  18.382  0.00  0.00    +0.000 C 
ATOM     12  C   UNL     1       1.155   3.872  19.276  0.00  0.00    +0.000 C 
ATOM     13  C   UNL     1       1.100   2.963  20.504  0.00  0.00    +0.000 C 
ATOM     14  C   UNL     1       2.348   2.977  21.387  0.00  0.00    +0.000 C 
ATOM     15  C   UNL     1       3.536   2.286  20.722  0.00  0.00    +0.000 C 
ATOM     16  C   UNL     1       4.367   3.208  19.836  0.00  0.00    +0.000 C 
ENDBRANCH   7   9
ENDBRANCH   1   7
BRANCH   4  17
ATOM     17  C   UNL     1       0.392  10.318  19.075  0.00  0.00    +0.000 C 
BRANCH  17  18
ATOM     18  C   UNL     1       1.141  11.582  19.433  0.00  0.00    +0.000 A 
ATOM     19  C   UNL     1       2.045  12.116  18.493  0.00  0.00    +0.000 A 
ATOM     20  C   UNL     1       2.728  13.307  18.743  0.00  0.00    +0.000 A 
ATOM     21  C   UNL     1       2.524  13.988  19.938  0.00  0.00    +0.000 A 
ATOM     22  C   UNL     1       1.656  13.462  20.893  0.00  0.00    +0.000 A 
ATOM     23  C   UNL     1       0.972  12.264  20.647  0.00  0.00    +0.000 A 
ATOM     24 CL   UNL     1      -0.065  11.679  21.898  0.00  0.00    +0.000 Cl
ENDBRANCH  17  18
ENDBRANCH   4  17
TORSDOF 4
ENDMDL
MODEL 6
REMARK VINA RESULT:      -7.2      3.129      8.055
REMARK  Name = 
REMARK  4 active torsions:
REMARK  status: ('A' for Active; 'I' for Inactive)
REMARK    1  A    between atoms: C_2  and  C_3
REMARK    2  A    between atoms: C_3  and  N_4
REMARK    3  A    between atoms: N_7  and  C_8
REMARK    4  A    between atoms: C_8  and  C_9
REMARK                            x       y       z     vdW  Elec       q    Type
REMARK                         _______ _______ _______ _____ _____    ______ ____
ROOT
ATOM      1  N   UNL     1       1.136   9.134  19.440  0.00  0.00    +0.000 N 
ATOM      2  C   UNL     1       1.487   9.008  18.037  0.00  0.00    +0.000 C 
ATOM      3  C   UNL     1       2.678   8.060  18.061  0.00  0.00    +0.000 C 
ATOM      4  N   UNL     1       2.497   7.356  19.311  0.00  0.00    +0.000 N 
ATOM      5  C   UNL     1       1.612   8.025  20.148  0.00  0.00    +0.000 C 
ATOM      6  O   UNL     1       1.304   7.713  21.285  0.00  0.00    +0.000 OA
ENDROOT
BRANCH   1   7
ATOM      7  C   UNL     1       0.005   9.920  19.905  0.00  0.00    +0.000 C 
BRANCH   7   9
ATOM      8  O   UNL     1       1.243  10.871  21.754  0.00  0.00    +0.000 OA
ATOM      9  C   UNL     1       0.413  11.057  20.860  0.00  0.00    +0.000 C 
ATOM     10  N   UNL     1      -0.211  12.296  20.711  0.00  0.00    +0.000 N 
ATOM     11  C   UNL     1      -1.239  12.600  19.718  0.00  0.00    +0.000 C 
ATOM     12  C   UNL     1      -0.640  13.131  18.415  0.00  0.00    +0.000 C 
ATOM     13  C   UNL     1      -0.041  14.534  18.507  0.00  0.00    +0.000 C 
ATOM     14  C   UNL     1       0.982  14.738  19.625  0.00  0.00    +0.000 C 
ATOM     15  C   UNL     1       0.335  14.744  21.008  0.00  0.00    +0.000 C 
ATOM     16  C   UNL     1       0.197  13.358  21.627  0.00  0.00    +0.000 C 
ENDBRANCH   7   9
ENDBRANCH   1   7
BRANCH   4  17
ATOM     17  C   UNL     1       3.241   6.162  19.669  0.00  0.00    +0.000 C 
BRANCH  17  18
ATOM     18  C   UNL     1       2.490   4.898  19.315  0.00  0.00    +0.000 A 
ATOM     19  C   UNL     1       1.512   4.425  20.212  0.00  0.00    +0.000 A 
ATOM     20  C   UNL     1       0.749   3.294  19.919  0.00  0.00    +0.000 A 
ATOM     21  C   UNL     1       0.951   2.609  18.726  0.00  0.00    +0.000 A 
ATOM     22  C   UNL     1       1.935   3.043  17.839  0.00  0.00    +0.000 A 
ATOM     23  C   UNL     1       2.705   4.176  18.132  0.00  0.00    +0.000 A 
ATOM     24 CL   UNL     1       3.914   4.625  16.982  0.00  0.00    +0.000 Cl
ENDBRANCH  17  18
ENDBRANCH   4  17
TORSDOF 4
ENDMDL
MODEL 7
REMARK VINA RESULT:      -7.2      2.024      3.218
REMARK  Name = 
REMARK  4 active torsions:
REMARK  status: ('A' for Active; 'I' for Inactive)
REMARK    1  A    between atoms: C_2  and  C_3
REMARK    2  A    between atoms: C_3  and  N_4
REMARK    3  A    between atoms: N_7  and  C_8
REMARK    4  A    between atoms: C_8  and  C_9
REMARK                            x       y       z     vdW  Elec       q    Type
REMARK                         _______ _______ _______ _____ _____    ______ ____
ROOT
ATOM      1  N   UNL     1       2.238   7.510  18.980  0.00  0.00    +0.000 N 
ATOM      2  C   UNL     1       2.803   8.252  17.867  0.00  0.00    +0.000 C 
ATOM      3  C   UNL     1       1.913   9.485  17.786  0.00  0.00    +0.000 C 
ATOM      4  N   UNL     1       1.371   9.574  19.123  0.00  0.00    +0.000 N 
ATOM      5  C   UNL     1       1.526   8.378  19.815  0.00  0.00    +0.000 C 
ATOM      6  O   UNL     1       1.120   8.125  20.936  0.00  0.00    +0.000 OA
ENDROOT
BRANCH   1   7
ATOM      7  C   UNL     1       2.802   6.261  19.465  0.00  0.00    +0.000 C 
BRANCH   7   9
ATOM      8  O   UNL     1       1.900   4.723  17.829  0.00  0.00    +0.000 OA
ATOM      9  C   UNL     1       2.909   5.182  18.372  0.00  0.00    +0.000 C 
ATOM     10  N   UNL     1       4.178   4.709  18.038  0.00  0.00    +0.000 N 
ATOM     11  C   UNL     1       5.425   5.153  18.657  0.00  0.00    +0.000 C 
ATOM     12  C   UNL     1       6.047   6.335  17.913  0.00  0.00    +0.000 C 
ATOM     13  C   UNL     1       6.624   6.000  16.538  0.00  0.00    +0.000 C 
ATOM     14  C   UNL     1       5.669   5.281  15.585  0.00  0.00    +0.000 C 
ATOM     15  C   UNL     1       5.405   3.838  16.009  0.00  0.00    +0.000 C 
ATOM     16  C   UNL     1       4.251   3.689  16.995  0.00  0.00    +0.000 C 
ENDBRANCH   7   9
ENDBRANCH   1   7
BRANCH   4  17
ATOM     17  C   UNL     1       0.659  10.737  19.620  0.00  0.00    +0.000 C 
BRANCH  17  18
ATOM     18  C   UNL     1      -0.716  10.865  19.006  0.00  0.00    +0.000 A 
ATOM     19  C   UNL     1      -1.050  10.026  17.925  0.00  0.00    +0.000 A 
ATOM     20  C   UNL     1      -2.320  10.059  17.347  0.00  0.00    +0.000 A 
ATOM     21  C   UNL     1      -3.283  10.936  17.837  0.00  0.00    +0.000 A 
ATOM     22  C   UNL     1      -2.964  11.795  18.887  0.00  0.00    +0.000 A 
ATOM     23  C   UNL     1      -1.688  11.766  19.466  0.00  0.00    +0.000 A 
ATOM     24 CL   UNL     1      -1.380  12.883  20.747  0.00  0.00    +0.000 Cl
ENDBRANCH  17  18
ENDBRANCH   4  17
TORSDOF 4
ENDMDL
MODEL 8
REMARK VINA RESULT:      -7.2      3.091      7.762
REMARK  Name = 
REMARK  4 active torsions:
REMARK  status: ('A' for Active; 'I' for Inactive)
REMARK    1  A    between atoms: C_2  and  C_3
REMARK    2  A    between atoms: C_3  and  N_4
REMARK    3  A    between atoms: N_7  and  C_8
REMARK    4  A    between atoms: C_8  and  C_9
REMARK                            x       y       z     vdW  Elec       q    Type
REMARK                         _______ _______ _______ _____ _____    ______ ____
ROOT
ATOM      1  N   UNL     1       1.370   9.030  19.051  0.00  0.00    +0.000 N 
ATOM      2  C   UNL     1       1.850   8.769  17.706  0.00  0.00    +0.000 C 
ATOM      3  C   UNL     1       2.981   7.775  17.928  0.00  0.00    +0.000 C 
ATOM      4  N   UNL     1       2.642   7.189  19.206  0.00  0.00    +0.000 N 
ATOM      5  C   UNL     1       1.715   7.966  19.892  0.00  0.00    +0.000 C 
ATOM      6  O   UNL     1       1.282   7.765  21.013  0.00  0.00    +0.000 OA
ENDROOT
BRANCH   1   7
ATOM      7  C   UNL     1       0.242   9.902  19.334  0.00  0.00    +0.000 C 
BRANCH   7   9
ATOM      8  O   UNL     1       1.026  12.079  18.624  0.00  0.00    +0.000 OA
ATOM      9  C   UNL     1       0.654  11.367  19.562  0.00  0.00    +0.000 C 
ATOM     10  N   UNL     1       0.635  11.860  20.867  0.00  0.00    +0.000 N 
ATOM     11  C   UNL     1       0.260  11.085  22.047  0.00  0.00    +0.000 C 
ATOM     12  C   UNL     1      -1.235  11.188  22.352  0.00  0.00    +0.000 C 
ATOM     13  C   UNL     1      -1.695  12.553  22.865  0.00  0.00    +0.000 C 
ATOM     14  C   UNL     1      -1.297  13.747  21.997  0.00  0.00    +0.000 C 
ATOM     15  C   UNL     1       0.200  14.040  22.066  0.00  0.00    +0.000 C 
ATOM     16  C   UNL     1       1.027  13.255  21.055  0.00  0.00    +0.000 C 
ENDBRANCH   7   9
ENDBRANCH   1   7
BRANCH   4  17
ATOM     17  C   UNL     1       3.284   5.998  19.733  0.00  0.00    +0.000 C 
BRANCH  17  18
ATOM     18  C   UNL     1       2.516   4.742  19.391  0.00  0.00    +0.000 A 
ATOM     19  C   UNL     1       1.520   4.299  20.284  0.00  0.00    +0.000 A 
ATOM     20  C   UNL     1       0.742   3.175  20.001  0.00  0.00    +0.000 A 
ATOM     21  C   UNL     1       0.947   2.468  18.821  0.00  0.00    +0.000 A 
ATOM     22  C   UNL     1       1.947   2.872  17.939  0.00  0.00    +0.000 A 
ATOM     23  C   UNL     1       2.732   3.997  18.222  0.00  0.00    +0.000 A 
ATOM     24 CL   UNL     1       3.961   4.407  17.080  0.00  0.00    +0.000 Cl
ENDBRANCH  17  18
ENDBRANCH   4  17
TORSDOF 4
ENDMDL
MODEL 9
REMARK VINA RESULT:      -7.2      2.282      3.471
REMARK  Name = 
REMARK  4 active torsions:
REMARK  status: ('A' for Active; 'I' for Inactive)
REMARK    1  A    between atoms: C_2  and  C_3
REMARK    2  A    between atoms: C_3  and  N_4
REMARK    3  A    between atoms: N_7  and  C_8
REMARK    4  A    between atoms: C_8  and  C_9
REMARK                            x       y       z     vdW  Elec       q    Type
REMARK                         _______ _______ _______ _____ _____    ______ ____
ROOT
ATOM      1  N   UNL     1       2.480   6.983  19.028  0.00  0.00    +0.000 N 
ATOM      2  C   UNL     1       2.948   7.833  17.949  0.00  0.00    +0.000 C 
ATOM      3  C   UNL     1       2.021   9.039  18.031  0.00  0.00    +0.000 C 
ATOM      4  N   UNL     1       1.568   8.998  19.403  0.00  0.00    +0.000 N 
ATOM      5  C   UNL     1       1.802   7.754  19.978  0.00  0.00    +0.000 C 
ATOM      6  O   UNL     1       1.480   7.395  21.097  0.00  0.00    +0.000 OA
ENDROOT
BRANCH   1   7
ATOM      7  C   UNL     1       3.108   5.716  19.367  0.00  0.00    +0.000 C 
BRANCH   7   9
ATOM      8  O   UNL     1       2.307   4.355  17.534  0.00  0.00    +0.000 OA
ATOM      9  C   UNL     1       3.284   4.786  18.153  0.00  0.00    +0.000 C 
ATOM     10  N   UNL     1       4.579   4.411  17.794  0.00  0.00    +0.000 N 
ATOM     11  C   UNL     1       5.793   4.828  18.493  0.00  0.00    +0.000 C 
ATOM     12  C   UNL     1       6.375   6.118  17.915  0.00  0.00    +0.000 C 
ATOM     13  C   UNL     1       6.993   5.979  16.523  0.00  0.00    +0.000 C 
ATOM     14  C   UNL     1       6.090   5.343  15.466  0.00  0.00    +0.000 C 
ATOM     15  C   UNL     1       5.882   3.849  15.705  0.00  0.00    +0.000 C 
ATOM     16  C   UNL     1       4.718   3.532  16.637  0.00  0.00    +0.000 C 
ENDBRANCH   7   9
ENDBRANCH   1   7
BRANCH   4  17
ATOM     17  C   UNL     1       0.860  10.092  20.043  0.00  0.00    +0.000 C 
BRANCH  17  18
ATOM     18  C   UNL     1      -0.214  10.671  19.151  0.00  0.00    +0.000 A 
ATOM     19  C   UNL     1      -1.299   9.850  18.787  0.00  0.00    +0.000 A 
ATOM     20  C   UNL     1      -2.348  10.340  18.007  0.00  0.00    +0.000 A 
ATOM     21  C   UNL     1      -2.332  11.661  17.572  0.00  0.00    +0.000 A 
ATOM     22  C   UNL     1      -1.252  12.481  17.897  0.00  0.00    +0.000 A 
ATOM     23  C   UNL     1      -0.196  11.991  18.675  0.00  0.00    +0.000 A 
ATOM     24 CL   UNL     1       1.107  13.075  19.007  0.00  0.00    +0.000 Cl
ENDBRANCH  17  18
ENDBRANCH   4  17
TORSDOF 4
ENDMDL
