MODEL 1
REMARK VINA RESULT:      -6.5      0.000      0.000
REMARK  Name = 
REMARK  8 active torsions:
REMARK  status: ('A' for Active; 'I' for Inactive)
REMARK    1  A    between atoms: C_1  and  C_2
REMARK    2  A    between atoms: C_2  and  C_3
REMARK    3  A    between atoms: C_2  and  N_4
REMARK    4  A    between atoms: N_4  and  C_21
REMARK    5  A    between atoms: C_5  and  C_7
REMARK    6  A    between atoms: C_7  and  N_8
REMARK    7  A    between atoms: C_21  and  C_22
REMARK    8  A    between atoms: C_21  and  C_23
REMARK                            x       y       z     vdW  Elec       q    Type
REMARK                         _______ _______ _______ _____ _____    ______ ____
ROOT
ATOM      1  N   UNL     1       3.022   6.632  18.952  0.00  0.00    +0.000 N 
ATOM      2  C   UNL     1       2.975   5.670  19.909  0.00  0.00    +0.000 C 
ATOM      3  O   UNL     1       2.061   5.419  20.678  0.00  0.00    +0.000 OA
ATOM      4  N   UNL     1       4.123   4.907  19.827  0.00  0.00    +0.000 N 
ATOM      5  C   UNL     1       4.855   5.174  18.596  0.00  0.00    +0.000 C 
ATOM      6  C   UNL     1       4.469   4.113  17.540  0.00  0.00    +0.000 C 
ATOM      7  C   UNL     1       4.952   4.383  16.113  0.00  0.00    +0.000 C 
ATOM      8  C   UNL     1       6.463   4.538  15.937  0.00  0.00    +0.000 C 
ATOM      9  C   UNL     1       7.043   5.848  16.458  0.00  0.00    +0.000 C 
ATOM     10  C   UNL     1       7.263   5.953  17.966  0.00  0.00    +0.000 C 
ATOM     11  C   UNL     1       6.351   5.162  18.888  0.00  0.00    +0.000 C 
ATOM     12  C   UNL     1       4.167   6.508  18.208  0.00  0.00    +0.000 C 
ATOM     13  O   UNL     1       4.457   7.225  17.262  0.00  0.00    +0.000 OA
ATOM     14  H   UNL     1       4.188   4.055  20.368  0.00  0.00    +0.000 HD
ENDROOT
BRANCH   1  15
ATOM     15  C   UNL     1       1.819   7.244  18.412  0.00  0.00    +0.000 C 
BRANCH  15  17
ATOM     16  N   UNL     1       1.173   9.394  19.570  0.00  0.00    +0.000 N 
ATOM     17  C   UNL     1       1.676   8.780  18.385  0.00  0.00    +0.000 C 
ATOM     18  O   UNL     1       1.914   9.404  17.355  0.00  0.00    +0.000 OA
BRANCH  16  20
ATOM     19  C   UNL     1       1.957  11.807  18.974  0.00  0.00    +0.000 C 
ATOM     20  C   UNL     1       0.933  10.874  19.639  0.00  0.00    +0.000 C 
ATOM     21  C   UNL     1      -0.464  11.266  19.138  0.00  0.00    +0.000 C 
ENDBRANCH  16  20
BRANCH  16  22
ATOM     22  C   UNL     1       0.938   8.593  20.807  0.00  0.00    +0.000 C 
ATOM     23  C   UNL     1       1.638   9.228  22.016  0.00  0.00    +0.000 C 
ATOM     24  C   UNL     1      -0.517   8.289  21.158  0.00  0.00    +0.000 C 
ENDBRANCH  16  22
ENDBRANCH  15  17
ENDBRANCH   1  15
TORSDOF 4
ENDMDL
MODEL 2
REMARK VINA RESULT:      -6.5      1.834      3.867
REMARK  Name = 
REMARK  8 active torsions:
REMARK  status: ('A' for Active; 'I' for Inactive)
REMARK    1  A    between atoms: C_1  and  C_2
REMARK    2  A    between atoms: C_2  and  C_3
REMARK    3  A    between atoms: C_2  and  N_4
REMARK    4  A    between atoms: N_4  and  C_21
REMARK    5  A    between atoms: C_5  and  C_7
REMARK    6  A    between atoms: C_7  and  N_8
REMARK    7  A    between atoms: C_21  and  C_22
REMARK    8  A    between atoms: C_21  and  C_23
REMARK                            x       y       z     vdW  Elec       q    Type
REMARK                         _______ _______ _______ _____ _____    ______ ____
ROOT
ATOM      1  N   UNL     1       3.255   6.440  17.735  0.00  0.00    +0.000 N 
ATOM      2  C   UNL     1       4.606   6.296  17.736  0.00  0.00    +0.000 C 
ATOM      3  O   UNL     1       5.455   7.171  17.667  0.00  0.00    +0.000 OA
ATOM      4  N   UNL     1       4.909   4.964  17.938  0.00  0.00    +0.000 N 
ATOM      5  C   UNL     1       3.740   4.209  18.369  0.00  0.00    +0.000 C 
ATOM      6  C   UNL     1       3.748   4.105  19.912  0.00  0.00    +0.000 C 
ATOM      7  C   UNL     1       2.469   3.561  20.551  0.00  0.00    +0.000 C 
ATOM      8  C   UNL     1       2.034   2.167  20.095  0.00  0.00    +0.000 C 
ATOM      9  C   UNL     1       1.444   2.104  18.691  0.00  0.00    +0.000 C 
ATOM     10  C   UNL     1       2.433   2.116  17.527  0.00  0.00    +0.000 C 
ATOM     11  C   UNL     1       3.759   2.835  17.710  0.00  0.00    +0.000 C 
ATOM     12  C   UNL     1       2.648   5.232  17.964  0.00  0.00    +0.000 C 
ATOM     13  O   UNL     1       1.439   5.071  18.042  0.00  0.00    +0.000 OA
ATOM     14  H   UNL     1       5.870   4.700  18.115  0.00  0.00    +0.000 HD
ENDROOT
BRANCH   1  15
ATOM     15  C   UNL     1       2.612   7.699  18.073  0.00  0.00    +0.000 C 
BRANCH  15  17
ATOM     16  N   UNL     1       1.219   9.089  19.657  0.00  0.00    +0.000 N 
ATOM     17  C   UNL     1       1.971   7.892  19.463  0.00  0.00    +0.000 C 
ATOM     18  O   UNL     1       2.183   7.081  20.359  0.00  0.00    +0.000 OA
BRANCH  16  20
ATOM     19  C   UNL     1      -0.520   8.504  21.507  0.00  0.00    +0.000 C 
ATOM     20  C   UNL     1       0.602   9.415  20.985  0.00  0.00    +0.000 C 
ATOM     21  C   UNL     1       1.649   9.566  22.098  0.00  0.00    +0.000 C 
ENDBRANCH  16  20
BRANCH  16  22
ATOM     22  C   UNL     1       0.959  10.022  18.521  0.00  0.00    +0.000 C 
ATOM     23  C   UNL     1      -0.543  10.117  18.219  0.00  0.00    +0.000 C 
ATOM     24  C   UNL     1       1.547  11.427  18.642  0.00  0.00    +0.000 C 
ENDBRANCH  16  22
ENDBRANCH  15  17
ENDBRANCH   1  15
TORSDOF 4
ENDMDL
MODEL 3
REMARK VINA RESULT:      -6.4      1.771      2.495
REMARK  Name = 
REMARK  8 active torsions:
REMARK  status: ('A' for Active; 'I' for Inactive)
REMARK    1  A    between atoms: C_1  and  C_2
REMARK    2  A    between atoms: C_2  and  C_3
REMARK    3  A    between atoms: C_2  and  N_4
REMARK    4  A    between atoms: N_4  and  C_21
REMARK    5  A    between atoms: C_5  and  C_7
REMARK    6  A    between atoms: C_7  and  N_8
REMARK    7  A    between atoms: C_21  and  C_22
REMARK    8  A    between atoms: C_21  and  C_23
REMARK                            x       y       z     vdW  Elec       q    Type
REMARK                         _______ _______ _______ _____ _____    ______ ____
ROOT
ATOM      1  N   UNL     1       2.173   8.038  19.057  0.00  0.00    +0.000 N 
ATOM      2  C   UNL     1       1.839   7.683  20.325  0.00  0.00    +0.000 C 
ATOM      3  O   UNL     1       1.114   8.279  21.106  0.00  0.00    +0.000 OA
ATOM      4  N   UNL     1       2.379   6.441  20.594  0.00  0.00    +0.000 N 
ATOM      5  C   UNL     1       2.864   5.795  19.382  0.00  0.00    +0.000 C 
ATOM      6  C   UNL     1       1.770   4.840  18.849  0.00  0.00    +0.000 C 
ATOM      7  C   UNL     1       2.008   4.265  17.451  0.00  0.00    +0.000 C 
ATOM      8  C   UNL     1       3.304   3.474  17.265  0.00  0.00    +0.000 C 
ATOM      9  C   UNL     1       4.573   4.318  17.212  0.00  0.00    +0.000 C 
ATOM     10  C   UNL     1       5.129   4.810  18.547  0.00  0.00    +0.000 C 
ATOM     11  C   UNL     1       4.159   5.054  19.691  0.00  0.00    +0.000 C 
ATOM     12  C   UNL     1       2.900   7.041  18.461  0.00  0.00    +0.000 C 
ATOM     13  O   UNL     1       3.311   7.079  17.310  0.00  0.00    +0.000 OA
ATOM     14  H   UNL     1       2.106   5.959  21.441  0.00  0.00    +0.000 HD
ENDROOT
BRANCH   1  15
ATOM     15  C   UNL     1       1.378   8.976  18.282  0.00  0.00    +0.000 C 
BRANCH  15  17
ATOM     16  N   UNL     1       0.537  11.226  19.065  0.00  0.00    +0.000 N 
ATOM     17  C   UNL     1       1.594  10.495  18.446  0.00  0.00    +0.000 C 
ATOM     18  O   UNL     1       2.598  11.028  17.984  0.00  0.00    +0.000 OA
BRANCH  16  20
ATOM     19  C   UNL     1       1.967  13.345  19.572  0.00  0.00    +0.000 C 
ATOM     20  C   UNL     1       0.609  12.716  19.221  0.00  0.00    +0.000 C 
ATOM     21  C   UNL     1       0.039  13.463  18.006  0.00  0.00    +0.000 C 
ENDBRANCH  16  20
BRANCH  16  22
ATOM     22  C   UNL     1      -0.644  10.522  19.645  0.00  0.00    +0.000 C 
ATOM     23  C   UNL     1      -1.020  11.110  21.011  0.00  0.00    +0.000 C 
ATOM     24  C   UNL     1      -1.889  10.436  18.763  0.00  0.00    +0.000 C 
ENDBRANCH  16  22
ENDBRANCH  15  17
ENDBRANCH   1  15
TORSDOF 4
ENDMDL
MODEL 4
REMARK VINA RESULT:      -6.3      1.898      3.573
REMARK  Name = 
REMARK  8 active torsions:
REMARK  status: ('A' for Active; 'I' for Inactive)
REMARK    1  A    between atoms: C_1  and  C_2
REMARK    2  A    between atoms: C_2  and  C_3
REMARK    3  A    between atoms: C_2  and  N_4
REMARK    4  A    between atoms: N_4  and  C_21
REMARK    5  A    between atoms: C_5  and  C_7
REMARK    6  A    between atoms: C_7  and  N_8
REMARK    7  A    between atoms: C_21  and  C_22
REMARK    8  A    between atoms: C_21  and  C_23
REMARK                            x       y       z     vdW  Elec       q    Type
REMARK                         _______ _______ _______ _____ _____    ______ ____
ROOT
ATOM      1  N   UNL     1       2.685   6.540  18.323  0.00  0.00    +0.000 N 
ATOM      2  C   UNL     1       3.667   6.171  17.459  0.00  0.00    +0.000 C 
ATOM      3  O   UNL     1       4.460   6.890  16.873  0.00  0.00    +0.000 OA
ATOM      4  N   UNL     1       3.716   4.792  17.406  0.00  0.00    +0.000 N 
ATOM      5  C   UNL     1       2.933   4.188  18.476  0.00  0.00    +0.000 C 
ATOM      6  C   UNL     1       3.872   3.848  19.656  0.00  0.00    +0.000 C 
ATOM      7  C   UNL     1       3.185   3.435  20.960  0.00  0.00    +0.000 C 
ATOM      8  C   UNL     1       2.257   2.222  20.871  0.00  0.00    +0.000 C 
ATOM      9  C   UNL     1       0.929   2.476  20.167  0.00  0.00    +0.000 C 
ATOM     10  C   UNL     1       0.952   2.501  18.641  0.00  0.00    +0.000 C 
ATOM     11  C   UNL     1       2.225   2.949  17.942  0.00  0.00    +0.000 C 
ATOM     12  C   UNL     1       2.096   5.431  18.874  0.00  0.00    +0.000 C 
ATOM     13  O   UNL     1       1.200   5.466  19.704  0.00  0.00    +0.000 OA
ATOM     14  H   UNL     1       4.486   4.345  16.925  0.00  0.00    +0.000 HD
ENDROOT
BRANCH   1  15
ATOM     15  C   UNL     1       2.699   7.821  19.008  0.00  0.00    +0.000 C 
BRANCH  15  17
ATOM     16  N   UNL     1       0.831   9.461  19.458  0.00  0.00    +0.000 N 
ATOM     17  C   UNL     1       1.789   8.969  18.523  0.00  0.00    +0.000 C 
ATOM     18  O   UNL     1       1.856   9.361  17.362  0.00  0.00    +0.000 OA
BRANCH  16  20
ATOM     19  C   UNL     1       0.399  11.925  18.728  0.00  0.00    +0.000 C 
ATOM     20  C   UNL     1      -0.148  10.532  19.079  0.00  0.00    +0.000 C 
ATOM     21  C   UNL     1      -1.091  10.093  17.949  0.00  0.00    +0.000 C 
ENDBRANCH  16  20
BRANCH  16  22
ATOM     22  C   UNL     1       0.820   8.976  20.870  0.00  0.00    +0.000 C 
ATOM     23  C   UNL     1       1.079  10.129  21.849  0.00  0.00    +0.000 C 
ATOM     24  C   UNL     1      -0.414   8.193  21.314  0.00  0.00    +0.000 C 
ENDBRANCH  16  22
ENDBRANCH  15  17
ENDBRANCH   1  15
TORSDOF 4
ENDMDL
MODEL 5
REMARK VINA RESULT:      -6.2      2.583      6.106
REMARK  Name = 
REMARK  8 active torsions:
REMARK  status: ('A' for Active; 'I' for Inactive)
REMARK    1  A    between atoms: C_1  and  C_2
REMARK    2  A    between atoms: C_2  and  C_3
REMARK    3  A    between atoms: C_2  and  N_4
REMARK    4  A    between atoms: N_4  and  C_21
REMARK    5  A    between atoms: C_5  and  C_7
REMARK    6  A    between atoms: C_7  and  N_8
REMARK    7  A    between atoms: C_21  and  C_22
REMARK    8  A    between atoms: C_21  and  C_23
REMARK                            x       y       z     vdW  Elec       q    Type
REMARK                         _______ _______ _______ _____ _____    ______ ____
ROOT
ATOM      1  N   UNL     1       3.779   7.102  18.299  0.00  0.00    +0.000 N 
ATOM      2  C   UNL     1       2.561   7.638  18.024  0.00  0.00    +0.000 C 
ATOM      3  O   UNL     1       2.310   8.625  17.350  0.00  0.00    +0.000 OA
ATOM      4  N   UNL     1       1.585   6.818  18.554  0.00  0.00    +0.000 N 
ATOM      5  C   UNL     1       2.133   5.532  18.964  0.00  0.00    +0.000 C 
ATOM      6  C   UNL     1       1.915   4.506  17.828  0.00  0.00    +0.000 C 
ATOM      7  C   UNL     1       2.645   3.170  17.985  0.00  0.00    +0.000 C 
ATOM      8  C   UNL     1       2.328   2.380  19.255  0.00  0.00    +0.000 C 
ATOM      9  C   UNL     1       2.936   2.943  20.534  0.00  0.00    +0.000 C 
ATOM     10  C   UNL     1       2.225   4.138  21.166  0.00  0.00    +0.000 C 
ATOM     11  C   UNL     1       1.463   5.091  20.260  0.00  0.00    +0.000 C 
ATOM     12  C   UNL     1       3.634   5.919  18.977  0.00  0.00    +0.000 C 
ATOM     13  O   UNL     1       4.563   5.207  19.330  0.00  0.00    +0.000 OA
ATOM     14  H   UNL     1       0.617   6.988  18.315  0.00  0.00    +0.000 HD
ENDROOT
BRANCH   1  15
ATOM     15  C   UNL     1       4.948   7.381  17.483  0.00  0.00    +0.000 C 
BRANCH  15  17
ATOM     16  N   UNL     1       6.476   5.621  16.507  0.00  0.00    +0.000 N 
ATOM     17  C   UNL     1       5.323   6.440  16.319  0.00  0.00    +0.000 C 
ATOM     18  O   UNL     1       4.691   6.478  15.267  0.00  0.00    +0.000 OA
BRANCH  16  20
ATOM     19  C   UNL     1       6.018   3.632  14.886  0.00  0.00    +0.000 C 
ATOM     20  C   UNL     1       6.972   4.714  15.421  0.00  0.00    +0.000 C 
ATOM     21  C   UNL     1       7.535   5.487  14.220  0.00  0.00    +0.000 C 
ENDBRANCH  16  20
BRANCH  16  22
ATOM     22  C   UNL     1       7.184   5.586  17.821  0.00  0.00    +0.000 C 
ATOM     23  C   UNL     1       8.092   4.353  17.924  0.00  0.00    +0.000 C 
ATOM     24  C   UNL     1       7.970   6.837  18.206  0.00  0.00    +0.000 C 
ENDBRANCH  16  22
ENDBRANCH  15  17
ENDBRANCH   1  15
TORSDOF 4
ENDMDL
MODEL 6
REMARK VINA RESULT:      -6.2      1.635      3.073
REMARK  Name = 
REMARK  8 active torsions:
REMARK  status: ('A' for Active; 'I' for Inactive)
REMARK    1  A    between atoms: C_1  and  C_2
REMARK    2  A    between atoms: C_2  and  C_3
REMARK    3  A    between atoms: C_2  and  N_4
REMARK    4  A    between atoms: N_4  and  C_21
REMARK    5  A    between atoms: C_5  and  C_7
REMARK    6  A    between atoms: C_7  and  N_8
REMARK    7  A    between atoms: C_21  and  C_22
REMARK    8  A    between atoms: C_21  and  C_23
REMARK                            x       y       z     vdW  Elec       q    Type
REMARK                         _______ _______ _______ _____ _____    ______ ____
ROOT
ATOM      1  N   UNL     1       2.985   6.607  18.189  0.00  0.00    +0.000 N 
ATOM      2  C   UNL     1       4.086   6.739  17.404  0.00  0.00    +0.000 C 
ATOM      3  O   UNL     1       4.679   7.764  17.107  0.00  0.00    +0.000 OA
ATOM      4  N   UNL     1       4.530   5.480  17.049  0.00  0.00    +0.000 N 
ATOM      5  C   UNL     1       3.883   4.442  17.840  0.00  0.00    +0.000 C 
ATOM      6  C   UNL     1       4.800   4.070  19.028  0.00  0.00    +0.000 C 
ATOM      7  C   UNL     1       4.175   3.176  20.101  0.00  0.00    +0.000 C 
ATOM      8  C   UNL     1       3.639   1.827  19.618  0.00  0.00    +0.000 C 
ATOM      9  C   UNL     1       2.344   1.896  18.818  0.00  0.00    +0.000 C 
ATOM     10  C   UNL     1       2.460   2.313  17.354  0.00  0.00    +0.000 C 
ATOM     11  C   UNL     1       3.595   3.239  16.951  0.00  0.00    +0.000 C 
ATOM     12  C   UNL     1       2.703   5.281  18.392  0.00  0.00    +0.000 C 
ATOM     13  O   UNL     1       1.781   4.869  19.082  0.00  0.00    +0.000 OA
ATOM     14  H   UNL     1       5.426   5.387  16.587  0.00  0.00    +0.000 HD
ENDROOT
BRANCH   1  15
ATOM     15  C   UNL     1       2.588   7.631  19.141  0.00  0.00    +0.000 C 
BRANCH  15  17
ATOM     16  N   UNL     1       0.788   9.340  19.611  0.00  0.00    +0.000 N 
ATOM     17  C   UNL     1       1.739   8.833  18.677  0.00  0.00    +0.000 C 
ATOM     18  O   UNL     1       1.844   9.255  17.529  0.00  0.00    +0.000 OA
BRANCH  16  20
ATOM     19  C   UNL     1       0.482  11.838  18.935  0.00  0.00    +0.000 C 
ATOM     20  C   UNL     1      -0.135  10.465  19.249  0.00  0.00    +0.000 C 
ATOM     21  C   UNL     1      -1.088  10.098  18.103  0.00  0.00    +0.000 C 
ENDBRANCH  16  20
BRANCH  16  22
ATOM     22  C   UNL     1       0.732   8.815  21.007  0.00  0.00    +0.000 C 
ATOM     23  C   UNL     1       1.381   9.797  21.991  0.00  0.00    +0.000 C 
ATOM     24  C   UNL     1      -0.644   8.403  21.527  0.00  0.00    +0.000 C 
ENDBRANCH  16  22
ENDBRANCH  15  17
ENDBRANCH   1  15
TORSDOF 4
ENDMDL
MODEL 7
REMARK VINA RESULT:      -6.1      1.550      1.870
REMARK  Name = 
REMARK  8 active torsions:
REMARK  status: ('A' for Active; 'I' for Inactive)
REMARK    1  A    between atoms: C_1  and  C_2
REMARK    2  A    between atoms: C_2  and  C_3
REMARK    3  A    between atoms: C_2  and  N_4
REMARK    4  A    between atoms: N_4  and  C_21
REMARK    5  A    between atoms: C_5  and  C_7
REMARK    6  A    between atoms: C_7  and  N_8
REMARK    7  A    between atoms: C_21  and  C_22
REMARK    8  A    between atoms: C_21  and  C_23
REMARK                            x       y       z     vdW  Elec       q    Type
REMARK                         _______ _______ _______ _____ _____    ______ ____
ROOT
ATOM      1  N   UNL     1       2.994   5.501  18.933  0.00  0.00    +0.000 N 
ATOM      2  C   UNL     1       2.527   4.822  17.853  0.00  0.00    +0.000 C 
ATOM      3  O   UNL     1       1.365   4.615  17.541  0.00  0.00    +0.000 OA
ATOM      4  N   UNL     1       3.597   4.461  17.059  0.00  0.00    +0.000 N 
ATOM      5  C   UNL     1       4.815   5.154  17.457  0.00  0.00    +0.000 C 
ATOM      6  C   UNL     1       4.998   6.404  16.565  0.00  0.00    +0.000 C 
ATOM      7  C   UNL     1       6.088   7.384  17.003  0.00  0.00    +0.000 C 
ATOM      8  C   UNL     1       7.501   6.806  17.114  0.00  0.00    +0.000 C 
ATOM      9  C   UNL     1       7.734   5.899  18.316  0.00  0.00    +0.000 C 
ATOM     10  C   UNL     1       7.216   4.466  18.208  0.00  0.00    +0.000 C 
ATOM     11  C   UNL     1       5.998   4.199  17.340  0.00  0.00    +0.000 C 
ATOM     12  C   UNL     1       4.357   5.630  18.859  0.00  0.00    +0.000 C 
ATOM     13  O   UNL     1       5.040   6.220  19.683  0.00  0.00    +0.000 OA
ATOM     14  H   UNL     1       3.420   4.077  16.139  0.00  0.00    +0.000 HD
ENDROOT
BRANCH   1  15
ATOM     15  C   UNL     1       2.172   6.451  19.663  0.00  0.00    +0.000 C 
BRANCH  15  17
ATOM     16  N   UNL     1       1.168   8.758  19.898  0.00  0.00    +0.000 N 
ATOM     17  C   UNL     1       1.879   7.843  19.065  0.00  0.00    +0.000 C 
ATOM     18  O   UNL     1       2.183   8.091  17.902  0.00  0.00    +0.000 OA
BRANCH  16  20
ATOM     19  C   UNL     1       1.853  10.992  18.745  0.00  0.00    +0.000 C 
ATOM     20  C   UNL     1       0.773  10.117  19.402  0.00  0.00    +0.000 C 
ATOM     21  C   UNL     1      -0.438  10.069  18.460  0.00  0.00    +0.000 C 
ENDBRANCH  16  20
BRANCH  16  22
ATOM     22  C   UNL     1       0.859   8.418  21.318  0.00  0.00    +0.000 C 
ATOM     23  C   UNL     1       1.655   9.308  22.282  0.00  0.00    +0.000 C 
ATOM     24  C   UNL     1      -0.616   8.422  21.716  0.00  0.00    +0.000 C 
ENDBRANCH  16  22
ENDBRANCH  15  17
ENDBRANCH   1  15
TORSDOF 4
ENDMDL
MODEL 8
REMARK VINA RESULT:      -6.1      1.974      3.172
REMARK  Name = 
REMARK  8 active torsions:
REMARK  status: ('A' for Active; 'I' for Inactive)
REMARK    1  A    between atoms: C_1  and  C_2
REMARK    2  A    between atoms: C_2  and  C_3
REMARK    3  A    between atoms: C_2  and  N_4
REMARK    4  A    between atoms: N_4  and  C_21
REMARK    5  A    between atoms: C_5  and  C_7
REMARK    6  A    between atoms: C_7  and  N_8
REMARK    7  A    between atoms: C_21  and  C_22
REMARK    8  A    between atoms: C_21  and  C_23
REMARK                            x       y       z     vdW  Elec       q    Type
REMARK                         _______ _______ _______ _____ _____    ______ ____
ROOT
ATOM      1  N   UNL     1       1.846   8.308  18.985  0.00  0.00    +0.000 N 
ATOM      2  C   UNL     1       1.619   7.958  20.278  0.00  0.00    +0.000 C 
ATOM      3  O   UNL     1       0.864   8.487  21.078  0.00  0.00    +0.000 OA
ATOM      4  N   UNL     1       2.318   6.800  20.553  0.00  0.00    +0.000 N 
ATOM      5  C   UNL     1       2.820   6.176  19.335  0.00  0.00    +0.000 C 
ATOM      6  C   UNL     1       1.827   5.079  18.885  0.00  0.00    +0.000 C 
ATOM      7  C   UNL     1       2.067   4.491  17.493  0.00  0.00    +0.000 C 
ATOM      8  C   UNL     1       3.440   3.857  17.263  0.00  0.00    +0.000 C 
ATOM      9  C   UNL     1       4.592   4.846  17.122  0.00  0.00    +0.000 C 
ATOM     10  C   UNL     1       5.146   5.445  18.412  0.00  0.00    +0.000 C 
ATOM     11  C   UNL     1       4.209   5.608  19.597  0.00  0.00    +0.000 C 
ATOM     12  C   UNL     1       2.660   7.387  18.380  0.00  0.00    +0.000 C 
ATOM     13  O   UNL     1       3.008   7.436  17.209  0.00  0.00    +0.000 OA
ATOM     14  H   UNL     1       2.147   6.316  21.425  0.00  0.00    +0.000 HD
ENDROOT
BRANCH   1  15
ATOM     15  C   UNL     1       0.906   9.117  18.227  0.00  0.00    +0.000 C 
BRANCH  15  17
ATOM     16  N   UNL     1      -0.779  10.998  18.294  0.00  0.00    +0.000 N 
ATOM     17  C   UNL     1       0.478  10.504  18.752  0.00  0.00    +0.000 C 
ATOM     18  O   UNL     1       1.239  11.156  19.461  0.00  0.00    +0.000 OA
BRANCH  16  20
ATOM     19  C   UNL     1      -1.637  12.601  20.161  0.00  0.00    +0.000 C 
ATOM     20  C   UNL     1      -1.270  12.360  18.688  0.00  0.00    +0.000 C 
ATOM     21  C   UNL     1      -0.317  13.479  18.245  0.00  0.00    +0.000 C 
ENDBRANCH  16  20
BRANCH  16  22
ATOM     22  C   UNL     1      -1.681  10.145  17.465  0.00  0.00    +0.000 C 
ATOM     23  C   UNL     1      -2.834   9.584  18.308  0.00  0.00    +0.000 C 
ATOM     24  C   UNL     1      -2.238  10.777  16.190  0.00  0.00    +0.000 C 
ENDBRANCH  16  22
ENDBRANCH  15  17
ENDBRANCH   1  15
TORSDOF 4
ENDMDL
MODEL 9
REMARK VINA RESULT:      -6.1      5.934     10.059
REMARK  Name = 
REMARK  8 active torsions:
REMARK  status: ('A' for Active; 'I' for Inactive)
REMARK    1  A    between atoms: C_1  and  C_2
REMARK    2  A    between atoms: C_2  and  C_3
REMARK    3  A    between atoms: C_2  and  N_4
REMARK    4  A    between atoms: N_4  and  C_21
REMARK    5  A    between atoms: C_5  and  C_7
REMARK    6  A    between atoms: C_7  and  N_8
REMARK    7  A    between atoms: C_21  and  C_22
REMARK    8  A    between atoms: C_21  and  C_23
REMARK                            x       y       z     vdW  Elec       q    Type
REMARK                         _______ _______ _______ _____ _____    ______ ____
ROOT
ATOM      1  N   UNL     1      -3.721  11.685  17.969  0.00  0.00    +0.000 N 
ATOM      2  C   UNL     1      -4.252  11.420  16.747  0.00  0.00    +0.000 C 
ATOM      3  O   UNL     1      -3.682  10.988  15.758  0.00  0.00    +0.000 OA
ATOM      4  N   UNL     1      -5.617  11.619  16.804  0.00  0.00    +0.000 N 
ATOM      5  C   UNL     1      -6.080  11.755  18.179  0.00  0.00    +0.000 C 
ATOM      6  C   UNL     1      -6.591  10.382  18.676  0.00  0.00    +0.000 C 
ATOM      7  C   UNL     1      -6.885  10.282  20.175  0.00  0.00    +0.000 C 
ATOM      8  C   UNL     1      -7.912  11.273  20.723  0.00  0.00    +0.000 C 
ATOM      9  C   UNL     1      -7.421  12.711  20.843  0.00  0.00    +0.000 C 
ATOM     10  C   UNL     1      -7.389  13.538  19.560  0.00  0.00    +0.000 C 
ATOM     11  C   UNL     1      -7.170  12.819  18.239  0.00  0.00    +0.000 C 
ATOM     12  C   UNL     1      -4.712  12.028  18.853  0.00  0.00    +0.000 C 
ATOM     13  O   UNL     1      -4.524  12.292  20.032  0.00  0.00    +0.000 OA
ATOM     14  H   UNL     1      -6.191  11.325  16.024  0.00  0.00    +0.000 HD
ENDROOT
BRANCH   1  15
ATOM     15  C   UNL     1      -2.468  11.097  18.411  0.00  0.00    +0.000 C 
BRANCH  15  17
ATOM     16  N   UNL     1      -0.402  11.790  19.691  0.00  0.00    +0.000 N 
ATOM     17  C   UNL     1      -1.199  11.969  18.521  0.00  0.00    +0.000 C 
ATOM     18  O   UNL     1      -0.961  12.821  17.670  0.00  0.00    +0.000 OA
BRANCH  16  20
ATOM     19  C   UNL     1       1.954  12.573  18.900  0.00  0.00    +0.000 C 
ATOM     20  C   UNL     1       0.819  12.625  19.936  0.00  0.00    +0.000 C 
ATOM     21  C   UNL     1       0.480  14.100  20.196  0.00  0.00    +0.000 C 
ENDBRANCH  16  20
BRANCH  16  22
ATOM     22  C   UNL     1      -0.717  10.711  20.674  0.00  0.00    +0.000 C 
ATOM     23  C   UNL     1       0.219   9.509  20.490  0.00  0.00    +0.000 C 
ATOM     24  C   UNL     1      -0.748  11.117  22.146  0.00  0.00    +0.000 C 
ENDBRANCH  16  22
ENDBRANCH  15  17
ENDBRANCH   1  15
TORSDOF 4
ENDMDL
