MODEL 1
REMARK VINA RESULT:      -6.4      0.000      0.000
REMARK  Name = 
REMARK  8 active torsions:
REMARK  status: ('A' for Active; 'I' for Inactive)
REMARK    1  A    between atoms: C_1  and  C_2
REMARK    2  A    between atoms: C_2  and  N_3
REMARK    3  A    between atoms: C_7  and  C_8
REMARK    4  A    between atoms: C_8  and  N_9
REMARK    5  A    between atoms: C_10  and  C_12
REMARK    6  A    between atoms: C_13  and  O_14
REMARK    7  A    between atoms: C_20  and  O_21
REMARK    8  A    between atoms: O_21  and  C_22
REMARK                            x       y       z     vdW  Elec       q    Type
REMARK                         _______ _______ _______ _____ _____    ______ ____
ROOT
ATOM      1  N   UNL     1       4.448   6.419  17.327  0.00  0.00    +0.000 N 
ATOM      2  C   UNL     1       3.660   5.306  17.537  0.00  0.00    +0.000 C 
ATOM      3  O   UNL     1       3.677   4.333  16.803  0.00  0.00    +0.000 OA
ATOM      4  H   UNL     1       4.458   7.198  17.979  0.00  0.00    +0.000 HD
ENDROOT
BRANCH   2   5
ATOM      5  C   UNL     1       2.724   5.383  18.685  0.00  0.00    +0.000 A 
ATOM      6  C   UNL     1       2.362   4.181  19.335  0.00  0.00    +0.000 A 
ATOM      7  C   UNL     1       1.609   4.212  20.515  0.00  0.00    +0.000 A 
ATOM      8 CL   UNL     1       1.194   2.762  21.358  0.00  0.00    +0.000 Cl
ATOM      9  C   UNL     1       1.223   5.428  21.066  0.00  0.00    +0.000 A 
ATOM     10  C   UNL     1       1.572   6.617  20.424  0.00  0.00    +0.000 A 
ATOM     11 CL   UNL     1       1.066   8.095  21.175  0.00  0.00    +0.000 Cl
ATOM     12  C   UNL     1       2.308   6.618  19.223  0.00  0.00    +0.000 A 
BRANCH   6  13
ATOM     13  O   UNL     1       2.765   2.946  18.880  0.00  0.00    +0.000 OA
ATOM     14  H   UNL     1       3.739   2.878  18.923  0.00  0.00    +0.000 HD
ENDBRANCH   6  13
BRANCH  12  15
ATOM     15  O   UNL     1       2.661   7.854  18.743  0.00  0.00    +0.000 OA
ATOM     16  C   UNL     1       1.762   8.472  17.828  0.00  0.00    +0.000 C 
ENDBRANCH  12  15
ENDBRANCH   2   5
BRANCH   1  17
ATOM     17  C   UNL     1       5.366   6.527  16.196  0.00  0.00    +0.000 C 
BRANCH  17  22
ATOM     18  N   UNL     1       7.078   6.645  18.020  0.00  0.00    +0.000 NA
ATOM     19  C   UNL     1       7.288   5.359  18.715  0.00  0.00    +0.000 C 
ATOM     20  C   UNL     1       7.955   4.459  17.698  0.00  0.00    +0.000 C 
ATOM     21  C   UNL     1       7.280   4.840  16.397  0.00  0.00    +0.000 C 
ATOM     22  C   UNL     1       6.843   6.300  16.589  0.00  0.00    +0.000 C 
BRANCH  18  24
ATOM     23  C   UNL     1       8.041   8.968  17.834  0.00  0.00    +0.000 C 
ATOM     24  C   UNL     1       8.269   7.505  18.198  0.00  0.00    +0.000 C 
ENDBRANCH  18  24
ENDBRANCH  17  22
ENDBRANCH   1  17
TORSDOF 6
ENDMDL
MODEL 2
REMARK VINA RESULT:      -6.4      3.101      6.177
REMARK  Name = 
REMARK  8 active torsions:
REMARK  status: ('A' for Active; 'I' for Inactive)
REMARK    1  A    between atoms: C_1  and  C_2
REMARK    2  A    between atoms: C_2  and  N_3
REMARK    3  A    between atoms: C_7  and  C_8
REMARK    4  A    between atoms: C_8  and  N_9
REMARK    5  A    between atoms: C_10  and  C_12
REMARK    6  A    between atoms: C_13  and  O_14
REMARK    7  A    between atoms: C_20  and  O_21
REMARK    8  A    between atoms: O_21  and  C_22
REMARK                            x       y       z     vdW  Elec       q    Type
REMARK                         _______ _______ _______ _____ _____    ______ ____
ROOT
ATOM      1  N   UNL     1       2.241   8.011  17.832  0.00  0.00    +0.000 N 
ATOM      2  C   UNL     1       2.491   7.112  18.848  0.00  0.00    +0.000 C 
ATOM      3  O   UNL     1       2.392   7.399  20.029  0.00  0.00    +0.000 OA
ATOM      4  H   UNL     1       2.278   7.738  16.855  0.00  0.00    +0.000 HD
ENDROOT
BRANCH   2   5
ATOM      5  C   UNL     1       2.962   5.771  18.424  0.00  0.00    +0.000 A 
ATOM      6  C   UNL     1       2.308   4.634  18.951  0.00  0.00    +0.000 A 
ATOM      7  C   UNL     1       2.608   3.355  18.467  0.00  0.00    +0.000 A 
ATOM      8 CL   UNL     1       1.790   1.953  19.056  0.00  0.00    +0.000 Cl
ATOM      9  C   UNL     1       3.543   3.195  17.451  0.00  0.00    +0.000 A 
ATOM     10  C   UNL     1       4.197   4.313  16.932  0.00  0.00    +0.000 A 
ATOM     11 CL   UNL     1       5.341   4.038  15.660  0.00  0.00    +0.000 Cl
ATOM     12  C   UNL     1       3.934   5.610  17.415  0.00  0.00    +0.000 A 
BRANCH   6  13
ATOM     13  O   UNL     1       1.327   4.727  19.911  0.00  0.00    +0.000 OA
ATOM     14  H   UNL     1       1.512   4.099  20.636  0.00  0.00    +0.000 HD
ENDBRANCH   6  13
BRANCH  12  15
ATOM     15  O   UNL     1       4.577   6.630  16.761  0.00  0.00    +0.000 OA
ATOM     16  C   UNL     1       5.859   7.007  17.254  0.00  0.00    +0.000 C 
ENDBRANCH  12  15
ENDBRANCH   2   5
BRANCH   1  17
ATOM     17  C   UNL     1       1.842   9.393  18.090  0.00  0.00    +0.000 C 
BRANCH  17  22
ATOM     18  N   UNL     1       0.566  10.340  20.024  0.00  0.00    +0.000 NA
ATOM     19  C   UNL     1      -0.125  11.607  19.711  0.00  0.00    +0.000 C 
ATOM     20  C   UNL     1      -1.227  11.234  18.743  0.00  0.00    +0.000 C 
ATOM     21  C   UNL     1      -0.592  10.156  17.889  0.00  0.00    +0.000 C 
ATOM     22  C   UNL     1       0.470   9.509  18.790  0.00  0.00    +0.000 C 
BRANCH  18  24
ATOM     23  C   UNL     1      -0.390  10.641  22.338  0.00  0.00    +0.000 C 
ATOM     24  C   UNL     1      -0.088   9.692  21.183  0.00  0.00    +0.000 C 
ENDBRANCH  18  24
ENDBRANCH  17  22
ENDBRANCH   1  17
TORSDOF 6
ENDMDL
MODEL 3
REMARK VINA RESULT:      -6.3      3.211      6.546
REMARK  Name = 
REMARK  8 active torsions:
REMARK  status: ('A' for Active; 'I' for Inactive)
REMARK    1  A    between atoms: C_1  and  C_2
REMARK    2  A    between atoms: C_2  and  N_3
REMARK    3  A    between atoms: C_7  and  C_8
REMARK    4  A    between atoms: C_8  and  N_9
REMARK    5  A    between atoms: C_10  and  C_12
REMARK    6  A    between atoms: C_13  and  O_14
REMARK    7  A    between atoms: C_20  and  O_21
REMARK    8  A    between atoms: O_21  and  C_22
REMARK                            x       y       z     vdW  Elec       q    Type
REMARK                         _______ _______ _______ _____ _____    ______ ____
ROOT
ATOM      1  N   UNL     1       2.091   8.193  17.860  0.00  0.00    +0.000 N 
ATOM      2  C   UNL     1       2.504   7.187  18.708  0.00  0.00    +0.000 C 
ATOM      3  O   UNL     1       2.555   7.318  19.920  0.00  0.00    +0.000 OA
ATOM      4  H   UNL     1       2.006   8.047  16.859  0.00  0.00    +0.000 HD
ENDROOT
BRANCH   2   5
ATOM      5  C   UNL     1       2.957   5.935  18.056  0.00  0.00    +0.000 A 
ATOM      6  C   UNL     1       4.166   5.961  17.323  0.00  0.00    +0.000 A 
ATOM      7  C   UNL     1       4.717   4.776  16.821  0.00  0.00    +0.000 A 
ATOM      8 CL   UNL     1       6.216   4.771  15.964  0.00  0.00    +0.000 Cl
ATOM      9  C   UNL     1       4.086   3.559  17.053  0.00  0.00    +0.000 A 
ATOM     10  C   UNL     1       2.890   3.528  17.770  0.00  0.00    +0.000 A 
ATOM     11 CL   UNL     1       2.167   1.975  18.030  0.00  0.00    +0.000 Cl
ATOM     12  C   UNL     1       2.298   4.706  18.267  0.00  0.00    +0.000 A 
BRANCH   6  13
ATOM     13  O   UNL     1       4.875   7.121  17.112  0.00  0.00    +0.000 OA
ATOM     14  H   UNL     1       5.518   6.989  16.388  0.00  0.00    +0.000 HD
ENDBRANCH   6  13
BRANCH  12  15
ATOM     15  O   UNL     1       1.171   4.530  19.030  0.00  0.00    +0.000 OA
ATOM     16  C   UNL     1       1.365   4.180  20.397  0.00  0.00    +0.000 C 
ENDBRANCH  12  15
ENDBRANCH   2   5
BRANCH   1  17
ATOM     17  C   UNL     1       1.685   9.510  18.345  0.00  0.00    +0.000 C 
BRANCH  17  22
ATOM     18  N   UNL     1       0.485   9.923  20.503  0.00  0.00    +0.000 NA
ATOM     19  C   UNL     1      -0.129  11.263  20.589  0.00  0.00    +0.000 C 
ATOM     20  C   UNL     1      -1.259  11.251  19.583  0.00  0.00    +0.000 C 
ATOM     21  C   UNL     1      -0.699  10.434  18.437  0.00  0.00    +0.000 C 
ATOM     22  C   UNL     1       0.329   9.494  19.084  0.00  0.00    +0.000 C 
BRANCH  18  24
ATOM     23  C   UNL     1      -0.197   9.479  22.889  0.00  0.00    +0.000 C 
ATOM     24  C   UNL     1      -0.197   9.004  21.441  0.00  0.00    +0.000 C 
ENDBRANCH  18  24
ENDBRANCH  17  22
ENDBRANCH   1  17
TORSDOF 6
ENDMDL
MODEL 4
REMARK VINA RESULT:      -6.1      1.673      2.755
REMARK  Name = 
REMARK  8 active torsions:
REMARK  status: ('A' for Active; 'I' for Inactive)
REMARK    1  A    between atoms: C_1  and  C_2
REMARK    2  A    between atoms: C_2  and  N_3
REMARK    3  A    between atoms: C_7  and  C_8
REMARK    4  A    between atoms: C_8  and  N_9
REMARK    5  A    between atoms: C_10  and  C_12
REMARK    6  A    between atoms: C_13  and  O_14
REMARK    7  A    between atoms: C_20  and  O_21
REMARK    8  A    between atoms: O_21  and  C_22
REMARK                            x       y       z     vdW  Elec       q    Type
REMARK                         _______ _______ _______ _____ _____    ______ ____
ROOT
ATOM      1  N   UNL     1       5.841   4.713  18.494  0.00  0.00    +0.000 N 
ATOM      2  C   UNL     1       4.688   3.983  18.302  0.00  0.00    +0.000 C 
ATOM      3  O   UNL     1       4.579   3.126  17.440  0.00  0.00    +0.000 OA
ATOM      4  H   UNL     1       5.929   5.385  19.251  0.00  0.00    +0.000 HD
ENDROOT
BRANCH   2   5
ATOM      5  C   UNL     1       3.540   4.345  19.168  0.00  0.00    +0.000 A 
ATOM      6  C   UNL     1       2.954   3.333  19.962  0.00  0.00    +0.000 A 
ATOM      7  C   UNL     1       1.974   3.652  20.909  0.00  0.00    +0.000 A 
ATOM      8 CL   UNL     1       1.276   2.444  21.927  0.00  0.00    +0.000 Cl
ATOM      9  C   UNL     1       1.579   4.973  21.088  0.00  0.00    +0.000 A 
ATOM     10  C   UNL     1       2.149   5.975  20.302  0.00  0.00    +0.000 A 
ATOM     11 CL   UNL     1       1.617   7.600  20.588  0.00  0.00    +0.000 Cl
ATOM     12  C   UNL     1       3.120   5.682  19.325  0.00  0.00    +0.000 A 
BRANCH   6  13
ATOM     13  O   UNL     1       3.343   2.015  19.883  0.00  0.00    +0.000 OA
ATOM     14  H   UNL     1       2.943   1.598  19.095  0.00  0.00    +0.000 HD
ENDBRANCH   6  13
BRANCH  12  15
ATOM     15  O   UNL     1       3.665   6.766  18.683  0.00  0.00    +0.000 OA
ATOM     16  C   UNL     1       2.823   7.468  17.772  0.00  0.00    +0.000 C 
ENDBRANCH  12  15
ENDBRANCH   2   5
BRANCH   1  17
ATOM     17  C   UNL     1       7.034   4.527  17.672  0.00  0.00    +0.000 C 
BRANCH  17  22
ATOM     18  N   UNL     1       6.463   4.632  15.236  0.00  0.00    +0.000 NA
ATOM     19  C   UNL     1       5.144   5.240  14.966  0.00  0.00    +0.000 C 
ATOM     20  C   UNL     1       5.294   6.701  15.331  0.00  0.00    +0.000 C 
ATOM     21  C   UNL     1       6.194   6.667  16.548  0.00  0.00    +0.000 C 
ATOM     22  C   UNL     1       7.029   5.389  16.389  0.00  0.00    +0.000 C 
BRANCH  18  24
ATOM     23  C   UNL     1       6.738   4.042  12.801  0.00  0.00    +0.000 C 
ATOM     24  C   UNL     1       7.313   4.737  14.030  0.00  0.00    +0.000 C 
ENDBRANCH  18  24
ENDBRANCH  17  22
ENDBRANCH   1  17
TORSDOF 6
ENDMDL
MODEL 5
REMARK VINA RESULT:      -6.1      3.751      5.410
REMARK  Name = 
REMARK  8 active torsions:
REMARK  status: ('A' for Active; 'I' for Inactive)
REMARK    1  A    between atoms: C_1  and  C_2
REMARK    2  A    between atoms: C_2  and  N_3
REMARK    3  A    between atoms: C_7  and  C_8
REMARK    4  A    between atoms: C_8  and  N_9
REMARK    5  A    between atoms: C_10  and  C_12
REMARK    6  A    between atoms: C_13  and  O_14
REMARK    7  A    between atoms: C_20  and  O_21
REMARK    8  A    between atoms: O_21  and  C_22
REMARK                            x       y       z     vdW  Elec       q    Type
REMARK                         _______ _______ _______ _____ _____    ______ ____
ROOT
ATOM      1  N   UNL     1       2.126   7.624  19.001  0.00  0.00    +0.000 N 
ATOM      2  C   UNL     1       1.737   8.932  18.802  0.00  0.00    +0.000 C 
ATOM      3  O   UNL     1       2.197   9.635  17.918  0.00  0.00    +0.000 OA
ATOM      4  H   UNL     1       1.694   7.039  19.709  0.00  0.00    +0.000 HD
ENDROOT
BRANCH   2   5
ATOM      5  C   UNL     1       0.763   9.473  19.780  0.00  0.00    +0.000 A 
ATOM      6  C   UNL     1       0.936   9.154  21.146  0.00  0.00    +0.000 A 
ATOM      7  C   UNL     1       0.141   9.763  22.124  0.00  0.00    +0.000 A 
ATOM      8 CL   UNL     1       0.363   9.429  23.804  0.00  0.00    +0.000 Cl
ATOM      9  C   UNL     1      -0.818  10.700  21.760  0.00  0.00    +0.000 A 
ATOM     10  C   UNL     1      -0.999  11.015  20.412  0.00  0.00    +0.000 A 
ATOM     11 CL   UNL     1      -2.205  12.200  20.033  0.00  0.00    +0.000 Cl
ATOM     12  C   UNL     1      -0.231  10.401  19.403  0.00  0.00    +0.000 A 
BRANCH   6  13
ATOM     13  O   UNL     1       1.909   8.284  21.582  0.00  0.00    +0.000 OA
ATOM     14  H   UNL     1       2.375   7.896  20.816  0.00  0.00    +0.000 HD
ENDBRANCH   6  13
BRANCH  12  15
ATOM     15  O   UNL     1      -0.445  10.862  18.129  0.00  0.00    +0.000 OA
ATOM     16  C   UNL     1      -1.405  10.163  17.342  0.00  0.00    +0.000 C 
ENDBRANCH  12  15
ENDBRANCH   2   5
BRANCH   1  17
ATOM     17  C   UNL     1       3.133   6.971  18.168  0.00  0.00    +0.000 C 
BRANCH  17  22
ATOM     18  N   UNL     1       2.138   4.910  19.184  0.00  0.00    +0.000 NA
ATOM     19  C   UNL     1       1.536   3.996  18.192  0.00  0.00    +0.000 C 
ATOM     20  C   UNL     1       2.701   3.441  17.401  0.00  0.00    +0.000 C 
ATOM     21  C   UNL     1       3.643   4.622  17.291  0.00  0.00    +0.000 C 
ATOM     22  C   UNL     1       3.347   5.483  18.526  0.00  0.00    +0.000 C 
BRANCH  18  24
ATOM     23  C   UNL     1       1.359   3.247  20.912  0.00  0.00    +0.000 C 
ATOM     24  C   UNL     1       2.476   4.157  20.412  0.00  0.00    +0.000 C 
ENDBRANCH  18  24
ENDBRANCH  17  22
ENDBRANCH   1  17
TORSDOF 6
ENDMDL
MODEL 6
REMARK VINA RESULT:      -6.0      3.064      4.648
REMARK  Name = 
REMARK  8 active torsions:
REMARK  status: ('A' for Active; 'I' for Inactive)
REMARK    1  A    between atoms: C_1  and  C_2
REMARK    2  A    between atoms: C_2  and  N_3
REMARK    3  A    between atoms: C_7  and  C_8
REMARK    4  A    between atoms: C_8  and  N_9
REMARK    5  A    between atoms: C_10  and  C_12
REMARK    6  A    between atoms: C_13  and  O_14
REMARK    7  A    between atoms: C_20  and  O_21
REMARK    8  A    between atoms: O_21  and  C_22
REMARK                            x       y       z     vdW  Elec       q    Type
REMARK                         _______ _______ _______ _____ _____    ______ ____
ROOT
ATOM      1  N   UNL     1       5.248   4.247  16.225  0.00  0.00    +0.000 N 
ATOM      2  C   UNL     1       5.612   4.493  17.532  0.00  0.00    +0.000 C 
ATOM      3  O   UNL     1       6.734   4.277  17.961  0.00  0.00    +0.000 OA
ATOM      4  H   UNL     1       4.325   4.483  15.874  0.00  0.00    +0.000 HD
ENDROOT
BRANCH   2   5
ATOM      5  C   UNL     1       4.532   4.978  18.425  0.00  0.00    +0.000 A 
ATOM      6  C   UNL     1       3.956   6.241  18.155  0.00  0.00    +0.000 A 
ATOM      7  C   UNL     1       2.833   6.675  18.868  0.00  0.00    +0.000 A 
ATOM      8 CL   UNL     1       2.078   8.190  18.527  0.00  0.00    +0.000 Cl
ATOM      9  C   UNL     1       2.264   5.860  19.840  0.00  0.00    +0.000 A 
ATOM     10  C   UNL     1       2.833   4.615  20.115  0.00  0.00    +0.000 A 
ATOM     11 CL   UNL     1       2.063   3.648  21.330  0.00  0.00    +0.000 Cl
ATOM     12  C   UNL     1       3.977   4.161  19.431  0.00  0.00    +0.000 A 
BRANCH   6  13
ATOM     13  O   UNL     1       4.429   7.070  17.164  0.00  0.00    +0.000 OA
ATOM     14  H   UNL     1       5.289   6.741  16.838  0.00  0.00    +0.000 HD
ENDBRANCH   6  13
BRANCH  12  15
ATOM     15  O   UNL     1       4.383   2.885  19.733  0.00  0.00    +0.000 OA
ATOM     16  C   UNL     1       3.791   1.825  18.988  0.00  0.00    +0.000 C 
ENDBRANCH  12  15
ENDBRANCH   2   5
BRANCH   1  17
ATOM     17  C   UNL     1       6.179   3.697  15.242  0.00  0.00    +0.000 C 
BRANCH  17  22
ATOM     18  N   UNL     1       6.981   3.729  12.870  0.00  0.00    +0.000 NA
ATOM     19  C   UNL     1       6.290   2.753  12.002  0.00  0.00    +0.000 C 
ATOM     20  C   UNL     1       4.872   3.265  11.875  0.00  0.00    +0.000 C 
ATOM     21  C   UNL     1       4.577   3.825  13.251  0.00  0.00    +0.000 C 
ATOM     22  C   UNL     1       5.944   4.237  13.814  0.00  0.00    +0.000 C 
BRANCH  18  24
ATOM     23  C   UNL     1       8.398   5.813  12.822  0.00  0.00    +0.000 C 
ATOM     24  C   UNL     1       7.558   4.809  12.041  0.00  0.00    +0.000 C 
ENDBRANCH  18  24
ENDBRANCH  17  22
ENDBRANCH   1  17
TORSDOF 6
ENDMDL
MODEL 7
REMARK VINA RESULT:      -6.0      3.876      6.222
REMARK  Name = 
REMARK  8 active torsions:
REMARK  status: ('A' for Active; 'I' for Inactive)
REMARK    1  A    between atoms: C_1  and  C_2
REMARK    2  A    between atoms: C_2  and  N_3
REMARK    3  A    between atoms: C_7  and  C_8
REMARK    4  A    between atoms: C_8  and  N_9
REMARK    5  A    between atoms: C_10  and  C_12
REMARK    6  A    between atoms: C_13  and  O_14
REMARK    7  A    between atoms: C_20  and  O_21
REMARK    8  A    between atoms: O_21  and  C_22
REMARK                            x       y       z     vdW  Elec       q    Type
REMARK                         _______ _______ _______ _____ _____    ______ ____
ROOT
ATOM      1  N   UNL     1       2.149   8.089  19.138  0.00  0.00    +0.000 N 
ATOM      2  C   UNL     1       1.766   9.188  18.399  0.00  0.00    +0.000 C 
ATOM      3  O   UNL     1       1.785   9.209  17.180  0.00  0.00    +0.000 OA
ATOM      4  H   UNL     1       2.076   8.073  20.151  0.00  0.00    +0.000 HD
ENDROOT
BRANCH   2   5
ATOM      5  C   UNL     1       1.388  10.392  19.178  0.00  0.00    +0.000 A 
ATOM      6  C   UNL     1       1.720  11.662  18.651  0.00  0.00    +0.000 A 
ATOM      7  C   UNL     1       1.251  12.829  19.266  0.00  0.00    +0.000 A 
ATOM      8 CL   UNL     1       1.599  14.392  18.618  0.00  0.00    +0.000 Cl
ATOM      9  C   UNL     1       0.441  12.748  20.392  0.00  0.00    +0.000 A 
ATOM     10  C   UNL     1       0.116  11.498  20.920  0.00  0.00    +0.000 A 
ATOM     11 CL   UNL     1      -0.908  11.474  22.318  0.00  0.00    +0.000 Cl
ATOM     12  C   UNL     1       0.592  10.307  20.339  0.00  0.00    +0.000 A 
BRANCH   6  13
ATOM     13  O   UNL     1       2.463  11.813  17.504  0.00  0.00    +0.000 OA
ATOM     14  H   UNL     1       2.482  10.971  17.008  0.00  0.00    +0.000 HD
ENDBRANCH   6  13
BRANCH  12  15
ATOM     15  O   UNL     1       0.128   9.144  20.900  0.00  0.00    +0.000 OA
ATOM     16  C   UNL     1       0.831   8.650  22.036  0.00  0.00    +0.000 C 
ENDBRANCH  12  15
ENDBRANCH   2   5
BRANCH   1  17
ATOM     17  C   UNL     1       2.618   6.852  18.518  0.00  0.00    +0.000 C 
BRANCH  17  22
ATOM     18  N   UNL     1       2.352   4.635  19.650  0.00  0.00    +0.000 NA
ATOM     19  C   UNL     1       3.105   3.546  18.997  0.00  0.00    +0.000 C 
ATOM     20  C   UNL     1       4.564   3.865  19.243  0.00  0.00    +0.000 C 
ATOM     21  C   UNL     1       4.614   5.375  19.135  0.00  0.00    +0.000 C 
ATOM     22  C   UNL     1       3.209   5.849  19.533  0.00  0.00    +0.000 C 
BRANCH  18  24
ATOM     23  C   UNL     1       1.380   2.936  21.239  0.00  0.00    +0.000 C 
ATOM     24  C   UNL     1       2.083   4.276  21.061  0.00  0.00    +0.000 C 
ENDBRANCH  18  24
ENDBRANCH  17  22
ENDBRANCH   1  17
TORSDOF 6
ENDMDL
MODEL 8
REMARK VINA RESULT:      -6.0      3.411      6.909
REMARK  Name = 
REMARK  8 active torsions:
REMARK  status: ('A' for Active; 'I' for Inactive)
REMARK    1  A    between atoms: C_1  and  C_2
REMARK    2  A    between atoms: C_2  and  N_3
REMARK    3  A    between atoms: C_7  and  C_8
REMARK    4  A    between atoms: C_8  and  N_9
REMARK    5  A    between atoms: C_10  and  C_12
REMARK    6  A    between atoms: C_13  and  O_14
REMARK    7  A    between atoms: C_20  and  O_21
REMARK    8  A    between atoms: O_21  and  C_22
REMARK                            x       y       z     vdW  Elec       q    Type
REMARK                         _______ _______ _______ _____ _____    ______ ____
ROOT
ATOM      1  N   UNL     1       1.885   8.179  18.539  0.00  0.00    +0.000 N 
ATOM      2  C   UNL     1       2.272   7.018  19.173  0.00  0.00    +0.000 C 
ATOM      3  O   UNL     1       2.230   6.876  20.384  0.00  0.00    +0.000 OA
ATOM      4  H   UNL     1       1.877   8.259  17.526  0.00  0.00    +0.000 HD
ENDROOT
BRANCH   2   5
ATOM      5  C   UNL     1       2.817   5.953  18.297  0.00  0.00    +0.000 A 
ATOM      6  C   UNL     1       3.977   6.236  17.540  0.00  0.00    +0.000 A 
ATOM      7  C   UNL     1       4.620   5.222  16.821  0.00  0.00    +0.000 A 
ATOM      8 CL   UNL     1       6.065   5.528  15.926  0.00  0.00    +0.000 Cl
ATOM      9  C   UNL     1       4.132   3.922  16.858  0.00  0.00    +0.000 A 
ATOM     10  C   UNL     1       2.983   3.637  17.599  0.00  0.00    +0.000 A 
ATOM     11 CL   UNL     1       2.439   1.992  17.609  0.00  0.00    +0.000 Cl
ATOM     12  C   UNL     1       2.300   4.640  18.313  0.00  0.00    +0.000 A 
BRANCH   6  13
ATOM     13  O   UNL     1       4.550   7.486  17.511  0.00  0.00    +0.000 OA
ATOM     14  H   UNL     1       5.364   7.491  18.051  0.00  0.00    +0.000 HD
ENDBRANCH   6  13
BRANCH  12  15
ATOM     15  O   UNL     1       1.239   4.214  19.071  0.00  0.00    +0.000 OA
ATOM     16  C   UNL     1       1.541   3.626  20.333  0.00  0.00    +0.000 C 
ENDBRANCH  12  15
ENDBRANCH   2   5
BRANCH   1  17
ATOM     17  C   UNL     1       1.396   9.346  19.270  0.00  0.00    +0.000 C 
BRANCH  17  22
ATOM     18  N   UNL     1      -0.900  10.098  18.613  0.00  0.00    +0.000 NA
ATOM     19  C   UNL     1      -1.368  11.283  19.360  0.00  0.00    +0.000 C 
ATOM     20  C   UNL     1      -0.500  12.426  18.880  0.00  0.00    +0.000 C 
ATOM     21  C   UNL     1       0.858  11.781  18.696  0.00  0.00    +0.000 C 
ATOM     22  C   UNL     1       0.560  10.306  18.394  0.00  0.00    +0.000 C 
BRANCH  18  24
ATOM     23  C   UNL     1      -3.142   9.761  17.511  0.00  0.00    +0.000 C 
ATOM     24  C   UNL     1      -1.644   9.988  17.339  0.00  0.00    +0.000 C 
ENDBRANCH  18  24
ENDBRANCH  17  22
ENDBRANCH   1  17
TORSDOF 6
ENDMDL
MODEL 9
REMARK VINA RESULT:      -6.0      1.939      4.073
REMARK  Name = 
REMARK  8 active torsions:
REMARK  status: ('A' for Active; 'I' for Inactive)
REMARK    1  A    between atoms: C_1  and  C_2
REMARK    2  A    between atoms: C_2  and  N_3
REMARK    3  A    between atoms: C_7  and  C_8
REMARK    4  A    between atoms: C_8  and  N_9
REMARK    5  A    between atoms: C_10  and  C_12
REMARK    6  A    between atoms: C_13  and  O_14
REMARK    7  A    between atoms: C_20  and  O_21
REMARK    8  A    between atoms: O_21  and  C_22
REMARK                            x       y       z     vdW  Elec       q    Type
REMARK                         _______ _______ _______ _____ _____    ______ ____
ROOT
ATOM      1  N   UNL     1       6.149   4.580  18.413  0.00  0.00    +0.000 N 
ATOM      2  C   UNL     1       4.928   3.953  18.276  0.00  0.00    +0.000 C 
ATOM      3  O   UNL     1       4.668   3.197  17.354  0.00  0.00    +0.000 OA
ATOM      4  H   UNL     1       6.363   5.163  19.215  0.00  0.00    +0.000 HD
ENDROOT
BRANCH   2   5
ATOM      5  C   UNL     1       3.903   4.303  19.289  0.00  0.00    +0.000 A 
ATOM      6  C   UNL     1       3.430   5.634  19.331  0.00  0.00    +0.000 A 
ATOM      7  C   UNL     1       2.356   5.980  20.159  0.00  0.00    +0.000 A 
ATOM      8 CL   UNL     1       1.725   7.587  20.194  0.00  0.00    +0.000 Cl
ATOM      9  C   UNL     1       1.734   5.011  20.937  0.00  0.00    +0.000 A 
ATOM     10  C   UNL     1       2.201   3.696  20.906  0.00  0.00    +0.000 A 
ATOM     11 CL   UNL     1       1.370   2.540  21.893  0.00  0.00    +0.000 Cl
ATOM     12  C   UNL     1       3.295   3.323  20.101  0.00  0.00    +0.000 A 
BRANCH   6  13
ATOM     13  O   UNL     1       3.957   6.629  18.539  0.00  0.00    +0.000 OA
ATOM     14  H   UNL     1       3.542   7.485  18.762  0.00  0.00    +0.000 HD
ENDBRANCH   6  13
BRANCH  12  15
ATOM     15  O   UNL     1       3.599   1.985  20.093  0.00  0.00    +0.000 OA
ATOM     16  C   UNL     1       4.771   1.584  20.796  0.00  0.00    +0.000 C 
ENDBRANCH  12  15
ENDBRANCH   2   5
BRANCH   1  17
ATOM     17  C   UNL     1       7.236   4.396  17.454  0.00  0.00    +0.000 C 
BRANCH  17  22
ATOM     18  N   UNL     1       6.528   4.616  15.063  0.00  0.00    +0.000 NA
ATOM     19  C   UNL     1       5.174   5.184  14.899  0.00  0.00    +0.000 C 
ATOM     20  C   UNL     1       5.289   6.627  15.340  0.00  0.00    +0.000 C 
ATOM     21  C   UNL     1       6.256   6.560  16.504  0.00  0.00    +0.000 C 
ATOM     22  C   UNL     1       7.128   5.328  16.227  0.00  0.00    +0.000 C 
BRANCH  18  24
ATOM     23  C   UNL     1       6.802   4.018  12.629  0.00  0.00    +0.000 C 
ATOM     24  C   UNL     1       7.306   4.823  13.821  0.00  0.00    +0.000 C 
ENDBRANCH  18  24
ENDBRANCH  17  22
ENDBRANCH   1  17
TORSDOF 6
ENDMDL
