MODEL 1
REMARK VINA RESULT:      -7.2      0.000      0.000
REMARK  Name = 
REMARK  9 active torsions:
REMARK  status: ('A' for Active; 'I' for Inactive)
REMARK    1  A    between atoms: C_1  and  C_2
REMARK    2  A    between atoms: C_2  and  N_3
REMARK    3  A    between atoms: C_5  and  C_6
REMARK    4  A    between atoms: C_6  and  O_7
REMARK    5  A    between atoms: O_7  and  C_8
REMARK    6  A    between atoms: C_13  and  O_14
REMARK    7  A    between atoms: O_14  and  C_15
REMARK    8  A    between atoms: C_17  and  C_18
REMARK    9  A    between atoms: N_22  and  C_23
REMARK                            x       y       z     vdW  Elec       q    Type
REMARK                         _______ _______ _______ _____ _____    ______ ____
ROOT
ATOM      1  N   UNL     1       3.737   3.736  19.648  0.00  0.00    +0.000 N 
ATOM      2  N   UNL     1       2.507   4.047  20.119  0.00  0.00    +0.000 NA
ATOM      3  C   UNL     1       2.504   5.383  20.028  0.00  0.00    +0.000 A 
ATOM      4  N   UNL     1       3.676   5.917  19.540  0.00  0.00    +0.000 NA
ATOM      5  C   UNL     1       4.443   4.872  19.313  0.00  0.00    +0.000 A 
ENDROOT
BRANCH   5   6
ATOM      6  C   UNL     1       5.799   4.936  18.844  0.00  0.00    +0.000 A 
ATOM      7  C   UNL     1       6.930   5.367  19.527  0.00  0.00    +0.000 A 
ATOM      8  C   UNL     1       8.060   5.188  18.697  0.00  0.00    +0.000 A 
ATOM      9  C   UNL     1       7.600   4.690  17.502  0.00  0.00    +0.000 A 
ATOM     10  N   UNL     1       6.232   4.588  17.574  0.00  0.00    +0.000 N 
BRANCH  10  11
ATOM     11  C   UNL     1       5.398   4.146  16.465  0.00  0.00    +0.000 C 
ATOM     12  C   UNL     1       5.186   5.001  15.223  0.00  0.00    +0.000 C 
ATOM     13  C   UNL     1       5.993   3.753  15.122  0.00  0.00    +0.000 C 
ENDBRANCH  10  11
ENDBRANCH   5   6
BRANCH   1  15
ATOM     14  C   UNL     1       3.609   1.541  18.412  0.00  0.00    +0.000 C 
ATOM     15  C   UNL     1       4.182   2.361  19.557  0.00  0.00    +0.000 C 
ENDBRANCH   1  15
BRANCH   3  16
ATOM     16  C   UNL     1       1.448   6.261  20.630  0.00  0.00    +0.000 C 
BRANCH  16  17
ATOM     17  O   UNL     1       1.871   7.607  20.939  0.00  0.00    +0.000 OA
BRANCH  17  18
ATOM     18  C   UNL     1       1.166   8.580  20.258  0.00  0.00    +0.000 A 
ATOM     19  C   UNL     1       1.534   8.962  18.951  0.00  0.00    +0.000 A 
ATOM     20  C   UNL     1       0.860   9.972  18.264  0.00  0.00    +0.000 A 
ATOM     21  C   UNL     1      -0.226  10.599  18.854  0.00  0.00    +0.000 A 
ATOM     22  C   UNL     1      -0.642  10.192  20.120  0.00  0.00    +0.000 A 
ATOM     23  C   UNL     1       0.031   9.181  20.831  0.00  0.00    +0.000 A 
BRANCH  23  24
ATOM     24  O   UNL     1      -0.559   8.953  22.043  0.00  0.00    +0.000 OA
ATOM     25  C   UNL     1      -0.211   9.764  23.151  0.00  0.00    +0.000 C 
ENDBRANCH  23  24
ENDBRANCH  17  18
ENDBRANCH  16  17
ENDBRANCH   3  16
TORSDOF 7
ENDMDL
MODEL 2
REMARK VINA RESULT:      -7.1      1.248      2.767
REMARK  Name = 
REMARK  9 active torsions:
REMARK  status: ('A' for Active; 'I' for Inactive)
REMARK    1  A    between atoms: C_1  and  C_2
REMARK    2  A    between atoms: C_2  and  N_3
REMARK    3  A    between atoms: C_5  and  C_6
REMARK    4  A    between atoms: C_6  and  O_7
REMARK    5  A    between atoms: O_7  and  C_8
REMARK    6  A    between atoms: C_13  and  O_14
REMARK    7  A    between atoms: O_14  and  C_15
REMARK    8  A    between atoms: C_17  and  C_18
REMARK    9  A    between atoms: N_22  and  C_23
REMARK                            x       y       z     vdW  Elec       q    Type
REMARK                         _______ _______ _______ _____ _____    ______ ____
ROOT
ATOM      1  N   UNL     1       3.546   3.972  19.245  0.00  0.00    +0.000 N 
ATOM      2  N   UNL     1       2.657   4.392  20.174  0.00  0.00    +0.000 NA
ATOM      3  C   UNL     1       2.393   5.638  19.761  0.00  0.00    +0.000 A 
ATOM      4  N   UNL     1       3.086   6.017  18.634  0.00  0.00    +0.000 NA
ATOM      5  C   UNL     1       3.813   4.964  18.325  0.00  0.00    +0.000 A 
ENDROOT
BRANCH   5   6
ATOM      6  C   UNL     1       4.751   4.903  17.240  0.00  0.00    +0.000 A 
ATOM      7  C   UNL     1       4.639   4.210  16.040  0.00  0.00    +0.000 A 
ATOM      8  C   UNL     1       5.769   4.497  15.241  0.00  0.00    +0.000 A 
ATOM      9  C   UNL     1       6.577   5.327  15.979  0.00  0.00    +0.000 A 
ATOM     10  N   UNL     1       5.986   5.529  17.203  0.00  0.00    +0.000 N 
BRANCH  10  11
ATOM     11  C   UNL     1       6.591   6.317  18.268  0.00  0.00    +0.000 C 
ATOM     12  C   UNL     1       7.860   5.870  18.983  0.00  0.00    +0.000 C 
ATOM     13  C   UNL     1       7.909   7.049  18.075  0.00  0.00    +0.000 C 
ENDBRANCH  10  11
ENDBRANCH   5   6
BRANCH   1  15
ATOM     14  C   UNL     1       3.433   1.585  18.437  0.00  0.00    +0.000 C 
ATOM     15  C   UNL     1       4.113   2.639  19.296  0.00  0.00    +0.000 C 
ENDBRANCH   1  15
BRANCH   3  16
ATOM     16  C   UNL     1       1.622   6.642  20.566  0.00  0.00    +0.000 C 
BRANCH  16  17
ATOM     17  O   UNL     1       1.773   8.015  20.144  0.00  0.00    +0.000 OA
BRANCH  17  18
ATOM     18  C   UNL     1       0.976   8.900  20.842  0.00  0.00    +0.000 A 
ATOM     19  C   UNL     1       0.846   8.811  22.243  0.00  0.00    +0.000 A 
ATOM     20  C   UNL     1       0.012   9.670  22.960  0.00  0.00    +0.000 A 
ATOM     21  C   UNL     1      -0.684  10.666  22.295  0.00  0.00    +0.000 A 
ATOM     22  C   UNL     1      -0.520  10.808  20.918  0.00  0.00    +0.000 A 
ATOM     23  C   UNL     1       0.309   9.946  20.178  0.00  0.00    +0.000 A 
BRANCH  23  24
ATOM     24  O   UNL     1       0.313  10.281  18.853  0.00  0.00    +0.000 OA
ATOM     25  C   UNL     1      -0.901  10.254  18.123  0.00  0.00    +0.000 C 
ENDBRANCH  23  24
ENDBRANCH  17  18
ENDBRANCH  16  17
ENDBRANCH   3  16
TORSDOF 7
ENDMDL
MODEL 3
REMARK VINA RESULT:      -7.0      0.780      2.011
REMARK  Name = 
REMARK  9 active torsions:
REMARK  status: ('A' for Active; 'I' for Inactive)
REMARK    1  A    between atoms: C_1  and  C_2
REMARK    2  A    between atoms: C_2  and  N_3
REMARK    3  A    between atoms: C_5  and  C_6
REMARK    4  A    between atoms: C_6  and  O_7
REMARK    5  A    between atoms: O_7  and  C_8
REMARK    6  A    between atoms: C_13  and  O_14
REMARK    7  A    between atoms: O_14  and  C_15
REMARK    8  A    between atoms: C_17  and  C_18
REMARK    9  A    between atoms: N_22  and  C_23
REMARK                            x       y       z     vdW  Elec       q    Type
REMARK                         _______ _______ _______ _____ _____    ______ ____
ROOT
ATOM      1  N   UNL     1       3.618   3.766  19.352  0.00  0.00    +0.000 N 
ATOM      2  N   UNL     1       2.698   4.148  20.268  0.00  0.00    +0.000 NA
ATOM      3  C   UNL     1       2.359   5.367  19.828  0.00  0.00    +0.000 A 
ATOM      4  N   UNL     1       3.035   5.766  18.697  0.00  0.00    +0.000 NA
ATOM      5  C   UNL     1       3.828   4.754  18.414  0.00  0.00    +0.000 A 
ENDROOT
BRANCH   5   6
ATOM      6  C   UNL     1       4.775   4.731  17.335  0.00  0.00    +0.000 A 
ATOM      7  C   UNL     1       4.694   4.044  16.129  0.00  0.00    +0.000 A 
ATOM      8  C   UNL     1       5.820   4.372  15.340  0.00  0.00    +0.000 A 
ATOM      9  C   UNL     1       6.597   5.221  16.090  0.00  0.00    +0.000 A 
ATOM     10  N   UNL     1       5.991   5.394  17.312  0.00  0.00    +0.000 N 
BRANCH  10  11
ATOM     11  C   UNL     1       6.563   6.193  18.387  0.00  0.00    +0.000 C 
ATOM     12  C   UNL     1       7.820   5.762  19.133  0.00  0.00    +0.000 C 
ATOM     13  C   UNL     1       7.878   6.937  18.221  0.00  0.00    +0.000 C 
ENDBRANCH  10  11
ENDBRANCH   5   6
BRANCH   1  15
ATOM     14  C   UNL     1       3.672   1.366  18.576  0.00  0.00    +0.000 C 
ATOM     15  C   UNL     1       4.267   2.473  19.433  0.00  0.00    +0.000 C 
ENDBRANCH   1  15
BRANCH   3  16
ATOM     16  C   UNL     1       1.522   6.336  20.609  0.00  0.00    +0.000 C 
BRANCH  16  17
ATOM     17  O   UNL     1       2.061   7.672  20.708  0.00  0.00    +0.000 OA
BRANCH  17  18
ATOM     18  C   UNL     1       1.254   8.639  20.141  0.00  0.00    +0.000 A 
ATOM     19  C   UNL     1       1.466   9.076  18.817  0.00  0.00    +0.000 A 
ATOM     20  C   UNL     1       0.687  10.081  18.242  0.00  0.00    +0.000 A 
ATOM     21  C   UNL     1      -0.349  10.647  18.966  0.00  0.00    +0.000 A 
ATOM     22  C   UNL     1      -0.612  10.184  20.254  0.00  0.00    +0.000 A 
ATOM     23  C   UNL     1       0.168   9.178  20.853  0.00  0.00    +0.000 A 
BRANCH  23  24
ATOM     24  O   UNL     1      -0.280   8.889  22.112  0.00  0.00    +0.000 OA
ATOM     25  C   UNL     1      -0.419   9.934  23.059  0.00  0.00    +0.000 C 
ENDBRANCH  23  24
ENDBRANCH  17  18
ENDBRANCH  16  17
ENDBRANCH   3  16
TORSDOF 7
ENDMDL
MODEL 4
REMARK VINA RESULT:      -7.0      3.008      7.921
REMARK  Name = 
REMARK  9 active torsions:
REMARK  status: ('A' for Active; 'I' for Inactive)
REMARK    1  A    between atoms: C_1  and  C_2
REMARK    2  A    between atoms: C_2  and  N_3
REMARK    3  A    between atoms: C_5  and  C_6
REMARK    4  A    between atoms: C_6  and  O_7
REMARK    5  A    between atoms: O_7  and  C_8
REMARK    6  A    between atoms: C_13  and  O_14
REMARK    7  A    between atoms: O_14  and  C_15
REMARK    8  A    between atoms: C_17  and  C_18
REMARK    9  A    between atoms: N_22  and  C_23
REMARK                            x       y       z     vdW  Elec       q    Type
REMARK                         _______ _______ _______ _____ _____    ______ ____
ROOT
ATOM      1  N   UNL     1       0.557   9.079  20.632  0.00  0.00    +0.000 N 
ATOM      2  N   UNL     1       1.319   7.962  20.689  0.00  0.00    +0.000 NA
ATOM      3  C   UNL     1       1.995   8.028  19.534  0.00  0.00    +0.000 A 
ATOM      4  N   UNL     1       1.678   9.120  18.758  0.00  0.00    +0.000 NA
ATOM      5  C   UNL     1       0.768   9.767  19.456  0.00  0.00    +0.000 A 
ENDROOT
BRANCH   5   6
ATOM      6  C   UNL     1       0.092  10.956  19.020  0.00  0.00    +0.000 A 
ATOM      7  C   UNL     1       0.341  12.274  19.386  0.00  0.00    +0.000 A 
ATOM      8  C   UNL     1      -0.522  13.121  18.654  0.00  0.00    +0.000 A 
ATOM      9  C   UNL     1      -1.315  12.308  17.881  0.00  0.00    +0.000 A 
ATOM     10  N   UNL     1      -0.979  11.002  18.142  0.00  0.00    +0.000 N 
BRANCH  10  11
ATOM     11  C   UNL     1      -1.655   9.861  17.540  0.00  0.00    +0.000 C 
ATOM     12  C   UNL     1      -3.165   9.677  17.629  0.00  0.00    +0.000 C 
ATOM     13  C   UNL     1      -2.545  10.011  16.317  0.00  0.00    +0.000 C 
ENDBRANCH  10  11
ENDBRANCH   5   6
BRANCH   1  15
ATOM     14  C   UNL     1       0.234   9.439  23.108  0.00  0.00    +0.000 C 
ATOM     15  C   UNL     1      -0.353   9.424  21.705  0.00  0.00    +0.000 C 
ENDBRANCH   1  15
BRANCH   3  16
ATOM     16  C   UNL     1       2.831   6.909  18.988  0.00  0.00    +0.000 C 
BRANCH  16  17
ATOM     17  O   UNL     1       2.093   5.741  18.568  0.00  0.00    +0.000 OA
BRANCH  17  18
ATOM     18  C   UNL     1       2.221   4.666  19.425  0.00  0.00    +0.000 A 
ATOM     19  C   UNL     1       1.204   4.351  20.351  0.00  0.00    +0.000 A 
ATOM     20  C   UNL     1       1.334   3.295  21.254  0.00  0.00    +0.000 A 
ATOM     21  C   UNL     1       2.470   2.503  21.226  0.00  0.00    +0.000 A 
ATOM     22  C   UNL     1       3.458   2.762  20.278  0.00  0.00    +0.000 A 
ATOM     23  C   UNL     1       3.348   3.827  19.366  0.00  0.00    +0.000 A 
BRANCH  23  24
ATOM     24  O   UNL     1       4.432   3.881  18.535  0.00  0.00    +0.000 OA
ATOM     25  C   UNL     1       4.296   3.478  17.184  0.00  0.00    +0.000 C 
ENDBRANCH  23  24
ENDBRANCH  17  18
ENDBRANCH  16  17
ENDBRANCH   3  16
TORSDOF 7
ENDMDL
MODEL 5
REMARK VINA RESULT:      -6.8      2.885      7.996
REMARK  Name = 
REMARK  9 active torsions:
REMARK  status: ('A' for Active; 'I' for Inactive)
REMARK    1  A    between atoms: C_1  and  C_2
REMARK    2  A    between atoms: C_2  and  N_3
REMARK    3  A    between atoms: C_5  and  C_6
REMARK    4  A    between atoms: C_6  and  O_7
REMARK    5  A    between atoms: O_7  and  C_8
REMARK    6  A    between atoms: C_13  and  O_14
REMARK    7  A    between atoms: O_14  and  C_15
REMARK    8  A    between atoms: C_17  and  C_18
REMARK    9  A    between atoms: N_22  and  C_23
REMARK                            x       y       z     vdW  Elec       q    Type
REMARK                         _______ _______ _______ _____ _____    ______ ____
ROOT
ATOM      1  N   UNL     1       0.702   8.862  20.323  0.00  0.00    +0.000 N 
ATOM      2  N   UNL     1       1.524   7.796  20.185  0.00  0.00    +0.000 NA
ATOM      3  C   UNL     1       2.150   8.076  19.034  0.00  0.00    +0.000 A 
ATOM      4  N   UNL     1       1.746   9.253  18.446  0.00  0.00    +0.000 NA
ATOM      5  C   UNL     1       0.831   9.732  19.261  0.00  0.00    +0.000 A 
ENDROOT
BRANCH   5   6
ATOM      6  C   UNL     1       0.076  10.932  19.034  0.00  0.00    +0.000 A 
ATOM      7  C   UNL     1       0.250  12.184  19.614  0.00  0.00    +0.000 A 
ATOM      8  C   UNL     1      -0.675  13.085  19.039  0.00  0.00    +0.000 A 
ATOM      9  C   UNL     1      -1.431  12.363  18.147  0.00  0.00    +0.000 A 
ATOM     10  N   UNL     1      -1.010  11.055  18.184  0.00  0.00    +0.000 N 
BRANCH  10  11
ATOM     11  C   UNL     1      -1.626   9.990  17.404  0.00  0.00    +0.000 C 
ATOM     12  C   UNL     1      -3.109   9.662  17.513  0.00  0.00    +0.000 C 
ATOM     13  C   UNL     1      -2.588  10.284  16.264  0.00  0.00    +0.000 C 
ENDBRANCH  10  11
ENDBRANCH   5   6
BRANCH   1  15
ATOM     14  C   UNL     1       0.466   9.382  22.780  0.00  0.00    +0.000 C 
ATOM     15  C   UNL     1      -0.183   8.986  21.464  0.00  0.00    +0.000 C 
ENDBRANCH   1  15
BRANCH   3  16
ATOM     16  C   UNL     1       3.022   7.104  18.298  0.00  0.00    +0.000 C 
BRANCH  16  17
ATOM     17  O   UNL     1       3.565   6.034  19.102  0.00  0.00    +0.000 OA
BRANCH  17  18
ATOM     18  C   UNL     1       3.167   4.777  18.693  0.00  0.00    +0.000 A 
ATOM     19  C   UNL     1       1.801   4.429  18.639  0.00  0.00    +0.000 A 
ATOM     20  C   UNL     1       1.382   3.151  18.269  0.00  0.00    +0.000 A 
ATOM     21  C   UNL     1       2.319   2.199  17.904  0.00  0.00    +0.000 A 
ATOM     22  C   UNL     1       3.670   2.543  17.892  0.00  0.00    +0.000 A 
ATOM     23  C   UNL     1       4.111   3.824  18.270  0.00  0.00    +0.000 A 
BRANCH  23  24
ATOM     24  O   UNL     1       5.471   3.926  18.175  0.00  0.00    +0.000 OA
ATOM     25  C   UNL     1       6.045   4.571  17.052  0.00  0.00    +0.000 C 
ENDBRANCH  23  24
ENDBRANCH  17  18
ENDBRANCH  16  17
ENDBRANCH   3  16
TORSDOF 7
ENDMDL
MODEL 6
REMARK VINA RESULT:      -6.8      1.036      1.970
REMARK  Name = 
REMARK  9 active torsions:
REMARK  status: ('A' for Active; 'I' for Inactive)
REMARK    1  A    between atoms: C_1  and  C_2
REMARK    2  A    between atoms: C_2  and  N_3
REMARK    3  A    between atoms: C_5  and  C_6
REMARK    4  A    between atoms: C_6  and  O_7
REMARK    5  A    between atoms: O_7  and  C_8
REMARK    6  A    between atoms: C_13  and  O_14
REMARK    7  A    between atoms: O_14  and  C_15
REMARK    8  A    between atoms: C_17  and  C_18
REMARK    9  A    between atoms: N_22  and  C_23
REMARK                            x       y       z     vdW  Elec       q    Type
REMARK                         _______ _______ _______ _____ _____    ______ ____
ROOT
ATOM      1  N   UNL     1       3.440   4.166  19.276  0.00  0.00    +0.000 N 
ATOM      2  N   UNL     1       2.241   4.586  19.740  0.00  0.00    +0.000 NA
ATOM      3  C   UNL     1       2.425   5.910  19.826  0.00  0.00    +0.000 A 
ATOM      4  N   UNL     1       3.683   6.329  19.455  0.00  0.00    +0.000 NA
ATOM      5  C   UNL     1       4.312   5.223  19.120  0.00  0.00    +0.000 A 
ENDROOT
BRANCH   5   6
ATOM      6  C   UNL     1       5.687   5.152  18.711  0.00  0.00    +0.000 A 
ATOM      7  C   UNL     1       6.826   5.416  19.463  0.00  0.00    +0.000 A 
ATOM      8  C   UNL     1       7.967   5.148  18.672  0.00  0.00    +0.000 A 
ATOM      9  C   UNL     1       7.511   4.764  17.434  0.00  0.00    +0.000 A 
ATOM     10  N   UNL     1       6.137   4.818  17.444  0.00  0.00    +0.000 N 
BRANCH  10  11
ATOM     11  C   UNL     1       5.312   4.528  16.279  0.00  0.00    +0.000 C 
ATOM     12  C   UNL     1       5.316   5.420  15.045  0.00  0.00    +0.000 C 
ATOM     13  C   UNL     1       5.917   4.060  14.965  0.00  0.00    +0.000 C 
ENDBRANCH  10  11
ENDBRANCH   5   6
BRANCH   1  15
ATOM     14  C   UNL     1       2.485   1.847  19.008  0.00  0.00    +0.000 C 
ATOM     15  C   UNL     1       3.699   2.764  19.021  0.00  0.00    +0.000 C 
ENDBRANCH   1  15
BRANCH   3  16
ATOM     16  C   UNL     1       1.468   6.847  20.501  0.00  0.00    +0.000 C 
BRANCH  16  17
ATOM     17  O   UNL     1       1.615   8.238  20.143  0.00  0.00    +0.000 OA
BRANCH  17  18
ATOM     18  C   UNL     1       0.836   9.091  20.900  0.00  0.00    +0.000 A 
ATOM     19  C   UNL     1       0.734   8.931  22.298  0.00  0.00    +0.000 A 
ATOM     20  C   UNL     1      -0.081   9.757  23.073  0.00  0.00    +0.000 A 
ATOM     21  C   UNL     1      -0.784  10.789  22.474  0.00  0.00    +0.000 A 
ATOM     22  C   UNL     1      -0.647  11.000  21.103  0.00  0.00    +0.000 A 
ATOM     23  C   UNL     1       0.163  10.172  20.304  0.00  0.00    +0.000 A 
BRANCH  23  24
ATOM     24  O   UNL     1       0.143  10.574  18.997  0.00  0.00    +0.000 OA
ATOM     25  C   UNL     1      -1.010  10.330  18.211  0.00  0.00    +0.000 C 
ENDBRANCH  23  24
ENDBRANCH  17  18
ENDBRANCH  16  17
ENDBRANCH   3  16
TORSDOF 7
ENDMDL
MODEL 7
REMARK VINA RESULT:      -6.7      2.943      7.935
REMARK  Name = 
REMARK  9 active torsions:
REMARK  status: ('A' for Active; 'I' for Inactive)
REMARK    1  A    between atoms: C_1  and  C_2
REMARK    2  A    between atoms: C_2  and  N_3
REMARK    3  A    between atoms: C_5  and  C_6
REMARK    4  A    between atoms: C_6  and  O_7
REMARK    5  A    between atoms: O_7  and  C_8
REMARK    6  A    between atoms: C_13  and  O_14
REMARK    7  A    between atoms: O_14  and  C_15
REMARK    8  A    between atoms: C_17  and  C_18
REMARK    9  A    between atoms: N_22  and  C_23
REMARK                            x       y       z     vdW  Elec       q    Type
REMARK                         _______ _______ _______ _____ _____    ______ ____
ROOT
ATOM      1  N   UNL     1       0.608   9.057  20.465  0.00  0.00    +0.000 N 
ATOM      2  N   UNL     1       1.496   8.040  20.543  0.00  0.00    +0.000 NA
ATOM      3  C   UNL     1       2.052   8.063  19.324  0.00  0.00    +0.000 A 
ATOM      4  N   UNL     1       1.540   9.032  18.491  0.00  0.00    +0.000 NA
ATOM      5  C   UNL     1       0.629   9.643  19.217  0.00  0.00    +0.000 A 
ENDROOT
BRANCH   5   6
ATOM      6  C   UNL     1      -0.218  10.704  18.749  0.00  0.00    +0.000 A 
ATOM      7  C   UNL     1      -1.490  10.614  18.197  0.00  0.00    +0.000 A 
ATOM      8  C   UNL     1      -1.973  11.919  17.948  0.00  0.00    +0.000 A 
ATOM      9  C   UNL     1      -0.973  12.788  18.310  0.00  0.00    +0.000 A 
ATOM     10  N   UNL     1       0.103  12.052  18.744  0.00  0.00    +0.000 N 
BRANCH  10  11
ATOM     11  C   UNL     1       1.368  12.643  19.158  0.00  0.00    +0.000 C 
ATOM     12  C   UNL     1       2.475  12.964  18.162  0.00  0.00    +0.000 C 
ATOM     13  C   UNL     1       1.733  14.079  18.814  0.00  0.00    +0.000 C 
ENDBRANCH  10  11
ENDBRANCH   5   6
BRANCH   1  15
ATOM     14  C   UNL     1       0.421   9.364  22.962  0.00  0.00    +0.000 C 
ATOM     15  C   UNL     1      -0.234   9.408  21.591  0.00  0.00    +0.000 C 
ENDBRANCH   1  15
BRANCH   3  16
ATOM     16  C   UNL     1       2.958   6.991  18.797  0.00  0.00    +0.000 C 
BRANCH  16  17
ATOM     17  O   UNL     1       3.235   5.913  19.718  0.00  0.00    +0.000 OA
BRANCH  17  18
ATOM     18  C   UNL     1       2.456   4.792  19.509  0.00  0.00    +0.000 A 
ATOM     19  C   UNL     1       1.491   4.392  20.456  0.00  0.00    +0.000 A 
ATOM     20  C   UNL     1       0.724   3.240  20.282  0.00  0.00    +0.000 A 
ATOM     21  C   UNL     1       0.878   2.479  19.135  0.00  0.00    +0.000 A 
ATOM     22  C   UNL     1       1.783   2.892  18.160  0.00  0.00    +0.000 A 
ATOM     23  C   UNL     1       2.571   4.047  18.322  0.00  0.00    +0.000 A 
BRANCH  23  24
ATOM     24  O   UNL     1       3.378   4.251  17.238  0.00  0.00    +0.000 OA
ATOM     25  C   UNL     1       4.661   3.650  17.201  0.00  0.00    +0.000 C 
ENDBRANCH  23  24
ENDBRANCH  17  18
ENDBRANCH  16  17
ENDBRANCH   3  16
TORSDOF 7
ENDMDL
MODEL 8
REMARK VINA RESULT:      -6.7      2.884      7.861
REMARK  Name = 
REMARK  9 active torsions:
REMARK  status: ('A' for Active; 'I' for Inactive)
REMARK    1  A    between atoms: C_1  and  C_2
REMARK    2  A    between atoms: C_2  and  N_3
REMARK    3  A    between atoms: C_5  and  C_6
REMARK    4  A    between atoms: C_6  and  O_7
REMARK    5  A    between atoms: O_7  and  C_8
REMARK    6  A    between atoms: C_13  and  O_14
REMARK    7  A    between atoms: O_14  and  C_15
REMARK    8  A    between atoms: C_17  and  C_18
REMARK    9  A    between atoms: N_22  and  C_23
REMARK                            x       y       z     vdW  Elec       q    Type
REMARK                         _______ _______ _______ _____ _____    ______ ____
ROOT
ATOM      1  N   UNL     1       0.416   9.220  20.930  0.00  0.00    +0.000 N 
ATOM      2  N   UNL     1       1.092   8.061  21.102  0.00  0.00    +0.000 NA
ATOM      3  C   UNL     1       1.786   7.972  19.960  0.00  0.00    +0.000 A 
ATOM      4  N   UNL     1       1.560   9.009  19.082  0.00  0.00    +0.000 NA
ATOM      5  C   UNL     1       0.691   9.780  19.701  0.00  0.00    +0.000 A 
ENDROOT
BRANCH   5   6
ATOM      6  C   UNL     1       0.110  10.971  19.147  0.00  0.00    +0.000 A 
ATOM      7  C   UNL     1       0.414  12.296  19.436  0.00  0.00    +0.000 A 
ATOM      8  C   UNL     1      -0.357  13.134  18.599  0.00  0.00    +0.000 A 
ATOM      9  C   UNL     1      -1.153  12.312  17.839  0.00  0.00    +0.000 A 
ATOM     10  N   UNL     1      -0.908  11.011  18.207  0.00  0.00    +0.000 N 
BRANCH  10  11
ATOM     11  C   UNL     1      -1.615   9.869  17.646  0.00  0.00    +0.000 C 
ATOM     12  C   UNL     1      -3.133   9.756  17.693  0.00  0.00    +0.000 C 
ATOM     13  C   UNL     1      -2.458   9.988  16.386  0.00  0.00    +0.000 C 
ENDBRANCH  10  11
ENDBRANCH   5   6
BRANCH   1  15
ATOM     14  C   UNL     1      -0.049   9.510  23.392  0.00  0.00    +0.000 C 
ATOM     15  C   UNL     1      -0.480   9.726  21.950  0.00  0.00    +0.000 C 
ENDBRANCH   1  15
BRANCH   3  16
ATOM     16  C   UNL     1       2.544   6.751  19.533  0.00  0.00    +0.000 C 
BRANCH  16  17
ATOM     17  O   UNL     1       2.316   6.332  18.169  0.00  0.00    +0.000 OA
BRANCH  17  18
ATOM     18  C   UNL     1       3.427   5.776  17.567  0.00  0.00    +0.000 A 
ATOM     19  C   UNL     1       4.493   6.586  17.122  0.00  0.00    +0.000 A 
ATOM     20  C   UNL     1       5.604   6.046  16.474  0.00  0.00    +0.000 A 
ATOM     21  C   UNL     1       5.695   4.676  16.290  0.00  0.00    +0.000 A 
ATOM     22  C   UNL     1       4.681   3.855  16.778  0.00  0.00    +0.000 A 
ATOM     23  C   UNL     1       3.549   4.382  17.426  0.00  0.00    +0.000 A 
BRANCH  23  24
ATOM     24  O   UNL     1       2.696   3.388  17.818  0.00  0.00    +0.000 OA
ATOM     25  C   UNL     1       2.758   2.899  19.146  0.00  0.00    +0.000 C 
ENDBRANCH  23  24
ENDBRANCH  17  18
ENDBRANCH  16  17
ENDBRANCH   3  16
TORSDOF 7
ENDMDL
MODEL 9
REMARK VINA RESULT:      -6.7      1.864      3.961
REMARK  Name = 
REMARK  9 active torsions:
REMARK  status: ('A' for Active; 'I' for Inactive)
REMARK    1  A    between atoms: C_1  and  C_2
REMARK    2  A    between atoms: C_2  and  N_3
REMARK    3  A    between atoms: C_5  and  C_6
REMARK    4  A    between atoms: C_6  and  O_7
REMARK    5  A    between atoms: O_7  and  C_8
REMARK    6  A    between atoms: C_13  and  O_14
REMARK    7  A    between atoms: O_14  and  C_15
REMARK    8  A    between atoms: C_17  and  C_18
REMARK    9  A    between atoms: N_22  and  C_23
REMARK                            x       y       z     vdW  Elec       q    Type
REMARK                         _______ _______ _______ _____ _____    ______ ____
ROOT
ATOM      1  N   UNL     1       4.385   6.337  17.742  0.00  0.00    +0.000 N 
ATOM      2  N   UNL     1       4.015   7.638  17.768  0.00  0.00    +0.000 NA
ATOM      3  C   UNL     1       2.738   7.556  18.165  0.00  0.00    +0.000 A 
ATOM      4  N   UNL     1       2.294   6.270  18.369  0.00  0.00    +0.000 NA
ATOM      5  C   UNL     1       3.335   5.514  18.092  0.00  0.00    +0.000 A 
ENDROOT
BRANCH   5   6
ATOM      6  C   UNL     1       3.336   4.078  18.113  0.00  0.00    +0.000 A 
ATOM      7  C   UNL     1       3.587   3.199  17.065  0.00  0.00    +0.000 A 
ATOM      8  C   UNL     1       3.551   1.876  17.561  0.00  0.00    +0.000 A 
ATOM      9  C   UNL     1       3.235   1.961  18.896  0.00  0.00    +0.000 A 
ATOM     10  N   UNL     1       3.055   3.285  19.214  0.00  0.00    +0.000 N 
BRANCH  10  11
ATOM     11  C   UNL     1       2.656   3.748  20.536  0.00  0.00    +0.000 C 
ATOM     12  C   UNL     1       1.193   3.909  20.929  0.00  0.00    +0.000 C 
ATOM     13  C   UNL     1       2.001   2.820  21.546  0.00  0.00    +0.000 C 
ENDBRANCH  10  11
ENDBRANCH   5   6
BRANCH   1  15
ATOM     14  C   UNL     1       6.775   7.044  17.359  0.00  0.00    +0.000 C 
ATOM     15  C   UNL     1       5.726   5.943  17.363  0.00  0.00    +0.000 C 
ENDBRANCH   1  15
BRANCH   3  16
ATOM     16  C   UNL     1       1.781   8.710  18.149  0.00  0.00    +0.000 C 
BRANCH  16  17
ATOM     17  O   UNL     1       1.387   9.199  19.450  0.00  0.00    +0.000 OA
BRANCH  17  18
ATOM     18  C   UNL     1       0.278  10.021  19.420  0.00  0.00    +0.000 A 
ATOM     19  C   UNL     1      -0.505  10.143  18.253  0.00  0.00    +0.000 A 
ATOM     20  C   UNL     1      -1.604  11.000  18.192  0.00  0.00    +0.000 A 
ATOM     21  C   UNL     1      -1.971  11.729  19.311  0.00  0.00    +0.000 A 
ATOM     22  C   UNL     1      -1.246  11.575  20.492  0.00  0.00    +0.000 A 
ATOM     23  C   UNL     1      -0.130  10.722  20.569  0.00  0.00    +0.000 A 
BRANCH  23  24
ATOM     24  O   UNL     1       0.415  10.734  21.823  0.00  0.00    +0.000 OA
ATOM     25  C   UNL     1      -0.169   9.943  22.844  0.00  0.00    +0.000 C 
ENDBRANCH  23  24
ENDBRANCH  17  18
ENDBRANCH  16  17
ENDBRANCH   3  16
TORSDOF 7
ENDMDL
