MODEL 1
REMARK VINA RESULT:      -9.1      0.000      0.000
REMARK  Name = 
REMARK  7 active torsions:
REMARK  status: ('A' for Active; 'I' for Inactive)
REMARK    1  A    between atoms: C_1  and  C_2
REMARK    2  A    between atoms: C_2  and  C_3
REMARK    3  A    between atoms: C_3  and  N_4
REMARK    4  A    between atoms: N_4  and  C_5
REMARK    5  A    between atoms: C_7  and  C_8
REMARK    6  A    between atoms: N_19  and  C_20
REMARK    7  A    between atoms: C_20  and  C_21
REMARK                            x       y       z     vdW  Elec       q    Type
REMARK                         _______ _______ _______ _____ _____    ______ ____
ROOT
ATOM      1  C   UNL     1       7.426   6.347  17.524  0.00  0.00    +0.000 A 
ATOM      2  N   UNL     1       7.421   6.023  16.202  0.00  0.00    +0.000 NA
ATOM      3  C   UNL     1       6.650   5.009  15.750  0.00  0.00    +0.000 A 
ATOM      4  N   UNL     1       5.835   4.228  16.484  0.00  0.00    +0.000 NA
ATOM      5  C   UNL     1       5.900   4.547  17.785  0.00  0.00    +0.000 A 
ATOM      6  C   UNL     1       6.638   5.555  18.376  0.00  0.00    +0.000 A 
ATOM      7  N   UNL     1       6.422   5.541  19.730  0.00  0.00    +0.000 NA
ATOM      8  N   UNL     1       5.603   4.527  20.008  0.00  0.00    +0.000 NA
ATOM      9  N   UNL     1       5.285   3.931  18.834  0.00  0.00    +0.000 N 
ENDROOT
BRANCH   3  10
ATOM     10  C   UNL     1       6.765   4.690  14.322  0.00  0.00    +0.000 A 
ATOM     11  C   UNL     1       5.945   3.703  13.745  0.00  0.00    +0.000 A 
ATOM     12  C   UNL     1       6.016   3.410  12.382  0.00  0.00    +0.000 A 
ATOM     13  C   UNL     1       6.925   4.088  11.574  0.00  0.00    +0.000 A 
ATOM     14  C   UNL     1       7.756   5.060  12.126  0.00  0.00    +0.000 A 
ATOM     15  C   UNL     1       7.671   5.365  13.487  0.00  0.00    +0.000 A 
ENDBRANCH   3  10
BRANCH   1  16
ATOM     16  N   UNL     1       8.221   7.416  17.969  0.00  0.00    +0.000 N 
ATOM     17  H   UNL     1       8.597   7.233  18.895  0.00  0.00    +0.000 HD
BRANCH  16  18
ATOM     18  C   UNL     1       7.589   8.716  17.783  0.00  0.00    +0.000 C 
BRANCH  18  20
ATOM     19  C   UNL     1       9.134   9.961  19.309  0.00  0.00    +0.000 C 
ATOM     20  C   UNL     1       8.615   9.840  17.884  0.00  0.00    +0.000 C 
ENDBRANCH  18  20
ENDBRANCH  16  18
ENDBRANCH   1  16
BRANCH   9  21
ATOM     21  C   UNL     1       4.478   2.724  18.793  0.00  0.00    +0.000 C 
BRANCH  21  22
ATOM     22  C   UNL     1       3.206   2.886  19.589  0.00  0.00    +0.000 A 
ATOM     23  C   UNL     1       3.169   2.388  20.907  0.00  0.00    +0.000 A 
ATOM     24  C   UNL     1       2.047   2.570  21.716  0.00  0.00    +0.000 A 
ATOM     25  C   UNL     1       0.935   3.241  21.219  0.00  0.00    +0.000 A 
ATOM     26  C   UNL     1       0.938   3.711  19.906  0.00  0.00    +0.000 A 
ATOM     27  C   UNL     1       2.062   3.533  19.093  0.00  0.00    +0.000 A 
ATOM     28 CL   UNL     1       1.965   4.127  17.474  0.00  0.00    +0.000 Cl
ENDBRANCH  21  22
ENDBRANCH   9  21
TORSDOF 6
ENDMDL
MODEL 2
REMARK VINA RESULT:      -9.0      0.304      1.015
REMARK  Name = 
REMARK  7 active torsions:
REMARK  status: ('A' for Active; 'I' for Inactive)
REMARK    1  A    between atoms: C_1  and  C_2
REMARK    2  A    between atoms: C_2  and  C_3
REMARK    3  A    between atoms: C_3  and  N_4
REMARK    4  A    between atoms: N_4  and  C_5
REMARK    5  A    between atoms: C_7  and  C_8
REMARK    6  A    between atoms: N_19  and  C_20
REMARK    7  A    between atoms: C_20  and  C_21
REMARK                            x       y       z     vdW  Elec       q    Type
REMARK                         _______ _______ _______ _____ _____    ______ ____
ROOT
ATOM      1  C   UNL     1       7.479   6.235  17.573  0.00  0.00    +0.000 A 
ATOM      2  N   UNL     1       7.482   5.966  16.240  0.00  0.00    +0.000 NA
ATOM      3  C   UNL     1       6.663   5.018  15.731  0.00  0.00    +0.000 A 
ATOM      4  N   UNL     1       5.788   4.258  16.417  0.00  0.00    +0.000 NA
ATOM      5  C   UNL     1       5.845   4.519  17.731  0.00  0.00    +0.000 A 
ATOM      6  C   UNL     1       6.629   5.458  18.377  0.00  0.00    +0.000 A 
ATOM      7  N   UNL     1       6.384   5.401  19.725  0.00  0.00    +0.000 NA
ATOM      8  N   UNL     1       5.502   4.426  19.946  0.00  0.00    +0.000 NA
ATOM      9  N   UNL     1       5.174   3.898  18.742  0.00  0.00    +0.000 N 
ENDROOT
BRANCH   3  10
ATOM     10  C   UNL     1       6.789   4.752  14.293  0.00  0.00    +0.000 A 
ATOM     11  C   UNL     1       7.709   5.475  13.513  0.00  0.00    +0.000 A 
ATOM     12  C   UNL     1       7.866   5.212  12.151  0.00  0.00    +0.000 A 
ATOM     13  C   UNL     1       7.089   4.231  11.541  0.00  0.00    +0.000 A 
ATOM     14  C   UNL     1       6.161   3.512  12.290  0.00  0.00    +0.000 A 
ATOM     15  C   UNL     1       6.018   3.764  13.658  0.00  0.00    +0.000 A 
ENDBRANCH   3  10
BRANCH   1  16
ATOM     16  N   UNL     1       8.325   7.237  18.077  0.00  0.00    +0.000 N 
ATOM     17  H   UNL     1       8.569   7.057  19.047  0.00  0.00    +0.000 HD
BRANCH  16  18
ATOM     18  C   UNL     1       7.860   8.584  17.776  0.00  0.00    +0.000 C 
BRANCH  18  20
ATOM     19  C   UNL     1       8.702  10.942  17.827  0.00  0.00    +0.000 C 
ATOM     20  C   UNL     1       8.637   9.621  18.581  0.00  0.00    +0.000 C 
ENDBRANCH  18  20
ENDBRANCH  16  18
ENDBRANCH   1  16
BRANCH   9  21
ATOM     21  C   UNL     1       4.299   2.744  18.636  0.00  0.00    +0.000 C 
BRANCH  21  22
ATOM     22  C   UNL     1       3.104   2.875  19.548  0.00  0.00    +0.000 A 
ATOM     23  C   UNL     1       3.182   2.322  20.842  0.00  0.00    +0.000 A 
ATOM     24  C   UNL     1       2.137   2.471  21.754  0.00  0.00    +0.000 A 
ATOM     25  C   UNL     1       0.988   3.164  21.387  0.00  0.00    +0.000 A 
ATOM     26  C   UNL     1       0.877   3.688  20.100  0.00  0.00    +0.000 A 
ATOM     27  C   UNL     1       1.924   3.543  19.183  0.00  0.00    +0.000 A 
ATOM     28 CL   UNL     1       1.686   4.205  17.605  0.00  0.00    +0.000 Cl
ENDBRANCH  21  22
ENDBRANCH   9  21
TORSDOF 6
ENDMDL
MODEL 3
REMARK VINA RESULT:      -8.5      1.060      1.473
REMARK  Name = 
REMARK  7 active torsions:
REMARK  status: ('A' for Active; 'I' for Inactive)
REMARK    1  A    between atoms: C_1  and  C_2
REMARK    2  A    between atoms: C_2  and  C_3
REMARK    3  A    between atoms: C_3  and  N_4
REMARK    4  A    between atoms: N_4  and  C_5
REMARK    5  A    between atoms: C_7  and  C_8
REMARK    6  A    between atoms: N_19  and  C_20
REMARK    7  A    between atoms: C_20  and  C_21
REMARK                            x       y       z     vdW  Elec       q    Type
REMARK                         _______ _______ _______ _____ _____    ______ ____
ROOT
ATOM      1  C   UNL     1       7.461   6.360  17.612  0.00  0.00    +0.000 A 
ATOM      2  N   UNL     1       7.442   6.048  16.288  0.00  0.00    +0.000 NA
ATOM      3  C   UNL     1       6.694   5.015  15.839  0.00  0.00    +0.000 A 
ATOM      4  N   UNL     1       5.915   4.204  16.581  0.00  0.00    +0.000 NA
ATOM      5  C   UNL     1       5.993   4.514  17.883  0.00  0.00    +0.000 A 
ATOM      6  C   UNL     1       6.712   5.538  18.470  0.00  0.00    +0.000 A 
ATOM      7  N   UNL     1       6.520   5.506  19.828  0.00  0.00    +0.000 NA
ATOM      8  N   UNL     1       5.736   4.466  20.111  0.00  0.00    +0.000 NA
ATOM      9  N   UNL     1       5.415   3.870  18.937  0.00  0.00    +0.000 N 
ENDROOT
BRANCH   3  10
ATOM     10  C   UNL     1       6.793   4.712  14.407  0.00  0.00    +0.000 A 
ATOM     11  C   UNL     1       5.968   3.730  13.829  0.00  0.00    +0.000 A 
ATOM     12  C   UNL     1       6.024   3.452  12.462  0.00  0.00    +0.000 A 
ATOM     13  C   UNL     1       6.923   4.140  11.652  0.00  0.00    +0.000 A 
ATOM     14  C   UNL     1       7.759   5.107  12.204  0.00  0.00    +0.000 A 
ATOM     15  C   UNL     1       7.689   5.397  13.570  0.00  0.00    +0.000 A 
ENDBRANCH   3  10
BRANCH   1  16
ATOM     16  N   UNL     1       8.232   7.448  18.053  0.00  0.00    +0.000 N 
ATOM     17  H   UNL     1       8.583   7.292  18.994  0.00  0.00    +0.000 HD
BRANCH  16  18
ATOM     18  C   UNL     1       7.591   8.736  17.817  0.00  0.00    +0.000 C 
BRANCH  18  20
ATOM     19  C   UNL     1       9.150  10.024  19.296  0.00  0.00    +0.000 C 
ATOM     20  C   UNL     1       8.610   9.870  17.881  0.00  0.00    +0.000 C 
ENDBRANCH  18  20
ENDBRANCH  16  18
ENDBRANCH   1  16
BRANCH   9  21
ATOM     21  C   UNL     1       4.643   2.641  18.899  0.00  0.00    +0.000 C 
BRANCH  21  22
ATOM     22  C   UNL     1       3.163   2.919  18.993  0.00  0.00    +0.000 A 
ATOM     23  C   UNL     1       2.487   3.365  17.840  0.00  0.00    +0.000 A 
ATOM     24  C   UNL     1       1.107   3.571  17.846  0.00  0.00    +0.000 A 
ATOM     25  C   UNL     1       0.377   3.347  19.008  0.00  0.00    +0.000 A 
ATOM     26  C   UNL     1       1.032   2.939  20.170  0.00  0.00    +0.000 A 
ATOM     27  C   UNL     1       2.415   2.729  20.167  0.00  0.00    +0.000 A 
ATOM     28 CL   UNL     1       3.141   2.248  21.658  0.00  0.00    +0.000 Cl
ENDBRANCH  21  22
ENDBRANCH   9  21
TORSDOF 6
ENDMDL
MODEL 4
REMARK VINA RESULT:      -8.5      3.021      5.001
REMARK  Name = 
REMARK  7 active torsions:
REMARK  status: ('A' for Active; 'I' for Inactive)
REMARK    1  A    between atoms: C_1  and  C_2
REMARK    2  A    between atoms: C_2  and  C_3
REMARK    3  A    between atoms: C_3  and  N_4
REMARK    4  A    between atoms: N_4  and  C_5
REMARK    5  A    between atoms: C_7  and  C_8
REMARK    6  A    between atoms: N_19  and  C_20
REMARK    7  A    between atoms: C_20  and  C_21
REMARK                            x       y       z     vdW  Elec       q    Type
REMARK                         _______ _______ _______ _____ _____    ______ ____
ROOT
ATOM      1  C   UNL     1       5.604   6.680  17.118  0.00  0.00    +0.000 A 
ATOM      2  N   UNL     1       4.637   7.482  17.642  0.00  0.00    +0.000 NA
ATOM      3  C   UNL     1       3.483   6.950  18.105  0.00  0.00    +0.000 A 
ATOM      4  N   UNL     1       3.146   5.646  18.116  0.00  0.00    +0.000 NA
ATOM      5  C   UNL     1       4.102   4.893  17.554  0.00  0.00    +0.000 A 
ATOM      6  C   UNL     1       5.321   5.306  17.047  0.00  0.00    +0.000 A 
ATOM      7  N   UNL     1       6.002   4.219  16.561  0.00  0.00    +0.000 NA
ATOM      8  N   UNL     1       5.227   3.144  16.711  0.00  0.00    +0.000 NA
ATOM      9  N   UNL     1       4.084   3.551  17.313  0.00  0.00    +0.000 N 
ENDROOT
BRANCH   3  10
ATOM     10  C   UNL     1       2.474   7.901  18.586  0.00  0.00    +0.000 A 
ATOM     11  C   UNL     1       1.997   7.824  19.907  0.00  0.00    +0.000 A 
ATOM     12  C   UNL     1       1.062   8.739  20.392  0.00  0.00    +0.000 A 
ATOM     13  C   UNL     1       0.573   9.739  19.555  0.00  0.00    +0.000 A 
ATOM     14  C   UNL     1       1.021   9.827  18.240  0.00  0.00    +0.000 A 
ATOM     15  C   UNL     1       1.971   8.920  17.761  0.00  0.00    +0.000 A 
ENDBRANCH   3  10
BRANCH   1  16
ATOM     16  N   UNL     1       6.801   7.253  16.659  0.00  0.00    +0.000 N 
ATOM     17  H   UNL     1       7.212   6.697  15.915  0.00  0.00    +0.000 HD
BRANCH  16  18
ATOM     18  C   UNL     1       7.701   7.639  17.738  0.00  0.00    +0.000 C 
BRANCH  18  20
ATOM     19  C   UNL     1       8.906   9.534  18.846  0.00  0.00    +0.000 C 
ATOM     20  C   UNL     1       7.977   9.140  17.707  0.00  0.00    +0.000 C 
ENDBRANCH  18  20
ENDBRANCH  16  18
ENDBRANCH   1  16
BRANCH   9  21
ATOM     21  C   UNL     1       2.980   2.635  17.537  0.00  0.00    +0.000 C 
BRANCH  21  22
ATOM     22  C   UNL     1       2.432   2.766  18.937  0.00  0.00    +0.000 A 
ATOM     23  C   UNL     1       1.112   3.232  19.102  0.00  0.00    +0.000 A 
ATOM     24  C   UNL     1       0.527   3.308  20.366  0.00  0.00    +0.000 A 
ATOM     25  C   UNL     1       1.252   2.933  21.491  0.00  0.00    +0.000 A 
ATOM     26  C   UNL     1       2.572   2.503  21.353  0.00  0.00    +0.000 A 
ATOM     27  C   UNL     1       3.162   2.423  20.087  0.00  0.00    +0.000 A 
ATOM     28 CL   UNL     1       4.807   1.901  20.017  0.00  0.00    +0.000 Cl
ENDBRANCH  21  22
ENDBRANCH   9  21
TORSDOF 6
ENDMDL
MODEL 5
REMARK VINA RESULT:      -8.2      1.092      1.789
REMARK  Name = 
REMARK  7 active torsions:
REMARK  status: ('A' for Active; 'I' for Inactive)
REMARK    1  A    between atoms: C_1  and  C_2
REMARK    2  A    between atoms: C_2  and  C_3
REMARK    3  A    between atoms: C_3  and  N_4
REMARK    4  A    between atoms: N_4  and  C_5
REMARK    5  A    between atoms: C_7  and  C_8
REMARK    6  A    between atoms: N_19  and  C_20
REMARK    7  A    between atoms: C_20  and  C_21
REMARK                            x       y       z     vdW  Elec       q    Type
REMARK                         _______ _______ _______ _____ _____    ______ ____
ROOT
ATOM      1  C   UNL     1       7.496   6.280  17.688  0.00  0.00    +0.000 A 
ATOM      2  N   UNL     1       7.477   6.004  16.356  0.00  0.00    +0.000 NA
ATOM      3  C   UNL     1       6.701   5.007  15.874  0.00  0.00    +0.000 A 
ATOM      4  N   UNL     1       5.891   4.201  16.587  0.00  0.00    +0.000 NA
ATOM      5  C   UNL     1       5.969   4.473  17.898  0.00  0.00    +0.000 A 
ATOM      6  C   UNL     1       6.715   5.459  18.518  0.00  0.00    +0.000 A 
ATOM      7  N   UNL     1       6.512   5.396  19.873  0.00  0.00    +0.000 NA
ATOM      8  N   UNL     1       5.693   4.373  20.122  0.00  0.00    +0.000 NA
ATOM      9  N   UNL     1       5.364   3.820  18.930  0.00  0.00    +0.000 N 
ENDROOT
BRANCH   3  10
ATOM     10  C   UNL     1       6.801   4.740  14.434  0.00  0.00    +0.000 A 
ATOM     11  C   UNL     1       7.705   5.467  13.637  0.00  0.00    +0.000 A 
ATOM     12  C   UNL     1       7.838   5.204  12.273  0.00  0.00    +0.000 A 
ATOM     13  C   UNL     1       7.054   4.219  11.678  0.00  0.00    +0.000 A 
ATOM     14  C   UNL     1       6.143   3.497  12.444  0.00  0.00    +0.000 A 
ATOM     15  C   UNL     1       6.024   3.749  13.814  0.00  0.00    +0.000 A 
ENDBRANCH   3  10
BRANCH   1  16
ATOM     16  N   UNL     1       8.296   7.331  18.163  0.00  0.00    +0.000 N 
ATOM     17  H   UNL     1       8.491   7.225  19.155  0.00  0.00    +0.000 HD
BRANCH  16  18
ATOM     18  C   UNL     1       7.824   8.645  17.744  0.00  0.00    +0.000 C 
BRANCH  18  20
ATOM     19  C   UNL     1       8.370  11.089  17.731  0.00  0.00    +0.000 C 
ATOM     20  C   UNL     1       8.635   9.753  18.410  0.00  0.00    +0.000 C 
ENDBRANCH  18  20
ENDBRANCH  16  18
ENDBRANCH   1  16
BRANCH   9  21
ATOM     21  C   UNL     1       4.555   2.617  18.853  0.00  0.00    +0.000 C 
BRANCH  21  22
ATOM     22  C   UNL     1       3.085   2.934  18.980  0.00  0.00    +0.000 A 
ATOM     23  C   UNL     1       2.395   3.395  17.841  0.00  0.00    +0.000 A 
ATOM     24  C   UNL     1       1.021   3.637  17.878  0.00  0.00    +0.000 A 
ATOM     25  C   UNL     1       0.313   3.437  19.058  0.00  0.00    +0.000 A 
ATOM     26  C   UNL     1       0.983   3.015  20.205  0.00  0.00    +0.000 A 
ATOM     27  C   UNL     1       2.360   2.768  20.172  0.00  0.00    +0.000 A 
ATOM     28 CL   UNL     1       3.106   2.271  21.648  0.00  0.00    +0.000 Cl
ENDBRANCH  21  22
ENDBRANCH   9  21
TORSDOF 6
ENDMDL
MODEL 6
REMARK VINA RESULT:      -8.2      5.115      7.058
REMARK  Name = 
REMARK  7 active torsions:
REMARK  status: ('A' for Active; 'I' for Inactive)
REMARK    1  A    between atoms: C_1  and  C_2
REMARK    2  A    between atoms: C_2  and  C_3
REMARK    3  A    between atoms: C_3  and  N_4
REMARK    4  A    between atoms: N_4  and  C_5
REMARK    5  A    between atoms: C_7  and  C_8
REMARK    6  A    between atoms: N_19  and  C_20
REMARK    7  A    between atoms: C_20  and  C_21
REMARK                            x       y       z     vdW  Elec       q    Type
REMARK                         _______ _______ _______ _____ _____    ______ ____
ROOT
ATOM      1  C   UNL     1       2.567   5.743  20.310  0.00  0.00    +0.000 A 
ATOM      2  N   UNL     1       3.336   5.348  19.259  0.00  0.00    +0.000 NA
ATOM      3  C   UNL     1       3.543   6.179  18.213  0.00  0.00    +0.000 A 
ATOM      4  N   UNL     1       3.055   7.426  18.066  0.00  0.00    +0.000 NA
ATOM      5  C   UNL     1       2.269   7.763  19.098  0.00  0.00    +0.000 A 
ATOM      6  C   UNL     1       1.978   7.015  20.225  0.00  0.00    +0.000 A 
ATOM      7  N   UNL     1       1.131   7.727  21.035  0.00  0.00    +0.000 NA
ATOM      8  N   UNL     1       0.850   8.881  20.429  0.00  0.00    +0.000 NA
ATOM      9  N   UNL     1       1.540   8.903  19.264  0.00  0.00    +0.000 N 
ENDROOT
BRANCH   3  10
ATOM     10  C   UNL     1       4.327   5.638  17.097  0.00  0.00    +0.000 A 
ATOM     11  C   UNL     1       4.937   6.504  16.170  0.00  0.00    +0.000 A 
ATOM     12  C   UNL     1       5.715   6.010  15.122  0.00  0.00    +0.000 A 
ATOM     13  C   UNL     1       5.881   4.636  14.971  0.00  0.00    +0.000 A 
ATOM     14  C   UNL     1       5.275   3.759  15.867  0.00  0.00    +0.000 A 
ATOM     15  C   UNL     1       4.511   4.256  16.927  0.00  0.00    +0.000 A 
ENDBRANCH   3  10
BRANCH   1  16
ATOM     16  N   UNL     1       2.381   4.870  21.394  0.00  0.00    +0.000 N 
ATOM     17  H   UNL     1       3.097   5.007  22.103  0.00  0.00    +0.000 HD
BRANCH  16  18
ATOM     18  C   UNL     1       2.144   3.491  20.986  0.00  0.00    +0.000 C 
BRANCH  18  20
ATOM     19  C   UNL     1       0.931   2.563  19.002  0.00  0.00    +0.000 C 
ATOM     20  C   UNL     1       0.791   3.353  20.295  0.00  0.00    +0.000 C 
ENDBRANCH  18  20
ENDBRANCH  16  18
ENDBRANCH   1  16
BRANCH   9  21
ATOM     21  C   UNL     1       1.381   9.989  18.312  0.00  0.00    +0.000 C 
BRANCH  21  22
ATOM     22  C   UNL     1      -0.031  10.522  18.317  0.00  0.00    +0.000 A 
ATOM     23  C   UNL     1      -1.025   9.801  17.626  0.00  0.00    +0.000 A 
ATOM     24  C   UNL     1      -2.360  10.206  17.653  0.00  0.00    +0.000 A 
ATOM     25  C   UNL     1      -2.725  11.347  18.358  0.00  0.00    +0.000 A 
ATOM     26  C   UNL     1      -1.751  12.094  19.020  0.00  0.00    +0.000 A 
ATOM     27  C   UNL     1      -0.412  11.690  18.998  0.00  0.00    +0.000 A 
ATOM     28 CL   UNL     1       0.726  12.692  19.825  0.00  0.00    +0.000 Cl
ENDBRANCH  21  22
ENDBRANCH   9  21
TORSDOF 6
ENDMDL
MODEL 7
REMARK VINA RESULT:      -8.1      1.102      1.452
REMARK  Name = 
REMARK  7 active torsions:
REMARK  status: ('A' for Active; 'I' for Inactive)
REMARK    1  A    between atoms: C_1  and  C_2
REMARK    2  A    between atoms: C_2  and  C_3
REMARK    3  A    between atoms: C_3  and  N_4
REMARK    4  A    between atoms: N_4  and  C_5
REMARK    5  A    between atoms: C_7  and  C_8
REMARK    6  A    between atoms: N_19  and  C_20
REMARK    7  A    between atoms: C_20  and  C_21
REMARK                            x       y       z     vdW  Elec       q    Type
REMARK                         _______ _______ _______ _____ _____    ______ ____
ROOT
ATOM      1  C   UNL     1       7.462   6.416  17.562  0.00  0.00    +0.000 A 
ATOM      2  N   UNL     1       7.519   6.122  16.235  0.00  0.00    +0.000 NA
ATOM      3  C   UNL     1       6.716   5.170  15.709  0.00  0.00    +0.000 A 
ATOM      4  N   UNL     1       5.808   4.428  16.371  0.00  0.00    +0.000 NA
ATOM      5  C   UNL     1       5.810   4.714  17.681  0.00  0.00    +0.000 A 
ATOM      6  C   UNL     1       6.572   5.659  18.343  0.00  0.00    +0.000 A 
ATOM      7  N   UNL     1       6.271   5.629  19.680  0.00  0.00    +0.000 NA
ATOM      8  N   UNL     1       5.373   4.664  19.881  0.00  0.00    +0.000 NA
ATOM      9  N   UNL     1       5.093   4.115  18.674  0.00  0.00    +0.000 N 
ENDROOT
BRANCH   3  10
ATOM     10  C   UNL     1       6.900   4.876  14.283  0.00  0.00    +0.000 A 
ATOM     11  C   UNL     1       6.169   3.843  13.669  0.00  0.00    +0.000 A 
ATOM     12  C   UNL     1       6.306   3.571  12.307  0.00  0.00    +0.000 A 
ATOM     13  C   UNL     1       7.194   4.318  11.538  0.00  0.00    +0.000 A 
ATOM     14  C   UNL     1       7.939   5.337  12.126  0.00  0.00    +0.000 A 
ATOM     15  C   UNL     1       7.787   5.620  13.487  0.00  0.00    +0.000 A 
ENDBRANCH   3  10
BRANCH   1  16
ATOM     16  N   UNL     1       8.293   7.421  18.082  0.00  0.00    +0.000 N 
ATOM     17  H   UNL     1       8.439   7.296  19.080  0.00  0.00    +0.000 HD
BRANCH  16  18
ATOM     18  C   UNL     1       7.906   8.761  17.658  0.00  0.00    +0.000 C 
BRANCH  18  20
ATOM     19  C   UNL     1       9.485  10.688  17.909  0.00  0.00    +0.000 C 
ATOM     20  C   UNL     1       8.457   9.815  18.614  0.00  0.00    +0.000 C 
ENDBRANCH  18  20
ENDBRANCH  16  18
ENDBRANCH   1  16
BRANCH   9  21
ATOM     21  C   UNL     1       4.215   2.966  18.552  0.00  0.00    +0.000 C 
BRANCH  21  22
ATOM     22  C   UNL     1       3.133   2.985  19.603  0.00  0.00    +0.000 A 
ATOM     23  C   UNL     1       1.933   3.669  19.322  0.00  0.00    +0.000 A 
ATOM     24  C   UNL     1       0.870   3.663  20.225  0.00  0.00    +0.000 A 
ATOM     25  C   UNL     1       0.990   2.986  21.434  0.00  0.00    +0.000 A 
ATOM     26  C   UNL     1       2.181   2.332  21.747  0.00  0.00    +0.000 A 
ATOM     27  C   UNL     1       3.249   2.334  20.842  0.00  0.00    +0.000 A 
ATOM     28 CL   UNL     1       4.692   1.518  21.327  0.00  0.00    +0.000 Cl
ENDBRANCH  21  22
ENDBRANCH   9  21
TORSDOF 6
ENDMDL
MODEL 8
REMARK VINA RESULT:      -8.0      3.060      5.271
REMARK  Name = 
REMARK  7 active torsions:
REMARK  status: ('A' for Active; 'I' for Inactive)
REMARK    1  A    between atoms: C_1  and  C_2
REMARK    2  A    between atoms: C_2  and  C_3
REMARK    3  A    between atoms: C_3  and  N_4
REMARK    4  A    between atoms: N_4  and  C_5
REMARK    5  A    between atoms: C_7  and  C_8
REMARK    6  A    between atoms: N_19  and  C_20
REMARK    7  A    between atoms: C_20  and  C_21
REMARK                            x       y       z     vdW  Elec       q    Type
REMARK                         _______ _______ _______ _____ _____    ______ ____
ROOT
ATOM      1  C   UNL     1       5.226   6.577  16.894  0.00  0.00    +0.000 A 
ATOM      2  N   UNL     1       4.332   7.394  17.512  0.00  0.00    +0.000 NA
ATOM      3  C   UNL     1       3.225   6.882  18.096  0.00  0.00    +0.000 A 
ATOM      4  N   UNL     1       2.872   5.583  18.149  0.00  0.00    +0.000 NA
ATOM      5  C   UNL     1       3.753   4.814  17.494  0.00  0.00    +0.000 A 
ATOM      6  C   UNL     1       4.918   5.207  16.861  0.00  0.00    +0.000 A 
ATOM      7  N   UNL     1       5.528   4.108  16.312  0.00  0.00    +0.000 NA
ATOM      8  N   UNL     1       4.758   3.045  16.547  0.00  0.00    +0.000 NA
ATOM      9  N   UNL     1       3.690   3.471  17.263  0.00  0.00    +0.000 N 
ENDROOT
BRANCH   3  10
ATOM     10  C   UNL     1       2.286   7.849  18.675  0.00  0.00    +0.000 A 
ATOM     11  C   UNL     1       1.715   8.854  17.873  0.00  0.00    +0.000 A 
ATOM     12  C   UNL     1       0.794   9.762  18.398  0.00  0.00    +0.000 A 
ATOM     13  C   UNL     1       0.441   9.691  19.743  0.00  0.00    +0.000 A 
ATOM     14  C   UNL     1       1.004   8.713  20.559  0.00  0.00    +0.000 A 
ATOM     15  C   UNL     1       1.913   7.793  20.027  0.00  0.00    +0.000 A 
ENDBRANCH   3  10
BRANCH   1  16
ATOM     16  N   UNL     1       6.377   7.130  16.310  0.00  0.00    +0.000 N 
ATOM     17  H   UNL     1       6.305   7.141  15.296  0.00  0.00    +0.000 HD
BRANCH  16  18
ATOM     18  C   UNL     1       7.614   6.585  16.855  0.00  0.00    +0.000 C 
BRANCH  18  20
ATOM     19  C   UNL     1       7.864   5.806  19.222  0.00  0.00    +0.000 C 
ATOM     20  C   UNL     1       7.808   7.019  18.305  0.00  0.00    +0.000 C 
ENDBRANCH  18  20
ENDBRANCH  16  18
ENDBRANCH   1  16
BRANCH   9  21
ATOM     21  C   UNL     1       2.603   2.572  17.606  0.00  0.00    +0.000 C 
BRANCH  21  22
ATOM     22  C   UNL     1       2.217   2.704  19.060  0.00  0.00    +0.000 A 
ATOM     23  C   UNL     1       0.911   3.129  19.373  0.00  0.00    +0.000 A 
ATOM     24  C   UNL     1       0.475   3.202  20.697  0.00  0.00    +0.000 A 
ATOM     25  C   UNL     1       1.340   2.867  21.733  0.00  0.00    +0.000 A 
ATOM     26  C   UNL     1       2.647   2.478  21.445  0.00  0.00    +0.000 A 
ATOM     27  C   UNL     1       3.088   2.401  20.119  0.00  0.00    +0.000 A 
ATOM     28 CL   UNL     1       4.731   1.933  19.862  0.00  0.00    +0.000 Cl
ENDBRANCH  21  22
ENDBRANCH   9  21
TORSDOF 6
ENDMDL
MODEL 9
REMARK VINA RESULT:      -7.9      5.035      7.012
REMARK  Name = 
REMARK  7 active torsions:
REMARK  status: ('A' for Active; 'I' for Inactive)
REMARK    1  A    between atoms: C_1  and  C_2
REMARK    2  A    between atoms: C_2  and  C_3
REMARK    3  A    between atoms: C_3  and  N_4
REMARK    4  A    between atoms: N_4  and  C_5
REMARK    5  A    between atoms: C_7  and  C_8
REMARK    6  A    between atoms: N_19  and  C_20
REMARK    7  A    between atoms: C_20  and  C_21
REMARK                            x       y       z     vdW  Elec       q    Type
REMARK                         _______ _______ _______ _____ _____    ______ ____
ROOT
ATOM      1  C   UNL     1       2.688   5.625  20.164  0.00  0.00    +0.000 A 
ATOM      2  N   UNL     1       3.467   5.204  19.130  0.00  0.00    +0.000 NA
ATOM      3  C   UNL     1       3.701   6.017  18.075  0.00  0.00    +0.000 A 
ATOM      4  N   UNL     1       3.235   7.269  17.904  0.00  0.00    +0.000 NA
ATOM      5  C   UNL     1       2.439   7.633  18.920  0.00  0.00    +0.000 A 
ATOM      6  C   UNL     1       2.121   6.906  20.052  0.00  0.00    +0.000 A 
ATOM      7  N   UNL     1       1.273   7.642  20.840  0.00  0.00    +0.000 NA
ATOM      8  N   UNL     1       1.019   8.791  20.214  0.00  0.00    +0.000 NA
ATOM      9  N   UNL     1       1.725   8.786  19.058  0.00  0.00    +0.000 N 
ENDROOT
BRANCH   3  10
ATOM     10  C   UNL     1       4.493   5.448  16.978  0.00  0.00    +0.000 A 
ATOM     11  C   UNL     1       5.079   6.289  16.014  0.00  0.00    +0.000 A 
ATOM     12  C   UNL     1       5.863   5.769  14.983  0.00  0.00    +0.000 A 
ATOM     13  C   UNL     1       6.061   4.394  14.888  0.00  0.00    +0.000 A 
ATOM     14  C   UNL     1       5.480   3.542  15.824  0.00  0.00    +0.000 A 
ATOM     15  C   UNL     1       4.709   4.065  16.866  0.00  0.00    +0.000 A 
ENDBRANCH   3  10
BRANCH   1  16
ATOM     16  N   UNL     1       2.473   4.771  21.258  0.00  0.00    +0.000 N 
ATOM     17  H   UNL     1       3.167   4.924  21.984  0.00  0.00    +0.000 HD
BRANCH  16  18
ATOM     18  C   UNL     1       2.255   3.384  20.867  0.00  0.00    +0.000 C 
BRANCH  18  20
ATOM     19  C   UNL     1       0.921   2.543  18.922  0.00  0.00    +0.000 C 
ATOM     20  C   UNL     1       0.853   3.194  20.296  0.00  0.00    +0.000 C 
ENDBRANCH  18  20
ENDBRANCH  16  18
ENDBRANCH   1  16
BRANCH   9  21
ATOM     21  C   UNL     1       1.597   9.860  18.089  0.00  0.00    +0.000 C 
BRANCH  21  22
ATOM     22  C   UNL     1       0.769  10.997  18.635  0.00  0.00    +0.000 A 
ATOM     23  C   UNL     1       1.412  11.992  19.399  0.00  0.00    +0.000 A 
ATOM     24  C   UNL     1       0.713  13.103  19.871  0.00  0.00    +0.000 A 
ATOM     25  C   UNL     1      -0.644  13.237  19.601  0.00  0.00    +0.000 A 
ATOM     26  C   UNL     1      -1.306  12.246  18.876  0.00  0.00    +0.000 A 
ATOM     27  C   UNL     1      -0.609  11.131  18.399  0.00  0.00    +0.000 A 
ATOM     28 CL   UNL     1      -1.519   9.946  17.533  0.00  0.00    +0.000 Cl
ENDBRANCH  21  22
ENDBRANCH   9  21
TORSDOF 6
ENDMDL
