MODEL 1
REMARK VINA RESULT:      -7.7      0.000      0.000
REMARK  Name = 
REMARK  3 active torsions:
REMARK  status: ('A' for Active; 'I' for Inactive)
REMARK    1  A    between atoms: C_5  and  S_6
REMARK    2  A    between atoms: S_6  and  C_7
REMARK    3  A    between atoms: C_12  and  N_13
REMARK                            x       y       z     vdW  Elec       q    Type
REMARK                         _______ _______ _______ _____ _____    ______ ____
ROOT
ATOM      1  C   UNL     1       3.110   5.256  17.697  0.00  0.00    +0.000 A 
ATOM      2  C   UNL     1       1.821   5.034  18.209  0.00  0.00    +0.000 A 
ATOM      3  C   UNL     1       1.339   3.748  18.420  0.00  0.00    +0.000 A 
ATOM      4  C   UNL     1       2.137   2.654  18.120  0.00  0.00    +0.000 A 
ATOM      5  C   UNL     1       3.421   2.842  17.611  0.00  0.00    +0.000 A 
ATOM      6  C   UNL     1       3.956   4.137  17.389  0.00  0.00    +0.000 A 
ENDROOT
BRANCH   6   7
ATOM      7  N   UNL     1       5.316   4.241  16.899  0.00  0.00    +0.000 N 
ATOM      8  C   UNL     1       5.679   3.814  15.550  0.00  0.00    +0.000 C 
ATOM      9  C   UNL     1       6.409   4.966  14.848  0.00  0.00    +0.000 C 
ATOM     10  N   UNL     1       7.573   5.383  15.645  0.00  0.00    +0.000 NA
ATOM     11  C   UNL     1       7.158   5.829  16.982  0.00  0.00    +0.000 C 
ATOM     12  C   UNL     1       6.441   4.686  17.708  0.00  0.00    +0.000 C 
ATOM     13  H   UNL     1       8.049   6.175  15.154  0.00  0.00    +0.000 HD
ENDBRANCH   6   7
BRANCH   1  14
ATOM     14  S   UNL     1       3.528   7.000  17.473  0.00  0.00    +0.000 S 
BRANCH  14  19
ATOM     15 CL   UNL     1      -0.355   9.820  21.670  0.00  0.00    +0.000 Cl
ATOM     16  C   UNL     1       0.711   9.033  20.515  0.00  0.00    +0.000 A 
ATOM     17  C   UNL     1       1.415   7.889  20.901  0.00  0.00    +0.000 A 
ATOM     18  C   UNL     1       2.273   7.246  20.001  0.00  0.00    +0.000 A 
ATOM     19  C   UNL     1       2.425   7.743  18.696  0.00  0.00    +0.000 A 
ATOM     20  C   UNL     1       1.724   8.894  18.316  0.00  0.00    +0.000 A 
ATOM     21  C   UNL     1       0.873   9.540  19.214  0.00  0.00    +0.000 A 
ATOM     22 CL   UNL     1       0.029  10.989  18.687  0.00  0.00    +0.000 Cl
ENDBRANCH  14  19
ENDBRANCH   1  14
TORSDOF 3
ENDMDL
MODEL 2
REMARK VINA RESULT:      -7.4      4.254      6.938
REMARK  Name = 
REMARK  3 active torsions:
REMARK  status: ('A' for Active; 'I' for Inactive)
REMARK    1  A    between atoms: C_5  and  S_6
REMARK    2  A    between atoms: S_6  and  C_7
REMARK    3  A    between atoms: C_12  and  N_13
REMARK                            x       y       z     vdW  Elec       q    Type
REMARK                         _______ _______ _______ _____ _____    ______ ____
ROOT
ATOM      1  C   UNL     1       3.847   5.644  18.113  0.00  0.00    +0.000 A 
ATOM      2  C   UNL     1       4.386   6.758  17.448  0.00  0.00    +0.000 A 
ATOM      3  C   UNL     1       3.689   7.957  17.366  0.00  0.00    +0.000 A 
ATOM      4  C   UNL     1       2.435   8.066  17.947  0.00  0.00    +0.000 A 
ATOM      5  C   UNL     1       1.874   6.979  18.614  0.00  0.00    +0.000 A 
ATOM      6  C   UNL     1       2.555   5.740  18.730  0.00  0.00    +0.000 A 
ENDROOT
BRANCH   6   7
ATOM      7  N   UNL     1       1.917   4.676  19.479  0.00  0.00    +0.000 N 
ATOM      8  C   UNL     1       1.298   3.533  18.811  0.00  0.00    +0.000 C 
ATOM      9  C   UNL     1       1.871   2.242  19.410  0.00  0.00    +0.000 C 
ATOM     10  N   UNL     1       1.665   2.229  20.867  0.00  0.00    +0.000 NA
ATOM     11  C   UNL     1       2.327   3.380  21.498  0.00  0.00    +0.000 C 
ATOM     12  C   UNL     1       1.756   4.681  20.926  0.00  0.00    +0.000 C 
ATOM     13  H   UNL     1       2.073   1.347  21.255  0.00  0.00    +0.000 HD
ENDBRANCH   6   7
BRANCH   1  14
ATOM     14  S   UNL     1       4.904   4.178  18.077  0.00  0.00    +0.000 S 
BRANCH  14  19
ATOM     15 CL   UNL     1       7.795   4.982  12.451  0.00  0.00    +0.000 Cl
ATOM     16  C   UNL     1       6.999   4.770  14.005  0.00  0.00    +0.000 A 
ATOM     17  C   UNL     1       7.651   5.184  15.170  0.00  0.00    +0.000 A 
ATOM     18  C   UNL     1       7.041   5.023  16.420  0.00  0.00    +0.000 A 
ATOM     19  C   UNL     1       5.762   4.451  16.510  0.00  0.00    +0.000 A 
ATOM     20  C   UNL     1       5.116   4.031  15.341  0.00  0.00    +0.000 A 
ATOM     21  C   UNL     1       5.725   4.184  14.095  0.00  0.00    +0.000 A 
ATOM     22 CL   UNL     1       4.874   3.624  12.662  0.00  0.00    +0.000 Cl
ENDBRANCH  14  19
ENDBRANCH   1  14
TORSDOF 3
ENDMDL
MODEL 3
REMARK VINA RESULT:      -7.4      1.670      3.935
REMARK  Name = 
REMARK  3 active torsions:
REMARK  status: ('A' for Active; 'I' for Inactive)
REMARK    1  A    between atoms: C_5  and  S_6
REMARK    2  A    between atoms: S_6  and  C_7
REMARK    3  A    between atoms: C_12  and  N_13
REMARK                            x       y       z     vdW  Elec       q    Type
REMARK                         _______ _______ _______ _____ _____    ______ ____
ROOT
ATOM      1  C   UNL     1       4.322   5.585  18.045  0.00  0.00    +0.000 A 
ATOM      2  C   UNL     1       5.222   6.594  17.660  0.00  0.00    +0.000 A 
ATOM      3  C   UNL     1       5.904   6.529  16.452  0.00  0.00    +0.000 A 
ATOM      4  C   UNL     1       5.703   5.452  15.602  0.00  0.00    +0.000 A 
ATOM      5  C   UNL     1       4.817   4.436  15.955  0.00  0.00    +0.000 A 
ATOM      6  C   UNL     1       4.092   4.467  17.175  0.00  0.00    +0.000 A 
ENDROOT
BRANCH   6   7
ATOM      7  N   UNL     1       3.158   3.392  17.442  0.00  0.00    +0.000 N 
ATOM      8  C   UNL     1       3.611   2.020  17.664  0.00  0.00    +0.000 C 
ATOM      9  C   UNL     1       3.015   1.512  18.983  0.00  0.00    +0.000 C 
ATOM     10  N   UNL     1       1.549   1.628  18.951  0.00  0.00    +0.000 NA
ATOM     11  C   UNL     1       1.140   3.026  18.753  0.00  0.00    +0.000 C 
ATOM     12  C   UNL     1       1.710   3.548  17.431  0.00  0.00    +0.000 C 
ATOM     13  H   UNL     1       1.165   1.286  19.862  0.00  0.00    +0.000 HD
ENDBRANCH   6   7
BRANCH   1  14
ATOM     14  S   UNL     1       3.564   5.848  19.664  0.00  0.00    +0.000 S 
BRANCH  14  19
ATOM     15 CL   UNL     1      -0.143  10.919  18.569  0.00  0.00    +0.000 Cl
ATOM     16  C   UNL     1       0.887   9.526  18.867  0.00  0.00    +0.000 A 
ATOM     17  C   UNL     1       1.594   8.957  17.803  0.00  0.00    +0.000 A 
ATOM     18  C   UNL     1       2.417   7.845  18.012  0.00  0.00    +0.000 A 
ATOM     19  C   UNL     1       2.547   7.297  19.299  0.00  0.00    +0.000 A 
ATOM     20  C   UNL     1       1.832   7.865  20.360  0.00  0.00    +0.000 A 
ATOM     21  C   UNL     1       1.005   8.970  20.152  0.00  0.00    +0.000 A 
ATOM     22 CL   UNL     1       0.119   9.633  21.518  0.00  0.00    +0.000 Cl
ENDBRANCH  14  19
ENDBRANCH   1  14
TORSDOF 3
ENDMDL
MODEL 4
REMARK VINA RESULT:      -7.3      0.751      1.308
REMARK  Name = 
REMARK  3 active torsions:
REMARK  status: ('A' for Active; 'I' for Inactive)
REMARK    1  A    between atoms: C_5  and  S_6
REMARK    2  A    between atoms: S_6  and  C_7
REMARK    3  A    between atoms: C_12  and  N_13
REMARK                            x       y       z     vdW  Elec       q    Type
REMARK                         _______ _______ _______ _____ _____    ______ ____
ROOT
ATOM      1  C   UNL     1       2.884   5.794  17.803  0.00  0.00    +0.000 A 
ATOM      2  C   UNL     1       1.656   5.370  18.340  0.00  0.00    +0.000 A 
ATOM      3  C   UNL     1       1.374   4.022  18.519  0.00  0.00    +0.000 A 
ATOM      4  C   UNL     1       2.314   3.067  18.163  0.00  0.00    +0.000 A 
ATOM      5  C   UNL     1       3.540   3.456  17.628  0.00  0.00    +0.000 A 
ATOM      6  C   UNL     1       3.874   4.821  17.437  0.00  0.00    +0.000 A 
ENDROOT
BRANCH   6   7
ATOM      7  N   UNL     1       5.189   5.138  16.917  0.00  0.00    +0.000 N 
ATOM      8  C   UNL     1       6.325   5.383  17.803  0.00  0.00    +0.000 C 
ATOM      9  C   UNL     1       7.485   4.473  17.382  0.00  0.00    +0.000 C 
ATOM     10  N   UNL     1       7.811   4.695  15.965  0.00  0.00    +0.000 NA
ATOM     11  C   UNL     1       6.649   4.409  15.111  0.00  0.00    +0.000 C 
ATOM     12  C   UNL     1       5.483   5.323  15.503  0.00  0.00    +0.000 C 
ATOM     13  H   UNL     1       8.596   4.057  15.698  0.00  0.00    +0.000 HD
ENDBRANCH   6   7
BRANCH   1  14
ATOM     14  S   UNL     1       3.036   7.586  17.628  0.00  0.00    +0.000 S 
BRANCH  14  19
ATOM     15 CL   UNL     1      -0.579   9.685  22.442  0.00  0.00    +0.000 Cl
ATOM     16  C   UNL     1       0.414   9.097  21.116  0.00  0.00    +0.000 A 
ATOM     17  C   UNL     1       1.230   7.980  21.314  0.00  0.00    +0.000 A 
ATOM     18  C   UNL     1       2.033   7.494  20.276  0.00  0.00    +0.000 A 
ATOM     19  C   UNL     1       2.016   8.122  19.020  0.00  0.00    +0.000 A 
ATOM     20  C   UNL     1       1.203   9.245  18.827  0.00  0.00    +0.000 A 
ATOM     21  C   UNL     1       0.406   9.735  19.864  0.00  0.00    +0.000 A 
ATOM     22 CL   UNL     1      -0.584  11.158  19.570  0.00  0.00    +0.000 Cl
ENDBRANCH  14  19
ENDBRANCH   1  14
TORSDOF 3
ENDMDL
MODEL 5
REMARK VINA RESULT:      -7.1      1.736      4.149
REMARK  Name = 
REMARK  3 active torsions:
REMARK  status: ('A' for Active; 'I' for Inactive)
REMARK    1  A    between atoms: C_5  and  S_6
REMARK    2  A    between atoms: S_6  and  C_7
REMARK    3  A    between atoms: C_12  and  N_13
REMARK                            x       y       z     vdW  Elec       q    Type
REMARK                         _______ _______ _______ _____ _____    ______ ____
ROOT
ATOM      1  C   UNL     1       5.403   4.817  17.687  0.00  0.00    +0.000 A 
ATOM      2  C   UNL     1       6.566   5.424  17.184  0.00  0.00    +0.000 A 
ATOM      3  C   UNL     1       7.043   5.128  15.913  0.00  0.00    +0.000 A 
ATOM      4  C   UNL     1       6.368   4.215  15.118  0.00  0.00    +0.000 A 
ATOM      5  C   UNL     1       5.211   3.596  15.589  0.00  0.00    +0.000 A 
ATOM      6  C   UNL     1       4.684   3.876  16.876  0.00  0.00    +0.000 A 
ENDROOT
BRANCH   6   7
ATOM      7  N   UNL     1       3.452   3.221  17.267  0.00  0.00    +0.000 N 
ATOM      8  C   UNL     1       3.445   1.866  17.816  0.00  0.00    +0.000 C 
ATOM      9  C   UNL     1       2.681   1.876  19.145  0.00  0.00    +0.000 C 
ATOM     10  N   UNL     1       1.327   2.414  18.943  0.00  0.00    +0.000 NA
ATOM     11  C   UNL     1       1.383   3.786  18.418  0.00  0.00    +0.000 C 
ATOM     12  C   UNL     1       2.128   3.796  17.079  0.00  0.00    +0.000 C 
ATOM     13  H   UNL     1       0.828   2.422  19.863  0.00  0.00    +0.000 HD
ENDBRANCH   6   7
BRANCH   1  14
ATOM     14  S   UNL     1       4.974   5.320  19.369  0.00  0.00    +0.000 S 
BRANCH  14  19
ATOM     15 CL   UNL     1       0.497   9.723  18.268  0.00  0.00    +0.000 Cl
ATOM     16  C   UNL     1       1.738   8.515  18.568  0.00  0.00    +0.000 A 
ATOM     17  C   UNL     1       2.649   8.202  17.555  0.00  0.00    +0.000 A 
ATOM     18  C   UNL     1       3.644   7.241  17.767  0.00  0.00    +0.000 A 
ATOM     19  C   UNL     1       3.742   6.591  19.008  0.00  0.00    +0.000 A 
ATOM     20  C   UNL     1       2.824   6.903  20.018  0.00  0.00    +0.000 A 
ATOM     21  C   UNL     1       1.826   7.856  19.806  0.00  0.00    +0.000 A 
ATOM     22 CL   UNL     1       0.691   8.196  21.105  0.00  0.00    +0.000 Cl
ENDBRANCH  14  19
ENDBRANCH   1  14
TORSDOF 3
ENDMDL
MODEL 6
REMARK VINA RESULT:      -7.1      4.385      6.696
REMARK  Name = 
REMARK  3 active torsions:
REMARK  status: ('A' for Active; 'I' for Inactive)
REMARK    1  A    between atoms: C_5  and  S_6
REMARK    2  A    between atoms: S_6  and  C_7
REMARK    3  A    between atoms: C_12  and  N_13
REMARK                            x       y       z     vdW  Elec       q    Type
REMARK                         _______ _______ _______ _____ _____    ______ ____
ROOT
ATOM      1  C   UNL     1       4.525   5.869  17.977  0.00  0.00    +0.000 A 
ATOM      2  C   UNL     1       4.511   7.225  17.613  0.00  0.00    +0.000 A 
ATOM      3  C   UNL     1       3.327   7.952  17.585  0.00  0.00    +0.000 A 
ATOM      4  C   UNL     1       2.131   7.337  17.919  0.00  0.00    +0.000 A 
ATOM      5  C   UNL     1       2.113   5.992  18.285  0.00  0.00    +0.000 A 
ATOM      6  C   UNL     1       3.298   5.215  18.337  0.00  0.00    +0.000 A 
ENDROOT
BRANCH   6   7
ATOM      7  N   UNL     1       3.194   3.836  18.771  0.00  0.00    +0.000 N 
ATOM      8  C   UNL     1       2.628   2.802  17.909  0.00  0.00    +0.000 C 
ATOM      9  C   UNL     1       3.624   1.640  17.812  0.00  0.00    +0.000 C 
ATOM     10  N   UNL     1       3.949   1.143  19.158  0.00  0.00    +0.000 NA
ATOM     11  C   UNL     1       4.541   2.208  19.979  0.00  0.00    +0.000 C 
ATOM     12  C   UNL     1       3.553   3.373  20.104  0.00  0.00    +0.000 C 
ATOM     13  H   UNL     1       4.637   0.360  19.069  0.00  0.00    +0.000 HD
ENDBRANCH   6   7
BRANCH   1  14
ATOM     14  S   UNL     1       6.162   5.104  17.920  0.00  0.00    +0.000 S 
BRANCH  14  19
ATOM     15 CL   UNL     1       6.514   3.661  11.720  0.00  0.00    +0.000 Cl
ATOM     16  C   UNL     1       6.417   4.049  13.432  0.00  0.00    +0.000 A 
ATOM     17  C   UNL     1       5.422   3.454  14.214  0.00  0.00    +0.000 A 
ATOM     18  C   UNL     1       5.321   3.749  15.578  0.00  0.00    +0.000 A 
ATOM     19  C   UNL     1       6.228   4.640  16.175  0.00  0.00    +0.000 A 
ATOM     20  C   UNL     1       7.218   5.239  15.387  0.00  0.00    +0.000 A 
ATOM     21  C   UNL     1       7.316   4.952  14.025  0.00  0.00    +0.000 A 
ATOM     22 CL   UNL     1       8.570   5.745  13.081  0.00  0.00    +0.000 Cl
ENDBRANCH  14  19
ENDBRANCH   1  14
TORSDOF 3
ENDMDL
MODEL 7
REMARK VINA RESULT:      -7.0      1.674      3.785
REMARK  Name = 
REMARK  3 active torsions:
REMARK  status: ('A' for Active; 'I' for Inactive)
REMARK    1  A    between atoms: C_5  and  S_6
REMARK    2  A    between atoms: S_6  and  C_7
REMARK    3  A    between atoms: C_12  and  N_13
REMARK                            x       y       z     vdW  Elec       q    Type
REMARK                         _______ _______ _______ _____ _____    ______ ____
ROOT
ATOM      1  C   UNL     1       5.614   6.300  17.558  0.00  0.00    +0.000 A 
ATOM      2  C   UNL     1       6.601   7.300  17.588  0.00  0.00    +0.000 A 
ATOM      3  C   UNL     1       7.791   7.119  18.281  0.00  0.00    +0.000 A 
ATOM      4  C   UNL     1       8.020   5.933  18.962  0.00  0.00    +0.000 A 
ATOM      5  C   UNL     1       7.061   4.922  18.951  0.00  0.00    +0.000 A 
ATOM      6  C   UNL     1       5.836   5.061  18.248  0.00  0.00    +0.000 A 
ENDROOT
BRANCH   6   7
ATOM      7  N   UNL     1       4.915   3.942  18.253  0.00  0.00    +0.000 N 
ATOM      8  C   UNL     1       4.629   3.190  19.472  0.00  0.00    +0.000 C 
ATOM      9  C   UNL     1       3.109   3.140  19.676  0.00  0.00    +0.000 C 
ATOM     10  N   UNL     1       2.460   2.565  18.488  0.00  0.00    +0.000 NA
ATOM     11  C   UNL     1       2.753   3.369  17.293  0.00  0.00    +0.000 C 
ATOM     12  C   UNL     1       4.266   3.416  17.060  0.00  0.00    +0.000 C 
ATOM     13  H   UNL     1       1.426   2.551  18.645  0.00  0.00    +0.000 HD
ENDBRANCH   6   7
BRANCH   1  14
ATOM     14  S   UNL     1       4.133   6.749  16.625  0.00  0.00    +0.000 S 
BRANCH  14  19
ATOM     15 CL   UNL     1       0.449   9.040  21.297  0.00  0.00    +0.000 Cl
ATOM     16  C   UNL     1       1.460   8.400  20.009  0.00  0.00    +0.000 A 
ATOM     17  C   UNL     1       2.091   7.165  20.183  0.00  0.00    +0.000 A 
ATOM     18  C   UNL     1       2.904   6.634  19.175  0.00  0.00    +0.000 A 
ATOM     19  C   UNL     1       3.083   7.337  17.973  0.00  0.00    +0.000 A 
ATOM     20  C   UNL     1       2.456   8.578  17.805  0.00  0.00    +0.000 A 
ATOM     21  C   UNL     1       1.650   9.111  18.812  0.00  0.00    +0.000 A 
ATOM     22 CL   UNL     1       0.899  10.680  18.553  0.00  0.00    +0.000 Cl
ENDBRANCH  14  19
ENDBRANCH   1  14
TORSDOF 3
ENDMDL
MODEL 8
REMARK VINA RESULT:      -7.0      1.010      1.225
REMARK  Name = 
REMARK  3 active torsions:
REMARK  status: ('A' for Active; 'I' for Inactive)
REMARK    1  A    between atoms: C_5  and  S_6
REMARK    2  A    between atoms: S_6  and  C_7
REMARK    3  A    between atoms: C_12  and  N_13
REMARK                            x       y       z     vdW  Elec       q    Type
REMARK                         _______ _______ _______ _____ _____    ______ ____
ROOT
ATOM      1  C   UNL     1       3.073   5.488  17.789  0.00  0.00    +0.000 A 
ATOM      2  C   UNL     1       1.726   5.093  17.835  0.00  0.00    +0.000 A 
ATOM      3  C   UNL     1       1.370   3.758  17.980  0.00  0.00    +0.000 A 
ATOM      4  C   UNL     1       2.356   2.787  18.080  0.00  0.00    +0.000 A 
ATOM      5  C   UNL     1       3.701   3.148  18.038  0.00  0.00    +0.000 A 
ATOM      6  C   UNL     1       4.109   4.500  17.901  0.00  0.00    +0.000 A 
ENDROOT
BRANCH   6   7
ATOM      7  N   UNL     1       5.528   4.791  17.912  0.00  0.00    +0.000 N 
ATOM      8  C   UNL     1       6.213   5.314  16.732  0.00  0.00    +0.000 C 
ATOM      9  C   UNL     1       6.976   6.585  17.127  0.00  0.00    +0.000 C 
ATOM     10  N   UNL     1       7.897   6.294  18.236  0.00  0.00    +0.000 NA
ATOM     11  C   UNL     1       7.163   5.798  19.408  0.00  0.00    +0.000 C 
ATOM     12  C   UNL     1       6.408   4.517  19.040  0.00  0.00    +0.000 C 
ATOM     13  H   UNL     1       8.398   7.175  18.496  0.00  0.00    +0.000 HD
ENDBRANCH   6   7
BRANCH   1  14
ATOM     14  S   UNL     1       3.316   7.266  17.568  0.00  0.00    +0.000 S 
BRANCH  14  19
ATOM     15 CL   UNL     1      -0.416   9.681  22.138  0.00  0.00    +0.000 Cl
ATOM     16  C   UNL     1       0.608   9.006  20.879  0.00  0.00    +0.000 A 
ATOM     17  C   UNL     1       1.300   7.816  21.123  0.00  0.00    +0.000 A 
ATOM     18  C   UNL     1       2.125   7.260  20.139  0.00  0.00    +0.000 A 
ATOM     19  C   UNL     1       2.256   7.891  18.891  0.00  0.00    +0.000 A 
ATOM     20  C   UNL     1       1.567   9.086  18.653  0.00  0.00    +0.000 A 
ATOM     21  C   UNL     1       0.749   9.646  19.636  0.00  0.00    +0.000 A 
ATOM     22 CL   UNL     1      -0.080  11.157  19.287  0.00  0.00    +0.000 Cl
ENDBRANCH  14  19
ENDBRANCH   1  14
TORSDOF 3
ENDMDL
MODEL 9
REMARK VINA RESULT:      -7.0      1.236      1.243
REMARK  Name = 
REMARK  3 active torsions:
REMARK  status: ('A' for Active; 'I' for Inactive)
REMARK    1  A    between atoms: C_5  and  S_6
REMARK    2  A    between atoms: S_6  and  C_7
REMARK    3  A    between atoms: C_12  and  N_13
REMARK                            x       y       z     vdW  Elec       q    Type
REMARK                         _______ _______ _______ _____ _____    ______ ____
ROOT
ATOM      1  C   UNL     1       3.229   5.489  18.813  0.00  0.00    +0.000 A 
ATOM      2  C   UNL     1       2.085   5.169  19.563  0.00  0.00    +0.000 A 
ATOM      3  C   UNL     1       2.007   3.990  20.293  0.00  0.00    +0.000 A 
ATOM      4  C   UNL     1       3.072   3.102  20.286  0.00  0.00    +0.000 A 
ATOM      5  C   UNL     1       4.221   3.392  19.553  0.00  0.00    +0.000 A 
ATOM      6  C   UNL     1       4.347   4.589  18.802  0.00  0.00    +0.000 A 
ENDROOT
BRANCH   6   7
ATOM      7  N   UNL     1       5.594   4.830  18.104  0.00  0.00    +0.000 N 
ATOM      8  C   UNL     1       5.836   4.304  16.762  0.00  0.00    +0.000 C 
ATOM      9  C   UNL     1       6.270   5.459  15.851  0.00  0.00    +0.000 C 
ATOM     10  N   UNL     1       7.448   6.132  16.418  0.00  0.00    +0.000 NA
ATOM     11  C   UNL     1       7.150   6.668  17.754  0.00  0.00    +0.000 C 
ATOM     12  C   UNL     1       6.732   5.527  18.686  0.00  0.00    +0.000 C 
ATOM     13  H   UNL     1       7.719   6.921  15.787  0.00  0.00    +0.000 HD
ENDBRANCH   6   7
BRANCH   1  14
ATOM     14  S   UNL     1       3.113   7.054  17.917  0.00  0.00    +0.000 S 
BRANCH  14  19
ATOM     15 CL   UNL     1      -0.564  10.530  21.796  0.00  0.00    +0.000 Cl
ATOM     16  C   UNL     1       0.445   9.564  20.729  0.00  0.00    +0.000 A 
ATOM     17  C   UNL     1       1.132   8.463  21.249  0.00  0.00    +0.000 A 
ATOM     18  C   UNL     1       1.945   7.679  20.422  0.00  0.00    +0.000 A 
ATOM     19  C   UNL     1       2.068   7.989  19.058  0.00  0.00    +0.000 A 
ATOM     20  C   UNL     1       1.384   9.097  18.543  0.00  0.00    +0.000 A 
ATOM     21  C   UNL     1       0.578   9.883  19.367  0.00  0.00    +0.000 A 
ATOM     22 CL   UNL     1      -0.246  11.272  18.670  0.00  0.00    +0.000 Cl
ENDBRANCH  14  19
ENDBRANCH   1  14
TORSDOF 3
ENDMDL
