MODEL 1
REMARK VINA RESULT:      -6.9      0.000      0.000
REMARK  Name = 
REMARK  6 active torsions:
REMARK  status: ('A' for Active; 'I' for Inactive)
REMARK    1  A    between atoms: C_1  and  O_2
REMARK    2  A    between atoms: O_2  and  C_3
REMARK    3  A    between atoms: C_6  and  C_7
REMARK    4  A    between atoms: C_7  and  S_8
REMARK    5  A    between atoms: S_8  and  C_9
REMARK    6  A    between atoms: C_13  and  N_14
REMARK                            x       y       z     vdW  Elec       q    Type
REMARK                         _______ _______ _______ _____ _____    ______ ____
ROOT
ATOM      1  C   UNL     1       5.680   6.428  17.041  0.00  0.00    +0.000 A 
ATOM      2  C   UNL     1       4.413   6.759  17.553  0.00  0.00    +0.000 A 
ATOM      3  C   UNL     1       3.428   5.786  17.712  0.00  0.00    +0.000 A 
ATOM      4  C   UNL     1       3.674   4.457  17.343  0.00  0.00    +0.000 A 
ATOM      5  C   UNL     1       4.945   4.108  16.855  0.00  0.00    +0.000 A 
ATOM      6  C   UNL     1       5.963   5.077  16.708  0.00  0.00    +0.000 A 
ENDROOT
BRANCH   6   7
ATOM      7  N   UNL     1       7.249   4.680  16.209  0.00  0.00    +0.000 N 
ATOM      8  O   UNL     1       8.071   4.202  16.931  0.00  0.00    +0.000 OA
ATOM      9  O   UNL     1       7.535   4.817  14.932  0.00  0.00    +0.000 OA
ENDBRANCH   6   7
BRANCH   1  11
ATOM     10  C   UNL     1       7.652   7.702  17.708  0.00  0.00    +0.000 C 
ATOM     11  O   UNL     1       6.630   7.378  16.837  0.00  0.00    +0.000 OA
ENDBRANCH   1  11
BRANCH   4  12
ATOM     12  C   UNL     1       2.568   3.433  17.463  0.00  0.00    +0.000 C 
BRANCH  12  13
ATOM     13  S   UNL     1       2.467   2.889  19.213  0.00  0.00    +0.000 S 
BRANCH  13  14
ATOM     14  C   UNL     1       3.892   1.786  19.217  0.00  0.00    +0.000 C 
ATOM     15  N   UNL     1       3.952   0.780  18.420  0.00  0.00    +0.000 NA
ATOM     16  N   UNL     1       4.995   2.085  20.053  0.00  0.00    +0.000 N 
ATOM     17  H   UNL     1       3.182   0.557  17.776  0.00  0.00    +0.000 HD
ATOM     18  H   UNL     1       4.972   2.915  20.664  0.00  0.00    +0.000 HD
ATOM     19  H   UNL     1       5.846   1.505  20.029  0.00  0.00    +0.000 HD
ENDBRANCH  13  14
ENDBRANCH  12  13
ENDBRANCH   4  12
TORSDOF 5
ENDMDL
MODEL 2
REMARK VINA RESULT:      -6.8      0.204      1.137
REMARK  Name = 
REMARK  6 active torsions:
REMARK  status: ('A' for Active; 'I' for Inactive)
REMARK    1  A    between atoms: C_1  and  O_2
REMARK    2  A    between atoms: O_2  and  C_3
REMARK    3  A    between atoms: C_6  and  C_7
REMARK    4  A    between atoms: C_7  and  S_8
REMARK    5  A    between atoms: S_8  and  C_9
REMARK    6  A    between atoms: C_13  and  N_14
REMARK                            x       y       z     vdW  Elec       q    Type
REMARK                         _______ _______ _______ _____ _____    ______ ____
ROOT
ATOM      1  C   UNL     1       5.636   6.376  16.928  0.00  0.00    +0.000 A 
ATOM      2  C   UNL     1       4.427   6.759  17.534  0.00  0.00    +0.000 A 
ATOM      3  C   UNL     1       3.411   5.831  17.754  0.00  0.00    +0.000 A 
ATOM      4  C   UNL     1       3.565   4.497  17.354  0.00  0.00    +0.000 A 
ATOM      5  C   UNL     1       4.779   4.096  16.771  0.00  0.00    +0.000 A 
ATOM      6  C   UNL     1       5.829   5.017  16.560  0.00  0.00    +0.000 A 
ENDROOT
BRANCH   6   7
ATOM      7  N   UNL     1       7.056   4.568  15.965  0.00  0.00    +0.000 N 
ATOM      8  O   UNL     1       7.189   4.529  14.779  0.00  0.00    +0.000 OA
ATOM      9  O   UNL     1       8.070   4.213  16.725  0.00  0.00    +0.000 OA
ENDBRANCH   6   7
BRANCH   1  11
ATOM     10  C   UNL     1       7.549   7.751  17.568  0.00  0.00    +0.000 C 
ATOM     11  O   UNL     1       6.613   7.283  16.665  0.00  0.00    +0.000 OA
ENDBRANCH   1  11
BRANCH   4  12
ATOM     12  C   UNL     1       2.424   3.525  17.544  0.00  0.00    +0.000 C 
BRANCH  12  13
ATOM     13  S   UNL     1       2.422   2.963  19.291  0.00  0.00    +0.000 S 
BRANCH  13  14
ATOM     14  C   UNL     1       3.908   1.945  19.229  0.00  0.00    +0.000 C 
ATOM     15  N   UNL     1       4.891   2.161  20.027  0.00  0.00    +0.000 NA
ATOM     16  N   UNL     1       3.953   0.840  18.344  0.00  0.00    +0.000 N 
ATOM     17  H   UNL     1       4.874   2.934  20.706  0.00  0.00    +0.000 HD
ATOM     18  H   UNL     1       3.151   0.635  17.731  0.00  0.00    +0.000 HD
ATOM     19  H   UNL     1       4.766   0.208  18.333  0.00  0.00    +0.000 HD
ENDBRANCH  13  14
ENDBRANCH  12  13
ENDBRANCH   4  12
TORSDOF 5
ENDMDL
MODEL 3
REMARK VINA RESULT:      -6.7      0.837      1.268
REMARK  Name = 
REMARK  6 active torsions:
REMARK  status: ('A' for Active; 'I' for Inactive)
REMARK    1  A    between atoms: C_1  and  O_2
REMARK    2  A    between atoms: O_2  and  C_3
REMARK    3  A    between atoms: C_6  and  C_7
REMARK    4  A    between atoms: C_7  and  S_8
REMARK    5  A    between atoms: S_8  and  C_9
REMARK    6  A    between atoms: C_13  and  N_14
REMARK                            x       y       z     vdW  Elec       q    Type
REMARK                         _______ _______ _______ _____ _____    ______ ____
ROOT
ATOM      1  C   UNL     1       5.900   6.532  17.060  0.00  0.00    +0.000 A 
ATOM      2  C   UNL     1       4.622   6.993  17.424  0.00  0.00    +0.000 A 
ATOM      3  C   UNL     1       3.589   6.097  17.696  0.00  0.00    +0.000 A 
ATOM      4  C   UNL     1       3.797   4.716  17.590  0.00  0.00    +0.000 A 
ATOM      5  C   UNL     1       5.076   4.242  17.254  0.00  0.00    +0.000 A 
ATOM      6  C   UNL     1       6.142   5.133  16.997  0.00  0.00    +0.000 A 
ENDROOT
BRANCH   6   7
ATOM      7  N   UNL     1       7.436   4.611  16.659  0.00  0.00    +0.000 N 
ATOM      8  O   UNL     1       7.827   4.612  15.532  0.00  0.00    +0.000 OA
ATOM      9  O   UNL     1       8.226   4.141  17.601  0.00  0.00    +0.000 OA
ENDBRANCH   6   7
BRANCH   1  11
ATOM     10  C   UNL     1       7.690   8.084  17.648  0.00  0.00    +0.000 C 
ATOM     11  O   UNL     1       6.900   7.396  16.747  0.00  0.00    +0.000 OA
ENDBRANCH   1  11
BRANCH   4  12
ATOM     12  C   UNL     1       2.643   3.769  17.826  0.00  0.00    +0.000 C 
BRANCH  12  13
ATOM     13  S   UNL     1       3.317   2.079  18.066  0.00  0.00    +0.000 S 
BRANCH  13  14
ATOM     14  C   UNL     1       3.830   2.255  19.785  0.00  0.00    +0.000 C 
ATOM     15  N   UNL     1       5.021   1.943  20.154  0.00  0.00    +0.000 NA
ATOM     16  N   UNL     1       2.931   2.821  20.720  0.00  0.00    +0.000 N 
ATOM     17  H   UNL     1       5.709   1.562  19.491  0.00  0.00    +0.000 HD
ATOM     18  H   UNL     1       1.989   3.113  20.422  0.00  0.00    +0.000 HD
ATOM     19  H   UNL     1       3.221   2.988  21.694  0.00  0.00    +0.000 HD
ENDBRANCH  13  14
ENDBRANCH  12  13
ENDBRANCH   4  12
TORSDOF 5
ENDMDL
MODEL 4
REMARK VINA RESULT:      -6.6      1.688      1.846
REMARK  Name = 
REMARK  6 active torsions:
REMARK  status: ('A' for Active; 'I' for Inactive)
REMARK    1  A    between atoms: C_1  and  O_2
REMARK    2  A    between atoms: O_2  and  C_3
REMARK    3  A    between atoms: C_6  and  C_7
REMARK    4  A    between atoms: C_7  and  S_8
REMARK    5  A    between atoms: S_8  and  C_9
REMARK    6  A    between atoms: C_13  and  N_14
REMARK                            x       y       z     vdW  Elec       q    Type
REMARK                         _______ _______ _______ _____ _____    ______ ____
ROOT
ATOM      1  C   UNL     1       5.354   6.217  16.956  0.00  0.00    +0.000 A 
ATOM      2  C   UNL     1       4.190   6.639  17.623  0.00  0.00    +0.000 A 
ATOM      3  C   UNL     1       3.186   5.731  17.954  0.00  0.00    +0.000 A 
ATOM      4  C   UNL     1       3.306   4.379  17.608  0.00  0.00    +0.000 A 
ATOM      5  C   UNL     1       4.475   3.940  16.965  0.00  0.00    +0.000 A 
ATOM      6  C   UNL     1       5.514   4.841  16.641  0.00  0.00    +0.000 A 
ENDROOT
BRANCH   6   7
ATOM      7  N   UNL     1       6.695   4.354  15.987  0.00  0.00    +0.000 N 
ATOM      8  O   UNL     1       6.675   4.025  14.839  0.00  0.00    +0.000 OA
ATOM      9  O   UNL     1       7.834   4.284  16.643  0.00  0.00    +0.000 OA
ENDBRANCH   6   7
BRANCH   1  11
ATOM     10  C   UNL     1       7.275   7.652  17.415  0.00  0.00    +0.000 C 
ATOM     11  O   UNL     1       6.316   7.102  16.586  0.00  0.00    +0.000 OA
ENDBRANCH   1  11
BRANCH   4  12
ATOM     12  C   UNL     1       2.174   3.427  17.920  0.00  0.00    +0.000 C 
BRANCH  12  13
ATOM     13  S   UNL     1       2.732   2.267  19.227  0.00  0.00    +0.000 S 
BRANCH  13  14
ATOM     14  C   UNL     1       1.718   2.901  20.576  0.00  0.00    +0.000 C 
ATOM     15  N   UNL     1       0.584   3.459  20.345  0.00  0.00    +0.000 NA
ATOM     16  N   UNL     1       2.144   2.705  21.912  0.00  0.00    +0.000 N 
ATOM     17  H   UNL     1       0.231   3.585  19.386  0.00  0.00    +0.000 HD
ATOM     18  H   UNL     1       3.032   2.221  22.107  0.00  0.00    +0.000 HD
ATOM     19  H   UNL     1       1.553   3.004  22.702  0.00  0.00    +0.000 HD
ENDBRANCH  13  14
ENDBRANCH  12  13
ENDBRANCH   4  12
TORSDOF 5
ENDMDL
MODEL 5
REMARK VINA RESULT:      -6.5      1.407      1.719
REMARK  Name = 
REMARK  6 active torsions:
REMARK  status: ('A' for Active; 'I' for Inactive)
REMARK    1  A    between atoms: C_1  and  O_2
REMARK    2  A    between atoms: O_2  and  C_3
REMARK    3  A    between atoms: C_6  and  C_7
REMARK    4  A    between atoms: C_7  and  S_8
REMARK    5  A    between atoms: S_8  and  C_9
REMARK    6  A    between atoms: C_13  and  N_14
REMARK                            x       y       z     vdW  Elec       q    Type
REMARK                         _______ _______ _______ _____ _____    ______ ____
ROOT
ATOM      1  C   UNL     1       6.072   6.671  17.455  0.00  0.00    +0.000 A 
ATOM      2  C   UNL     1       4.751   7.130  17.302  0.00  0.00    +0.000 A 
ATOM      3  C   UNL     1       3.677   6.400  17.807  0.00  0.00    +0.000 A 
ATOM      4  C   UNL     1       3.889   5.179  18.461  0.00  0.00    +0.000 A 
ATOM      5  C   UNL     1       5.206   4.723  18.644  0.00  0.00    +0.000 A 
ATOM      6  C   UNL     1       6.309   5.460  18.158  0.00  0.00    +0.000 A 
ENDROOT
BRANCH   6   7
ATOM      7  N   UNL     1       7.639   4.963  18.368  0.00  0.00    +0.000 N 
ATOM      8  O   UNL     1       8.225   5.178  19.386  0.00  0.00    +0.000 OA
ATOM      9  O   UNL     1       8.228   4.235  17.443  0.00  0.00    +0.000 OA
ENDBRANCH   6   7
BRANCH   1  11
ATOM     10  C   UNL     1       7.791   8.403  17.519  0.00  0.00    +0.000 C 
ATOM     11  O   UNL     1       7.122   7.351  16.924  0.00  0.00    +0.000 OA
ENDBRANCH   1  11
BRANCH   4  12
ATOM     12  C   UNL     1       2.703   4.375  18.941  0.00  0.00    +0.000 C 
BRANCH  12  13
ATOM     13  S   UNL     1       3.323   2.951  19.918  0.00  0.00    +0.000 S 
BRANCH  13  14
ATOM     14  C   UNL     1       3.323   1.721  18.600  0.00  0.00    +0.000 C 
ATOM     15  N   UNL     1       4.246   0.831  18.526  0.00  0.00    +0.000 NA
ATOM     16  N   UNL     1       2.243   1.690  17.684  0.00  0.00    +0.000 N 
ATOM     17  H   UNL     1       5.025   0.806  19.197  0.00  0.00    +0.000 HD
ATOM     18  H   UNL     1       1.477   2.375  17.764  0.00  0.00    +0.000 HD
ATOM     19  H   UNL     1       2.188   0.960  16.960  0.00  0.00    +0.000 HD
ENDBRANCH  13  14
ENDBRANCH  12  13
ENDBRANCH   4  12
TORSDOF 5
ENDMDL
MODEL 6
REMARK VINA RESULT:      -6.4      1.522      1.889
REMARK  Name = 
REMARK  6 active torsions:
REMARK  status: ('A' for Active; 'I' for Inactive)
REMARK    1  A    between atoms: C_1  and  O_2
REMARK    2  A    between atoms: O_2  and  C_3
REMARK    3  A    between atoms: C_6  and  C_7
REMARK    4  A    between atoms: C_7  and  S_8
REMARK    5  A    between atoms: S_8  and  C_9
REMARK    6  A    between atoms: C_13  and  N_14
REMARK                            x       y       z     vdW  Elec       q    Type
REMARK                         _______ _______ _______ _____ _____    ______ ____
ROOT
ATOM      1  C   UNL     1       5.980   6.619  17.521  0.00  0.00    +0.000 A 
ATOM      2  C   UNL     1       4.658   7.065  17.339  0.00  0.00    +0.000 A 
ATOM      3  C   UNL     1       3.586   6.369  17.893  0.00  0.00    +0.000 A 
ATOM      4  C   UNL     1       3.800   5.195  18.626  0.00  0.00    +0.000 A 
ATOM      5  C   UNL     1       5.118   4.754  18.838  0.00  0.00    +0.000 A 
ATOM      6  C   UNL     1       6.220   5.458  18.303  0.00  0.00    +0.000 A 
ENDROOT
BRANCH   6   7
ATOM      7  N   UNL     1       7.551   4.978  18.544  0.00  0.00    +0.000 N 
ATOM      8  O   UNL     1       8.127   4.323  17.729  0.00  0.00    +0.000 OA
ATOM      9  O   UNL     1       8.170   5.276  19.666  0.00  0.00    +0.000 OA
ENDBRANCH   6   7
BRANCH   1  11
ATOM     10  C   UNL     1       7.765   8.284  17.513  0.00  0.00    +0.000 C 
ATOM     11  O   UNL     1       7.028   7.264  16.944  0.00  0.00    +0.000 OA
ENDBRANCH   1  11
BRANCH   4  12
ATOM     12  C   UNL     1       2.616   4.423  19.161  0.00  0.00    +0.000 C 
BRANCH  12  13
ATOM     13  S   UNL     1       3.241   2.967  20.086  0.00  0.00    +0.000 S 
BRANCH  13  14
ATOM     14  C   UNL     1       2.934   1.716  18.825  0.00  0.00    +0.000 C 
ATOM     15  N   UNL     1       1.781   1.607  18.269  0.00  0.00    +0.000 NA
ATOM     16  N   UNL     1       4.004   0.899  18.387  0.00  0.00    +0.000 N 
ATOM     17  H   UNL     1       0.992   2.210  18.541  0.00  0.00    +0.000 HD
ATOM     18  H   UNL     1       4.942   1.009  18.799  0.00  0.00    +0.000 HD
ATOM     19  H   UNL     1       3.869   0.219  17.625  0.00  0.00    +0.000 HD
ENDBRANCH  13  14
ENDBRANCH  12  13
ENDBRANCH   4  12
TORSDOF 5
ENDMDL
MODEL 7
REMARK VINA RESULT:      -6.3      3.317      5.180
REMARK  Name = 
REMARK  6 active torsions:
REMARK  status: ('A' for Active; 'I' for Inactive)
REMARK    1  A    between atoms: C_1  and  O_2
REMARK    2  A    between atoms: O_2  and  C_3
REMARK    3  A    between atoms: C_6  and  C_7
REMARK    4  A    between atoms: C_7  and  S_8
REMARK    5  A    between atoms: S_8  and  C_9
REMARK    6  A    between atoms: C_13  and  N_14
REMARK                            x       y       z     vdW  Elec       q    Type
REMARK                         _______ _______ _______ _____ _____    ______ ____
ROOT
ATOM      1  C   UNL     1       2.291   3.711  19.479  0.00  0.00    +0.000 A 
ATOM      2  C   UNL     1       1.752   4.956  19.107  0.00  0.00    +0.000 A 
ATOM      3  C   UNL     1       2.468   5.830  18.290  0.00  0.00    +0.000 A 
ATOM      4  C   UNL     1       3.751   5.495  17.840  0.00  0.00    +0.000 A 
ATOM      5  C   UNL     1       4.289   4.242  18.182  0.00  0.00    +0.000 A 
ATOM      6  C   UNL     1       3.570   3.334  18.991  0.00  0.00    +0.000 A 
ENDROOT
BRANCH   6   7
ATOM      7  N   UNL     1       4.153   2.063  19.317  0.00  0.00    +0.000 N 
ATOM      8  O   UNL     1       4.863   1.935  20.268  0.00  0.00    +0.000 OA
ATOM      9  O   UNL     1       3.890   1.006  18.579  0.00  0.00    +0.000 OA
ENDBRANCH   6   7
BRANCH   1  11
ATOM     10  C   UNL     1       1.675   2.892  21.695  0.00  0.00    +0.000 C 
ATOM     11  O   UNL     1       1.622   2.874  20.314  0.00  0.00    +0.000 OA
ENDBRANCH   1  11
BRANCH   4  12
ATOM     12  C   UNL     1       4.532   6.487  17.009  0.00  0.00    +0.000 C 
BRANCH  12  13
ATOM     13  S   UNL     1       5.422   5.571  15.692  0.00  0.00    +0.000 S 
BRANCH  13  14
ATOM     14  C   UNL     1       7.069   5.616  16.422  0.00  0.00    +0.000 C 
ATOM     15  N   UNL     1       7.766   4.544  16.551  0.00  0.00    +0.000 NA
ATOM     16  N   UNL     1       7.632   6.865  16.781  0.00  0.00    +0.000 N 
ATOM     17  H   UNL     1       7.398   3.625  16.267  0.00  0.00    +0.000 HD
ATOM     18  H   UNL     1       7.096   7.734  16.642  0.00  0.00    +0.000 HD
ATOM     19  H   UNL     1       8.595   6.923  17.144  0.00  0.00    +0.000 HD
ENDBRANCH  13  14
ENDBRANCH  12  13
ENDBRANCH   4  12
TORSDOF 5
ENDMDL
MODEL 8
REMARK VINA RESULT:      -6.3      3.362      5.097
REMARK  Name = 
REMARK  6 active torsions:
REMARK  status: ('A' for Active; 'I' for Inactive)
REMARK    1  A    between atoms: C_1  and  O_2
REMARK    2  A    between atoms: O_2  and  C_3
REMARK    3  A    between atoms: C_6  and  C_7
REMARK    4  A    between atoms: C_7  and  S_8
REMARK    5  A    between atoms: S_8  and  C_9
REMARK    6  A    between atoms: C_13  and  N_14
REMARK                            x       y       z     vdW  Elec       q    Type
REMARK                         _______ _______ _______ _____ _____    ______ ____
ROOT
ATOM      1  C   UNL     1       2.884   4.410  20.039  0.00  0.00    +0.000 A 
ATOM      2  C   UNL     1       2.554   5.745  19.743  0.00  0.00    +0.000 A 
ATOM      3  C   UNL     1       3.156   6.411  18.676  0.00  0.00    +0.000 A 
ATOM      4  C   UNL     1       4.120   5.769  17.889  0.00  0.00    +0.000 A 
ATOM      5  C   UNL     1       4.439   4.427  18.157  0.00  0.00    +0.000 A 
ATOM      6  C   UNL     1       3.823   3.728  19.220  0.00  0.00    +0.000 A 
ENDROOT
BRANCH   6   7
ATOM      7  N   UNL     1       4.172   2.357  19.460  0.00  0.00    +0.000 N 
ATOM      8  O   UNL     1       4.983   2.062  20.286  0.00  0.00    +0.000 OA
ATOM      9  O   UNL     1       3.581   1.395  18.785  0.00  0.00    +0.000 OA
ENDBRANCH   6   7
BRANCH   1  11
ATOM     10  C   UNL     1       1.213   2.968  21.081  0.00  0.00    +0.000 C 
ATOM     11  O   UNL     1       2.339   3.767  21.105  0.00  0.00    +0.000 OA
ENDBRANCH   1  11
BRANCH   4  12
ATOM     12  C   UNL     1       4.805   6.534  16.780  0.00  0.00    +0.000 C 
BRANCH  12  13
ATOM     13  S   UNL     1       6.555   6.812  17.258  0.00  0.00    +0.000 S 
BRANCH  13  14
ATOM     14  C   UNL     1       7.279   5.410  16.387  0.00  0.00    +0.000 C 
ATOM     15  N   UNL     1       7.341   5.389  15.104  0.00  0.00    +0.000 NA
ATOM     16  N   UNL     1       7.862   4.358  17.135  0.00  0.00    +0.000 N 
ATOM     17  H   UNL     1       6.958   6.155  14.534  0.00  0.00    +0.000 HD
ATOM     18  H   UNL     1       7.854   4.388  18.164  0.00  0.00    +0.000 HD
ATOM     19  H   UNL     1       8.336   3.576  16.661  0.00  0.00    +0.000 HD
ENDBRANCH  13  14
ENDBRANCH  12  13
ENDBRANCH   4  12
TORSDOF 5
ENDMDL
MODEL 9
REMARK VINA RESULT:      -6.3      1.221      1.507
REMARK  Name = 
REMARK  6 active torsions:
REMARK  status: ('A' for Active; 'I' for Inactive)
REMARK    1  A    between atoms: C_1  and  O_2
REMARK    2  A    between atoms: O_2  and  C_3
REMARK    3  A    between atoms: C_6  and  C_7
REMARK    4  A    between atoms: C_7  and  S_8
REMARK    5  A    between atoms: S_8  and  C_9
REMARK    6  A    between atoms: C_13  and  N_14
REMARK                            x       y       z     vdW  Elec       q    Type
REMARK                         _______ _______ _______ _____ _____    ______ ____
ROOT
ATOM      1  C   UNL     1       5.644   6.407  17.020  0.00  0.00    +0.000 A 
ATOM      2  C   UNL     1       4.365   6.746  17.496  0.00  0.00    +0.000 A 
ATOM      3  C   UNL     1       3.395   5.766  17.701  0.00  0.00    +0.000 A 
ATOM      4  C   UNL     1       3.668   4.422  17.414  0.00  0.00    +0.000 A 
ATOM      5  C   UNL     1       4.951   4.067  16.964  0.00  0.00    +0.000 A 
ATOM      6  C   UNL     1       5.954   5.043  16.772  0.00  0.00    +0.000 A 
ENDROOT
BRANCH   6   7
ATOM      7  N   UNL     1       7.254   4.641  16.314  0.00  0.00    +0.000 N 
ATOM      8  O   UNL     1       7.546   4.698  15.157  0.00  0.00    +0.000 OA
ATOM      9  O   UNL     1       8.159   4.222  17.173  0.00  0.00    +0.000 OA
ENDBRANCH   6   7
BRANCH   1  11
ATOM     10  C   UNL     1       7.595   7.742  17.627  0.00  0.00    +0.000 C 
ATOM     11  O   UNL     1       6.580   7.359  16.772  0.00  0.00    +0.000 OA
ENDBRANCH   1  11
BRANCH   4  12
ATOM     12  C   UNL     1       2.578   3.388  17.582  0.00  0.00    +0.000 C 
BRANCH  12  13
ATOM     13  S   UNL     1       1.470   3.925  18.942  0.00  0.00    +0.000 S 
BRANCH  13  14
ATOM     14  C   UNL     1       2.431   3.275  20.322  0.00  0.00    +0.000 C 
ATOM     15  N   UNL     1       3.371   2.421  20.128  0.00  0.00    +0.000 NA
ATOM     16  N   UNL     1       2.197   3.777  21.625  0.00  0.00    +0.000 N 
ATOM     17  H   UNL     1       3.589   2.063  19.188  0.00  0.00    +0.000 HD
ATOM     18  H   UNL     1       1.473   4.493  21.781  0.00  0.00    +0.000 HD
ATOM     19  H   UNL     1       2.774   3.466  22.420  0.00  0.00    +0.000 HD
ENDBRANCH  13  14
ENDBRANCH  12  13
ENDBRANCH   4  12
TORSDOF 5
ENDMDL
