MODEL 1
REMARK VINA RESULT:      -9.0      0.000      0.000
REMARK  Name = 
REMARK  8 active torsions:
REMARK  status: ('A' for Active; 'I' for Inactive)
REMARK    1  A    between atoms: C_1  and  O_2
REMARK    2  A    between atoms: O_2  and  C_3
REMARK    3  A    between atoms: C_5  and  N_6
REMARK    4  A    between atoms: N_6  and  C_7
REMARK    5  A    between atoms: C_12  and  C_13
REMARK    6  A    between atoms: N_17  and  C_18
REMARK    7  A    between atoms: C_29  and  O_30
REMARK    8  A    between atoms: O_30  and  C_31
REMARK                            x       y       z     vdW  Elec       q    Type
REMARK                         _______ _______ _______ _____ _____    ______ ____
ROOT
ATOM      1  C   UNL     1      -0.509  11.086  20.721  0.00  0.00    +0.000 A 
ATOM      2  C   UNL     1      -1.231  11.444  21.872  0.00  0.00    +0.000 A 
ATOM      3  C   UNL     1      -0.925  10.850  23.082  0.00  0.00    +0.000 A 
ATOM      4  N   UNL     1       0.018   9.902  23.227  0.00  0.00    +0.000 NA
ATOM      5  C   UNL     1       0.664   9.517  22.096  0.00  0.00    +0.000 A 
ATOM      6  C   UNL     1       0.439  10.050  20.827  0.00  0.00    +0.000 A 
ENDROOT
BRANCH   6   7
ATOM      7  C   UNL     1       1.195   9.548  19.687  0.00  0.00    +0.000 A 
ATOM      8  N   UNL     1       1.358  10.209  18.529  0.00  0.00    +0.000 NA
ATOM      9  N   UNL     1       2.121   9.347  17.828  0.00  0.00    +0.000 N 
ATOM     10  C   UNL     1       2.333   8.181  18.511  0.00  0.00    +0.000 A 
ATOM     11  N   UNL     1       2.941   7.107  17.943  0.00  0.00    +0.000 N 
ATOM     12  N   UNL     1       1.808   8.310  19.700  0.00  0.00    +0.000 NA
ATOM     13  H   UNL     1       2.407   9.593  16.889  0.00  0.00    +0.000 HD
ATOM     14  H   UNL     1       3.434   7.137  17.058  0.00  0.00    +0.000 HD
BRANCH  11  15
ATOM     15  C   UNL     1       2.652   5.795  18.389  0.00  0.00    +0.000 A 
ATOM     16  C   UNL     1       1.555   5.076  17.861  0.00  0.00    +0.000 A 
ATOM     17  C   UNL     1       1.444   3.689  18.059  0.00  0.00    +0.000 A 
ATOM     18  C   UNL     1       2.457   3.070  18.760  0.00  0.00    +0.000 A 
ATOM     19  C   UNL     1       3.459   3.787  19.367  0.00  0.00    +0.000 A 
ATOM     20  C   UNL     1       3.559   5.143  19.237  0.00  0.00    +0.000 A 
ATOM     21  O   UNL     1       4.399   2.990  19.944  0.00  0.00    +0.000 OA
ATOM     22  C   UNL     1       4.082   1.770  19.253  0.00  0.00    +0.000 C 
ATOM     23  O   UNL     1       2.691   1.729  18.848  0.00  0.00    +0.000 OA
ENDBRANCH  11  15
ENDBRANCH   6   7
BRANCH   1  24
ATOM     24  N   UNL     1      -0.820  11.700  19.472  0.00  0.00    +0.000 N 
ATOM     25  H   UNL     1      -0.695  12.720  19.543  0.00  0.00    +0.000 HD
BRANCH  24  28
ATOM     26  C   UNL     1      -3.017  10.404  16.730  0.00  0.00    +0.000 A 
ATOM     27  C   UNL     1      -1.880  10.669  17.493  0.00  0.00    +0.000 A 
ATOM     28  C   UNL     1      -1.950  11.442  18.657  0.00  0.00    +0.000 A 
ATOM     29  C   UNL     1      -3.204  11.901  19.075  0.00  0.00    +0.000 A 
ATOM     30  C   UNL     1      -4.356  11.626  18.332  0.00  0.00    +0.000 A 
ATOM     31  C   UNL     1      -4.255  10.885  17.152  0.00  0.00    +0.000 A 
BRANCH  26  33
ATOM     32  C   UNL     1      -3.412  10.089  14.408  0.00  0.00    +0.000 C 
ATOM     33  O   UNL     1      -2.786   9.656  15.608  0.00  0.00    +0.000 OA
ENDBRANCH  26  33
BRANCH  30  34
ATOM     34  O   UNL     1      -5.519  12.125  18.859  0.00  0.00    +0.000 OA
ATOM     35  C   UNL     1      -6.637  12.203  17.981  0.00  0.00    +0.000 C 
ENDBRANCH  30  34
ENDBRANCH  24  28
ENDBRANCH   1  24
TORSDOF 6
ENDMDL
MODEL 2
REMARK VINA RESULT:      -8.8      1.058      1.498
REMARK  Name = 
REMARK  8 active torsions:
REMARK  status: ('A' for Active; 'I' for Inactive)
REMARK    1  A    between atoms: C_1  and  O_2
REMARK    2  A    between atoms: O_2  and  C_3
REMARK    3  A    between atoms: C_5  and  N_6
REMARK    4  A    between atoms: N_6  and  C_7
REMARK    5  A    between atoms: C_12  and  C_13
REMARK    6  A    between atoms: N_17  and  C_18
REMARK    7  A    between atoms: C_29  and  O_30
REMARK    8  A    between atoms: O_30  and  C_31
REMARK                            x       y       z     vdW  Elec       q    Type
REMARK                         _______ _______ _______ _____ _____    ______ ____
ROOT
ATOM      1  C   UNL     1      -0.264  10.786  20.668  0.00  0.00    +0.000 A 
ATOM      2  C   UNL     1      -0.928  11.148  21.853  0.00  0.00    +0.000 A 
ATOM      3  C   UNL     1      -0.589  10.529  23.042  0.00  0.00    +0.000 A 
ATOM      4  N   UNL     1       0.332   9.552  23.135  0.00  0.00    +0.000 NA
ATOM      5  C   UNL     1       0.920   9.166  21.973  0.00  0.00    +0.000 A 
ATOM      6  C   UNL     1       0.658   9.723  20.721  0.00  0.00    +0.000 A 
ENDROOT
BRANCH   6   7
ATOM      7  C   UNL     1       1.351   9.216  19.544  0.00  0.00    +0.000 A 
ATOM      8  N   UNL     1       1.298   9.779  18.326  0.00  0.00    +0.000 NA
ATOM      9  N   UNL     1       2.094   8.961  17.611  0.00  0.00    +0.000 N 
ATOM     10  C   UNL     1       2.538   7.903  18.356  0.00  0.00    +0.000 A 
ATOM     11  N   UNL     1       3.226   6.867  17.809  0.00  0.00    +0.000 N 
ATOM     12  N   UNL     1       2.129   8.076  19.584  0.00  0.00    +0.000 NA
ATOM     13  H   UNL     1       2.243   9.151  16.629  0.00  0.00    +0.000 HD
ATOM     14  H   UNL     1       3.614   6.876  16.872  0.00  0.00    +0.000 HD
BRANCH  11  15
ATOM     15  C   UNL     1       3.172   5.577  18.389  0.00  0.00    +0.000 A 
ATOM     16  C   UNL     1       4.355   4.909  18.780  0.00  0.00    +0.000 A 
ATOM     17  C   UNL     1       4.300   3.788  19.626  0.00  0.00    +0.000 A 
ATOM     18  C   UNL     1       3.056   3.394  20.070  0.00  0.00    +0.000 A 
ATOM     19  C   UNL     1       1.903   3.975  19.597  0.00  0.00    +0.000 A 
ATOM     20  C   UNL     1       1.927   5.030  18.731  0.00  0.00    +0.000 A 
ATOM     21  O   UNL     1       0.786   3.498  20.213  0.00  0.00    +0.000 OA
ATOM     22  C   UNL     1       1.421   2.917  21.363  0.00  0.00    +0.000 C 
ATOM     23  O   UNL     1       2.785   2.519  21.080  0.00  0.00    +0.000 OA
ENDBRANCH  11  15
ENDBRANCH   6   7
BRANCH   1  24
ATOM     24  N   UNL     1      -0.610  11.426  19.442  0.00  0.00    +0.000 N 
ATOM     25  H   UNL     1      -0.369  12.427  19.489  0.00  0.00    +0.000 HD
BRANCH  24  28
ATOM     26  C   UNL     1      -3.168  10.324  16.939  0.00  0.00    +0.000 A 
ATOM     27  C   UNL     1      -1.949  10.464  17.603  0.00  0.00    +0.000 A 
ATOM     28  C   UNL     1      -1.825  11.290  18.725  0.00  0.00    +0.000 A 
ATOM     29  C   UNL     1      -2.969  11.934  19.207  0.00  0.00    +0.000 A 
ATOM     30  C   UNL     1      -4.203  11.787  18.565  0.00  0.00    +0.000 A 
ATOM     31  C   UNL     1      -4.294  10.989  17.422  0.00  0.00    +0.000 A 
BRANCH  26  33
ATOM     32  C   UNL     1      -3.154  10.132  14.570  0.00  0.00    +0.000 C 
ATOM     33  O   UNL     1      -3.128   9.503  15.845  0.00  0.00    +0.000 OA
ENDBRANCH  26  33
BRANCH  30  34
ATOM     34  O   UNL     1      -5.244  12.463  19.146  0.00  0.00    +0.000 OA
ATOM     35  C   UNL     1      -5.016  12.990  20.448  0.00  0.00    +0.000 C 
ENDBRANCH  30  34
ENDBRANCH  24  28
ENDBRANCH   1  24
TORSDOF 6
ENDMDL
MODEL 3
REMARK VINA RESULT:      -8.7      3.038      9.463
REMARK  Name = 
REMARK  8 active torsions:
REMARK  status: ('A' for Active; 'I' for Inactive)
REMARK    1  A    between atoms: C_1  and  O_2
REMARK    2  A    between atoms: O_2  and  C_3
REMARK    3  A    between atoms: C_5  and  N_6
REMARK    4  A    between atoms: N_6  and  C_7
REMARK    5  A    between atoms: C_12  and  C_13
REMARK    6  A    between atoms: N_17  and  C_18
REMARK    7  A    between atoms: C_29  and  O_30
REMARK    8  A    between atoms: O_30  and  C_31
REMARK                            x       y       z     vdW  Elec       q    Type
REMARK                         _______ _______ _______ _____ _____    ______ ____
ROOT
ATOM      1  C   UNL     1       2.844   4.097  18.534  0.00  0.00    +0.000 A 
ATOM      2  C   UNL     1       2.744   2.892  19.250  0.00  0.00    +0.000 A 
ATOM      3  C   UNL     1       2.210   2.898  20.525  0.00  0.00    +0.000 A 
ATOM      4  N   UNL     1       1.803   4.016  21.155  0.00  0.00    +0.000 NA
ATOM      5  C   UNL     1       1.965   5.182  20.478  0.00  0.00    +0.000 A 
ATOM      6  C   UNL     1       2.487   5.292  19.190  0.00  0.00    +0.000 A 
ENDROOT
BRANCH   6   7
ATOM      7  C   UNL     1       2.617   6.604  18.571  0.00  0.00    +0.000 A 
ATOM      8  N   UNL     1       3.775   7.138  18.149  0.00  0.00    +0.000 NA
ATOM      9  N   UNL     1       3.366   8.324  17.658  0.00  0.00    +0.000 N 
ATOM     10  C   UNL     1       2.028   8.525  17.856  0.00  0.00    +0.000 A 
ATOM     11  N   UNL     1       1.423   9.711  17.585  0.00  0.00    +0.000 N 
ATOM     12  N   UNL     1       1.530   7.434  18.376  0.00  0.00    +0.000 NA
ATOM     13  H   UNL     1       4.050   8.955  17.261  0.00  0.00    +0.000 HD
ATOM     14  H   UNL     1       1.858  10.462  17.062  0.00  0.00    +0.000 HD
BRANCH  11  15
ATOM     15  C   UNL     1       0.262  10.107  18.292  0.00  0.00    +0.000 A 
ATOM     16  C   UNL     1       0.358  10.938  19.432  0.00  0.00    +0.000 A 
ATOM     17  C   UNL     1      -0.781  11.582  19.947  0.00  0.00    +0.000 A 
ATOM     18  C   UNL     1      -1.971  11.388  19.279  0.00  0.00    +0.000 A 
ATOM     19  C   UNL     1      -2.080  10.492  18.243  0.00  0.00    +0.000 A 
ATOM     20  C   UNL     1      -1.000   9.811  17.759  0.00  0.00    +0.000 A 
ATOM     21  O   UNL     1      -3.315  10.501  17.670  0.00  0.00    +0.000 OA
ATOM     22  C   UNL     1      -3.765  11.768  18.180  0.00  0.00    +0.000 C 
ATOM     23  O   UNL     1      -3.123  12.101  19.436  0.00  0.00    +0.000 OA
ENDBRANCH  11  15
ENDBRANCH   6   7
BRANCH   1  24
ATOM     24  N   UNL     1       3.391   4.093  17.217  0.00  0.00    +0.000 N 
ATOM     25  H   UNL     1       3.049   3.271  16.699  0.00  0.00    +0.000 HD
BRANCH  24  28
ATOM     26  C   UNL     1       7.101   4.561  17.413  0.00  0.00    +0.000 A 
ATOM     27  C   UNL     1       5.775   4.372  17.801  0.00  0.00    +0.000 A 
ATOM     28  C   UNL     1       4.743   4.319  16.858  0.00  0.00    +0.000 A 
ATOM     29  C   UNL     1       5.076   4.405  15.502  0.00  0.00    +0.000 A 
ATOM     30  C   UNL     1       6.404   4.574  15.096  0.00  0.00    +0.000 A 
ATOM     31  C   UNL     1       7.413   4.664  16.059  0.00  0.00    +0.000 A 
BRANCH  26  33
ATOM     32  C   UNL     1       7.857   5.700  19.357  0.00  0.00    +0.000 C 
ATOM     33  O   UNL     1       7.994   4.615  18.449  0.00  0.00    +0.000 OA
ENDBRANCH  26  33
BRANCH  30  34
ATOM     34  O   UNL     1       6.593   4.632  13.740  0.00  0.00    +0.000 OA
ATOM     35  C   UNL     1       6.176   3.499  12.987  0.00  0.00    +0.000 C 
ENDBRANCH  30  34
ENDBRANCH  24  28
ENDBRANCH   1  24
TORSDOF 6
ENDMDL
MODEL 4
REMARK VINA RESULT:      -8.7      3.134      9.412
REMARK  Name = 
REMARK  8 active torsions:
REMARK  status: ('A' for Active; 'I' for Inactive)
REMARK    1  A    between atoms: C_1  and  O_2
REMARK    2  A    between atoms: O_2  and  C_3
REMARK    3  A    between atoms: C_5  and  N_6
REMARK    4  A    between atoms: N_6  and  C_7
REMARK    5  A    between atoms: C_12  and  C_13
REMARK    6  A    between atoms: N_17  and  C_18
REMARK    7  A    between atoms: C_29  and  O_30
REMARK    8  A    between atoms: O_30  and  C_31
REMARK                            x       y       z     vdW  Elec       q    Type
REMARK                         _______ _______ _______ _____ _____    ______ ____
ROOT
ATOM      1  C   UNL     1       2.934   4.016  18.429  0.00  0.00    +0.000 A 
ATOM      2  C   UNL     1       2.888   2.799  19.129  0.00  0.00    +0.000 A 
ATOM      3  C   UNL     1       2.395   2.772  20.420  0.00  0.00    +0.000 A 
ATOM      4  N   UNL     1       1.980   3.869  21.080  0.00  0.00    +0.000 NA
ATOM      5  C   UNL     1       2.090   5.049  20.417  0.00  0.00    +0.000 A 
ATOM      6  C   UNL     1       2.568   5.191  19.114  0.00  0.00    +0.000 A 
ENDROOT
BRANCH   6   7
ATOM      7  C   UNL     1       2.643   6.516  18.512  0.00  0.00    +0.000 A 
ATOM      8  N   UNL     1       3.718   7.001  17.868  0.00  0.00    +0.000 NA
ATOM      9  N   UNL     1       3.287   8.224  17.501  0.00  0.00    +0.000 N 
ATOM     10  C   UNL     1       2.034   8.488  17.980  0.00  0.00    +0.000 A 
ATOM     11  N   UNL     1       1.458   9.714  17.870  0.00  0.00    +0.000 N 
ATOM     12  N   UNL     1       1.591   7.409  18.568  0.00  0.00    +0.000 NA
ATOM     13  H   UNL     1       3.909   8.831  16.984  0.00  0.00    +0.000 HD
ATOM     14  H   UNL     1       1.818  10.458  17.284  0.00  0.00    +0.000 HD
BRANCH  11  15
ATOM     15  C   UNL     1       0.495  10.147  18.813  0.00  0.00    +0.000 A 
ATOM     16  C   UNL     1       0.883  10.532  20.118  0.00  0.00    +0.000 A 
ATOM     17  C   UNL     1       0.000  11.246  20.946  0.00  0.00    +0.000 A 
ATOM     18  C   UNL     1      -1.232  11.571  20.423  0.00  0.00    +0.000 A 
ATOM     19  C   UNL     1      -1.646  11.098  19.200  0.00  0.00    +0.000 A 
ATOM     20  C   UNL     1      -0.828  10.355  18.398  0.00  0.00    +0.000 A 
ATOM     21  O   UNL     1      -2.859  11.592  18.830  0.00  0.00    +0.000 OA
ATOM     22  C   UNL     1      -2.908  12.708  19.735  0.00  0.00    +0.000 C 
ATOM     23  O   UNL     1      -2.130  12.463  20.932  0.00  0.00    +0.000 OA
ENDBRANCH  11  15
ENDBRANCH   6   7
BRANCH   1  24
ATOM     24  N   UNL     1       3.438   4.046  17.096  0.00  0.00    +0.000 N 
ATOM     25  H   UNL     1       3.016   3.284  16.545  0.00  0.00    +0.000 HD
BRANCH  24  28
ATOM     26  C   UNL     1       6.521   4.448  15.007  0.00  0.00    +0.000 A 
ATOM     27  C   UNL     1       5.183   4.275  15.362  0.00  0.00    +0.000 A 
ATOM     28  C   UNL     1       4.793   4.186  16.702  0.00  0.00    +0.000 A 
ATOM     29  C   UNL     1       5.772   4.332  17.691  0.00  0.00    +0.000 A 
ATOM     30  C   UNL     1       7.114   4.527  17.352  0.00  0.00    +0.000 A 
ATOM     31  C   UNL     1       7.486   4.572  16.006  0.00  0.00    +0.000 A 
BRANCH  26  33
ATOM     32  C   UNL     1       6.107   3.503  12.867  0.00  0.00    +0.000 C 
ATOM     33  O   UNL     1       6.750   4.492  13.659  0.00  0.00    +0.000 OA
ENDBRANCH  26  33
BRANCH  30  34
ATOM     34  O   UNL     1       7.967   4.665  18.416  0.00  0.00    +0.000 OA
ATOM     35  C   UNL     1       7.931   5.909  19.106  0.00  0.00    +0.000 C 
ENDBRANCH  30  34
ENDBRANCH  24  28
ENDBRANCH   1  24
TORSDOF 6
ENDMDL
MODEL 5
REMARK VINA RESULT:      -8.7      1.204      2.557
REMARK  Name = 
REMARK  8 active torsions:
REMARK  status: ('A' for Active; 'I' for Inactive)
REMARK    1  A    between atoms: C_1  and  O_2
REMARK    2  A    between atoms: O_2  and  C_3
REMARK    3  A    between atoms: C_5  and  N_6
REMARK    4  A    between atoms: N_6  and  C_7
REMARK    5  A    between atoms: C_12  and  C_13
REMARK    6  A    between atoms: N_17  and  C_18
REMARK    7  A    between atoms: C_29  and  O_30
REMARK    8  A    between atoms: O_30  and  C_31
REMARK                            x       y       z     vdW  Elec       q    Type
REMARK                         _______ _______ _______ _____ _____    ______ ____
ROOT
ATOM      1  C   UNL     1      -1.027  11.500  20.702  0.00  0.00    +0.000 A 
ATOM      2  C   UNL     1      -1.719  11.901  21.857  0.00  0.00    +0.000 A 
ATOM      3  C   UNL     1      -1.321  11.423  23.092  0.00  0.00    +0.000 A 
ATOM      4  N   UNL     1      -0.312  10.548  23.260  0.00  0.00    +0.000 NA
ATOM      5  C   UNL     1       0.306  10.117  22.130  0.00  0.00    +0.000 A 
ATOM      6  C   UNL     1      -0.010  10.535  20.838  0.00  0.00    +0.000 A 
ENDROOT
BRANCH   6   7
ATOM      7  C   UNL     1       0.725   9.994  19.702  0.00  0.00    +0.000 A 
ATOM      8  N   UNL     1       0.736  10.534  18.473  0.00  0.00    +0.000 NA
ATOM      9  N   UNL     1       1.548   9.687  17.809  0.00  0.00    +0.000 N 
ATOM     10  C   UNL     1       1.939   8.637  18.593  0.00  0.00    +0.000 A 
ATOM     11  N   UNL     1       2.631   7.578  18.096  0.00  0.00    +0.000 N 
ATOM     12  N   UNL     1       1.480   8.840  19.798  0.00  0.00    +0.000 NA
ATOM     13  H   UNL     1       1.743   9.856  16.831  0.00  0.00    +0.000 HD
ATOM     14  H   UNL     1       3.060   7.563  17.178  0.00  0.00    +0.000 HD
BRANCH  11  15
ATOM     15  C   UNL     1       2.528   6.301  18.698  0.00  0.00    +0.000 A 
ATOM     16  C   UNL     1       2.374   6.171  20.097  0.00  0.00    +0.000 A 
ATOM     17  C   UNL     1       1.964   4.951  20.663  0.00  0.00    +0.000 A 
ATOM     18  C   UNL     1       1.697   3.913  19.797  0.00  0.00    +0.000 A 
ATOM     19  C   UNL     1       1.957   4.009  18.451  0.00  0.00    +0.000 A 
ATOM     20  C   UNL     1       2.409   5.166  17.883  0.00  0.00    +0.000 A 
ATOM     21  O   UNL     1       1.556   2.908  17.759  0.00  0.00    +0.000 OA
ATOM     22  C   UNL     1       0.666   2.361  18.747  0.00  0.00    +0.000 C 
ATOM     23  O   UNL     1       1.050   2.748  20.089  0.00  0.00    +0.000 OA
ENDBRANCH  11  15
ENDBRANCH   6   7
BRANCH   1  24
ATOM     24  N   UNL     1      -1.433  11.994  19.428  0.00  0.00    +0.000 N 
ATOM     25  H   UNL     1      -1.328  13.019  19.400  0.00  0.00    +0.000 HD
BRANCH  24  28
ATOM     26  C   UNL     1      -4.994  11.846  18.276  0.00  0.00    +0.000 A 
ATOM     27  C   UNL     1      -3.862  12.184  19.019  0.00  0.00    +0.000 A 
ATOM     28  C   UNL     1      -2.607  11.645  18.715  0.00  0.00    +0.000 A 
ATOM     29  C   UNL     1      -2.498  10.796  17.608  0.00  0.00    +0.000 A 
ATOM     30  C   UNL     1      -3.620  10.465  16.841  0.00  0.00    +0.000 A 
ATOM     31  C   UNL     1      -4.870  10.985  17.188  0.00  0.00    +0.000 A 
BRANCH  26  33
ATOM     32  C   UNL     1      -6.648  12.019  19.974  0.00  0.00    +0.000 C 
ATOM     33  O   UNL     1      -6.152  12.434  18.708  0.00  0.00    +0.000 OA
ENDBRANCH  26  33
BRANCH  30  34
ATOM     34  O   UNL     1      -3.372   9.635  15.779  0.00  0.00    +0.000 OA
ATOM     35  C   UNL     1      -3.028  10.258  14.547  0.00  0.00    +0.000 C 
ENDBRANCH  30  34
ENDBRANCH  24  28
ENDBRANCH   1  24
TORSDOF 6
ENDMDL
MODEL 6
REMARK VINA RESULT:      -8.6      3.296      9.065
REMARK  Name = 
REMARK  8 active torsions:
REMARK  status: ('A' for Active; 'I' for Inactive)
REMARK    1  A    between atoms: C_1  and  O_2
REMARK    2  A    between atoms: O_2  and  C_3
REMARK    3  A    between atoms: C_5  and  N_6
REMARK    4  A    between atoms: N_6  and  C_7
REMARK    5  A    between atoms: C_12  and  C_13
REMARK    6  A    between atoms: N_17  and  C_18
REMARK    7  A    between atoms: C_29  and  O_30
REMARK    8  A    between atoms: O_30  and  C_31
REMARK                            x       y       z     vdW  Elec       q    Type
REMARK                         _______ _______ _______ _____ _____    ______ ____
ROOT
ATOM      1  C   UNL     1       2.814   4.258  18.565  0.00  0.00    +0.000 A 
ATOM      2  C   UNL     1       2.668   3.099  19.346  0.00  0.00    +0.000 A 
ATOM      3  C   UNL     1       2.148   3.198  20.623  0.00  0.00    +0.000 A 
ATOM      4  N   UNL     1       1.797   4.365  21.195  0.00  0.00    +0.000 NA
ATOM      5  C   UNL     1       2.005   5.485  20.455  0.00  0.00    +0.000 A 
ATOM      6  C   UNL     1       2.518   5.501  19.158  0.00  0.00    +0.000 A 
ENDROOT
BRANCH   6   7
ATOM      7  C   UNL     1       2.700   6.771  18.468  0.00  0.00    +0.000 A 
ATOM      8  N   UNL     1       3.819   7.134  17.820  0.00  0.00    +0.000 NA
ATOM      9  N   UNL     1       3.485   8.355  17.359  0.00  0.00    +0.000 N 
ATOM     10  C   UNL     1       2.244   8.739  17.787  0.00  0.00    +0.000 A 
ATOM     11  N   UNL     1       1.759   9.991  17.578  0.00  0.00    +0.000 N 
ATOM     12  N   UNL     1       1.714   7.738  18.436  0.00  0.00    +0.000 NA
ATOM     13  H   UNL     1       4.159   8.879  16.817  0.00  0.00    +0.000 HD
ATOM     14  H   UNL     1       2.183  10.666  16.952  0.00  0.00    +0.000 HD
BRANCH  11  15
ATOM     15  C   UNL     1       0.811  10.556  18.465  0.00  0.00    +0.000 A 
ATOM     16  C   UNL     1      -0.575  10.389  18.245  0.00  0.00    +0.000 A 
ATOM     17  C   UNL     1      -1.502  10.669  19.264  0.00  0.00    +0.000 A 
ATOM     18  C   UNL     1      -0.998  11.083  20.478  0.00  0.00    +0.000 A 
ATOM     19  C   UNL     1       0.339  11.353  20.652  0.00  0.00    +0.000 A 
ATOM     20  C   UNL     1       1.254  11.142  19.660  0.00  0.00    +0.000 A 
ATOM     21  O   UNL     1       0.646  11.676  21.938  0.00  0.00    +0.000 OA
ATOM     22  C   UNL     1      -0.538  11.155  22.565  0.00  0.00    +0.000 C 
ATOM     23  O   UNL     1      -1.671  11.158  21.662  0.00  0.00    +0.000 OA
ENDBRANCH  11  15
ENDBRANCH   6   7
BRANCH   1  24
ATOM     24  N   UNL     1       3.347   4.159  17.247  0.00  0.00    +0.000 N 
ATOM     25  H   UNL     1       2.940   3.343  16.765  0.00  0.00    +0.000 HD
BRANCH  24  28
ATOM     26  C   UNL     1       6.461   4.528  15.199  0.00  0.00    +0.000 A 
ATOM     27  C   UNL     1       5.114   4.387  15.536  0.00  0.00    +0.000 A 
ATOM     28  C   UNL     1       4.709   4.268  16.870  0.00  0.00    +0.000 A 
ATOM     29  C   UNL     1       5.683   4.350  17.871  0.00  0.00    +0.000 A 
ATOM     30  C   UNL     1       7.034   4.512  17.550  0.00  0.00    +0.000 A 
ATOM     31  C   UNL     1       7.420   4.589  16.209  0.00  0.00    +0.000 A 
BRANCH  26  33
ATOM     32  C   UNL     1       6.133   3.595  13.038  0.00  0.00    +0.000 C 
ATOM     33  O   UNL     1       6.704   4.609  13.855  0.00  0.00    +0.000 OA
ENDBRANCH  26  33
BRANCH  30  34
ATOM     34  O   UNL     1       7.880   4.588  18.625  0.00  0.00    +0.000 OA
ATOM     35  C   UNL     1       7.860   5.800  19.370  0.00  0.00    +0.000 C 
ENDBRANCH  30  34
ENDBRANCH  24  28
ENDBRANCH   1  24
TORSDOF 6
ENDMDL
MODEL 7
REMARK VINA RESULT:      -8.6      0.628      2.170
REMARK  Name = 
REMARK  8 active torsions:
REMARK  status: ('A' for Active; 'I' for Inactive)
REMARK    1  A    between atoms: C_1  and  O_2
REMARK    2  A    between atoms: O_2  and  C_3
REMARK    3  A    between atoms: C_5  and  N_6
REMARK    4  A    between atoms: N_6  and  C_7
REMARK    5  A    between atoms: C_12  and  C_13
REMARK    6  A    between atoms: N_17  and  C_18
REMARK    7  A    between atoms: C_29  and  O_30
REMARK    8  A    between atoms: O_30  and  C_31
REMARK                            x       y       z     vdW  Elec       q    Type
REMARK                         _______ _______ _______ _____ _____    ______ ____
ROOT
ATOM      1  C   UNL     1      -0.520  10.947  20.607  0.00  0.00    +0.000 A 
ATOM      2  C   UNL     1      -1.190  11.331  21.781  0.00  0.00    +0.000 A 
ATOM      3  C   UNL     1      -0.773  10.828  23.000  0.00  0.00    +0.000 A 
ATOM      4  N   UNL     1       0.234   9.945  23.134  0.00  0.00    +0.000 NA
ATOM      5  C   UNL     1       0.830   9.532  21.986  0.00  0.00    +0.000 A 
ATOM      6  C   UNL     1       0.495   9.976  20.708  0.00  0.00    +0.000 A 
ENDROOT
BRANCH   6   7
ATOM      7  C   UNL     1       1.207   9.452  19.550  0.00  0.00    +0.000 A 
ATOM      8  N   UNL     1       1.287  10.068  18.360  0.00  0.00    +0.000 NA
ATOM      9  N   UNL     1       2.042   9.204  17.654  0.00  0.00    +0.000 N 
ATOM     10  C   UNL     1       2.332   8.076  18.371  0.00  0.00    +0.000 A 
ATOM     11  N   UNL     1       2.947   7.000  17.815  0.00  0.00    +0.000 N 
ATOM     12  N   UNL     1       1.865   8.237  19.580  0.00  0.00    +0.000 NA
ATOM     13  H   UNL     1       2.271   9.420  16.692  0.00  0.00    +0.000 HD
ATOM     14  H   UNL     1       3.392   7.010  16.905  0.00  0.00    +0.000 HD
BRANCH  11  15
ATOM     15  C   UNL     1       2.729   5.699  18.328  0.00  0.00    +0.000 A 
ATOM     16  C   UNL     1       1.622   4.929  17.904  0.00  0.00    +0.000 A 
ATOM     17  C   UNL     1       1.567   3.548  18.161  0.00  0.00    +0.000 A 
ATOM     18  C   UNL     1       2.643   2.986  18.813  0.00  0.00    +0.000 A 
ATOM     19  C   UNL     1       3.661   3.755  19.324  0.00  0.00    +0.000 A 
ATOM     20  C   UNL     1       3.711   5.107  19.137  0.00  0.00    +0.000 A 
ATOM     21  O   UNL     1       4.662   3.007  19.865  0.00  0.00    +0.000 OA
ATOM     22  C   UNL     1       4.336   1.753  19.243  0.00  0.00    +0.000 C 
ATOM     23  O   UNL     1       2.924   1.656  18.935  0.00  0.00    +0.000 OA
ENDBRANCH  11  15
ENDBRANCH   6   7
BRANCH   1  24
ATOM     24  N   UNL     1      -0.945  11.467  19.349  0.00  0.00    +0.000 N 
ATOM     25  H   UNL     1      -0.479  12.369  19.168  0.00  0.00    +0.000 HD
BRANCH  24  28
ATOM     26  C   UNL     1      -4.592  12.271  19.064  0.00  0.00    +0.000 A 
ATOM     27  C   UNL     1      -3.299  12.180  19.580  0.00  0.00    +0.000 A 
ATOM     28  C   UNL     1      -2.276  11.545  18.868  0.00  0.00    +0.000 A 
ATOM     29  C   UNL     1      -2.563  11.047  17.592  0.00  0.00    +0.000 A 
ATOM     30  C   UNL     1      -3.849  11.149  17.052  0.00  0.00    +0.000 A 
ATOM     31  C   UNL     1      -4.864  11.753  17.799  0.00  0.00    +0.000 A 
BRANCH  26  33
ATOM     32  C   UNL     1      -6.584  13.550  19.259  0.00  0.00    +0.000 C 
ATOM     33  O   UNL     1      -5.488  12.898  19.885  0.00  0.00    +0.000 OA
ENDBRANCH  26  33
BRANCH  30  34
ATOM     34  O   UNL     1      -3.991  10.632  15.791  0.00  0.00    +0.000 OA
ATOM     35  C   UNL     1      -2.806  10.169  15.152  0.00  0.00    +0.000 C 
ENDBRANCH  30  34
ENDBRANCH  24  28
ENDBRANCH   1  24
TORSDOF 6
ENDMDL
MODEL 8
REMARK VINA RESULT:      -8.5      1.072      2.578
REMARK  Name = 
REMARK  8 active torsions:
REMARK  status: ('A' for Active; 'I' for Inactive)
REMARK    1  A    between atoms: C_1  and  O_2
REMARK    2  A    between atoms: O_2  and  C_3
REMARK    3  A    between atoms: C_5  and  N_6
REMARK    4  A    between atoms: N_6  and  C_7
REMARK    5  A    between atoms: C_12  and  C_13
REMARK    6  A    between atoms: N_17  and  C_18
REMARK    7  A    between atoms: C_29  and  O_30
REMARK    8  A    between atoms: O_30  and  C_31
REMARK                            x       y       z     vdW  Elec       q    Type
REMARK                         _______ _______ _______ _____ _____    ______ ____
ROOT
ATOM      1  C   UNL     1      -0.492  11.086  20.789  0.00  0.00    +0.000 A 
ATOM      2  C   UNL     1      -1.143  11.361  22.004  0.00  0.00    +0.000 A 
ATOM      3  C   UNL     1      -0.787  10.661  23.142  0.00  0.00    +0.000 A 
ATOM      4  N   UNL     1       0.140   9.686  23.155  0.00  0.00    +0.000 NA
ATOM      5  C   UNL     1       0.715   9.385  21.962  0.00  0.00    +0.000 A 
ATOM      6  C   UNL     1       0.436  10.027  20.756  0.00  0.00    +0.000 A 
ENDROOT
BRANCH   6   7
ATOM      7  C   UNL     1       1.117   9.608  19.538  0.00  0.00    +0.000 A 
ATOM      8  N   UNL     1       0.985  10.209  18.345  0.00  0.00    +0.000 NA
ATOM      9  N   UNL     1       1.805   9.469  17.574  0.00  0.00    +0.000 N 
ATOM     10  C   UNL     1       2.342   8.417  18.263  0.00  0.00    +0.000 A 
ATOM     11  N   UNL     1       3.075   7.448  17.654  0.00  0.00    +0.000 N 
ATOM     12  N   UNL     1       1.967   8.520  19.510  0.00  0.00    +0.000 NA
ATOM     13  H   UNL     1       1.906   9.703  16.595  0.00  0.00    +0.000 HD
ATOM     14  H   UNL     1       3.427   7.515  16.707  0.00  0.00    +0.000 HD
BRANCH  11  15
ATOM     15  C   UNL     1       3.123   6.137  18.188  0.00  0.00    +0.000 A 
ATOM     16  C   UNL     1       4.289   5.660  18.830  0.00  0.00    +0.000 A 
ATOM     17  C   UNL     1       4.247   4.501  19.624  0.00  0.00    +0.000 A 
ATOM     18  C   UNL     1       3.026   3.877  19.764  0.00  0.00    +0.000 A 
ATOM     19  C   UNL     1       1.923   4.278  19.048  0.00  0.00    +0.000 A 
ATOM     20  C   UNL     1       1.951   5.368  18.226  0.00  0.00    +0.000 A 
ATOM     21  O   UNL     1       0.800   3.584  19.382  0.00  0.00    +0.000 OA
ATOM     22  C   UNL     1       1.255   3.057  20.640  0.00  0.00    +0.000 C 
ATOM     23  O   UNL     1       2.697   2.914  20.672  0.00  0.00    +0.000 OA
ENDBRANCH  11  15
ENDBRANCH   6   7
BRANCH   1  24
ATOM     24  N   UNL     1      -0.855  11.809  19.614  0.00  0.00    +0.000 N 
ATOM     25  H   UNL     1      -0.593  12.800  19.719  0.00  0.00    +0.000 HD
BRANCH  24  28
ATOM     26  C   UNL     1      -4.504  12.036  18.804  0.00  0.00    +0.000 A 
ATOM     27  C   UNL     1      -3.308  12.079  19.521  0.00  0.00    +0.000 A 
ATOM     28  C   UNL     1      -2.090  11.741  18.923  0.00  0.00    +0.000 A 
ATOM     29  C   UNL     1      -2.085  11.409  17.563  0.00  0.00    +0.000 A 
ATOM     30  C   UNL     1      -3.273  11.382  16.826  0.00  0.00    +0.000 A 
ATOM     31  C   UNL     1      -4.483  11.685  17.455  0.00  0.00    +0.000 A 
BRANCH  26  33
ATOM     32  C   UNL     1      -5.474  12.386  20.944  0.00  0.00    +0.000 C 
ATOM     33  O   UNL     1      -5.614  12.370  19.530  0.00  0.00    +0.000 OA
ENDBRANCH  26  33
BRANCH  30  34
ATOM     34  O   UNL     1      -3.127  11.052  15.503  0.00  0.00    +0.000 OA
ATOM     35  C   UNL     1      -3.126   9.665  15.186  0.00  0.00    +0.000 C 
ENDBRANCH  30  34
ENDBRANCH  24  28
ENDBRANCH   1  24
TORSDOF 6
ENDMDL
MODEL 9
REMARK VINA RESULT:      -8.4      3.316      9.505
REMARK  Name = 
REMARK  8 active torsions:
REMARK  status: ('A' for Active; 'I' for Inactive)
REMARK    1  A    between atoms: C_1  and  O_2
REMARK    2  A    between atoms: O_2  and  C_3
REMARK    3  A    between atoms: C_5  and  N_6
REMARK    4  A    between atoms: N_6  and  C_7
REMARK    5  A    between atoms: C_12  and  C_13
REMARK    6  A    between atoms: N_17  and  C_18
REMARK    7  A    between atoms: C_29  and  O_30
REMARK    8  A    between atoms: O_30  and  C_31
REMARK                            x       y       z     vdW  Elec       q    Type
REMARK                         _______ _______ _______ _____ _____    ______ ____
ROOT
ATOM      1  C   UNL     1       2.917   3.959  18.536  0.00  0.00    +0.000 A 
ATOM      2  C   UNL     1       2.898   2.691  19.140  0.00  0.00    +0.000 A 
ATOM      3  C   UNL     1       2.382   2.549  20.414  0.00  0.00    +0.000 A 
ATOM      4  N   UNL     1       1.917   3.578  21.147  0.00  0.00    +0.000 NA
ATOM      5  C   UNL     1       2.001   4.808  20.578  0.00  0.00    +0.000 A 
ATOM      6  C   UNL     1       2.499   5.066  19.301  0.00  0.00    +0.000 A 
ENDROOT
BRANCH   6   7
ATOM      7  C   UNL     1       2.542   6.434  18.804  0.00  0.00    +0.000 A 
ATOM      8  N   UNL     1       3.522   6.936  18.035  0.00  0.00    +0.000 NA
ATOM      9  N   UNL     1       3.100   8.201  17.844  0.00  0.00    +0.000 N 
ATOM     10  C   UNL     1       1.953   8.467  18.541  0.00  0.00    +0.000 A 
ATOM     11  N   UNL     1       1.428   9.717  18.625  0.00  0.00    +0.000 N 
ATOM     12  N   UNL     1       1.558   7.356  19.103  0.00  0.00    +0.000 NA
ATOM     13  H   UNL     1       3.660   8.829  17.282  0.00  0.00    +0.000 HD
ATOM     14  H   UNL     1       1.726  10.497  18.051  0.00  0.00    +0.000 HD
BRANCH  11  15
ATOM     15  C   UNL     1       0.651  10.099  19.745  0.00  0.00    +0.000 A 
ATOM     16  C   UNL     1       0.743   9.391  20.965  0.00  0.00    +0.000 A 
ATOM     17  C   UNL     1       0.226   9.938  22.153  0.00  0.00    +0.000 A 
ATOM     18  C   UNL     1      -0.343  11.191  22.074  0.00  0.00    +0.000 A 
ATOM     19  C   UNL     1      -0.532  11.824  20.869  0.00  0.00    +0.000 A 
ATOM     20  C   UNL     1      -0.088  11.289  19.693  0.00  0.00    +0.000 A 
ATOM     21  O   UNL     1      -1.039  13.080  21.011  0.00  0.00    +0.000 OA
ATOM     22  C   UNL     1      -0.724  13.270  22.400  0.00  0.00    +0.000 C 
ATOM     23  O   UNL     1      -0.666  12.010  23.115  0.00  0.00    +0.000 OA
ENDBRANCH  11  15
ENDBRANCH   6   7
BRANCH   1  24
ATOM     24  N   UNL     1       3.446   4.108  17.220  0.00  0.00    +0.000 N 
ATOM     25  H   UNL     1       3.059   3.378  16.604  0.00  0.00    +0.000 HD
BRANCH  24  28
ATOM     26  C   UNL     1       7.156   4.567  17.440  0.00  0.00    +0.000 A 
ATOM     27  C   UNL     1       5.825   4.391  17.820  0.00  0.00    +0.000 A 
ATOM     28  C   UNL     1       4.802   4.321  16.869  0.00  0.00    +0.000 A 
ATOM     29  C   UNL     1       5.148   4.375  15.514  0.00  0.00    +0.000 A 
ATOM     30  C   UNL     1       6.480   4.531  15.117  0.00  0.00    +0.000 A 
ATOM     31  C   UNL     1       7.480   4.638  16.086  0.00  0.00    +0.000 A 
BRANCH  26  33
ATOM     32  C   UNL     1       7.921   5.766  19.343  0.00  0.00    +0.000 C 
ATOM     33  O   UNL     1       8.039   4.641  18.483  0.00  0.00    +0.000 OA
ENDBRANCH  26  33
BRANCH  30  34
ATOM     34  O   UNL     1       6.682   4.557  13.762  0.00  0.00    +0.000 OA
ATOM     35  C   UNL     1       6.017   3.558  12.996  0.00  0.00    +0.000 C 
ENDBRANCH  30  34
ENDBRANCH  24  28
ENDBRANCH   1  24
TORSDOF 6
ENDMDL
