MODEL 1
REMARK VINA RESULT:      -7.3      0.000      0.000
REMARK  Name = 
REMARK  5 active torsions:
REMARK  status: ('A' for Active; 'I' for Inactive)
REMARK    1  A    between atoms: C_2  and  C_3
REMARK    2  A    between atoms: C_3  and  N_4
REMARK    3  A    between atoms: N_4  and  C_5
REMARK    4  A    between atoms: N_12  and  N_13
REMARK    5  A    between atoms: C_14  and  C_15
REMARK                            x       y       z     vdW  Elec       q    Type
REMARK                         _______ _______ _______ _____ _____    ______ ____
ROOT
ATOM      1  O   UNL     1       7.869   6.260  18.683  0.00  0.00    +0.000 OA
ATOM      2  C   UNL     1       7.342   6.891  17.768  0.00  0.00    +0.000 C 
ATOM      3  N   UNL     1       7.563   8.237  17.499  0.00  0.00    +0.000 N 
ATOM      4  H   UNL     1       7.083   8.705  16.737  0.00  0.00    +0.000 HD
ENDROOT
BRANCH   3   5
ATOM      5  N   UNL     1       8.457   8.928  18.261  0.00  0.00    +0.000 NA
ATOM      6  C   UNL     1       8.737  10.131  17.875  0.00  0.00    +0.000 C 
BRANCH   6   7
ATOM      7  C   UNL     1       9.685  10.974  18.629  0.00  0.00    +0.000 A 
ATOM      8  C   UNL     1      10.698  11.669  17.971  0.00  0.00    +0.000 A 
ATOM      9  C   UNL     1      11.558  12.431  18.739  0.00  0.00    +0.000 A 
ATOM     10  N   UNL     1      11.466  12.536  20.083  0.00  0.00    +0.000 NA
ATOM     11  C   UNL     1      10.472  11.851  20.688  0.00  0.00    +0.000 A 
ATOM     12  C   UNL     1       9.559  11.062  20.012  0.00  0.00    +0.000 A 
ENDBRANCH   6   7
ENDBRANCH   3   5
BRANCH   2  13
ATOM     13  C   UNL     1       6.349   6.239  16.801  0.00  0.00    +0.000 C 
BRANCH  13  14
ATOM     14  N   UNL     1       4.966   6.592  17.138  0.00  0.00    +0.000 N 
ATOM     15  H   UNL     1       4.609   7.409  16.652  0.00  0.00    +0.000 HD
BRANCH  14  16
ATOM     16  C   UNL     1       4.028   5.577  17.332  0.00  0.00    +0.000 A 
ATOM     17  C   UNL     1       4.267   4.239  16.982  0.00  0.00    +0.000 A 
ATOM     18  C   UNL     1       3.327   3.240  17.246  0.00  0.00    +0.000 A 
ATOM     19  C   UNL     1       2.140   3.568  17.884  0.00  0.00    +0.000 A 
ATOM     20  F   UNL     1       1.237   2.613  18.137  0.00  0.00    +0.000 F 
ATOM     21  C   UNL     1       1.887   4.875  18.275  0.00  0.00    +0.000 A 
ATOM     22  C   UNL     1       2.836   5.869  18.014  0.00  0.00    +0.000 A 
ENDBRANCH  14  16
ENDBRANCH  13  14
ENDBRANCH   2  13
TORSDOF 5
ENDMDL
MODEL 2
REMARK VINA RESULT:      -7.3      0.443      1.527
REMARK  Name = 
REMARK  5 active torsions:
REMARK  status: ('A' for Active; 'I' for Inactive)
REMARK    1  A    between atoms: C_2  and  C_3
REMARK    2  A    between atoms: C_3  and  N_4
REMARK    3  A    between atoms: N_4  and  C_5
REMARK    4  A    between atoms: N_12  and  N_13
REMARK    5  A    between atoms: C_14  and  C_15
REMARK                            x       y       z     vdW  Elec       q    Type
REMARK                         _______ _______ _______ _____ _____    ______ ____
ROOT
ATOM      1  O   UNL     1       7.968   6.113  18.504  0.00  0.00    +0.000 OA
ATOM      2  C   UNL     1       7.289   6.785  17.729  0.00  0.00    +0.000 C 
ATOM      3  N   UNL     1       7.456   8.146  17.500  0.00  0.00    +0.000 N 
ATOM      4  H   UNL     1       6.850   8.648  16.860  0.00  0.00    +0.000 HD
ENDROOT
BRANCH   3   5
ATOM      5  N   UNL     1       8.466   8.807  18.135  0.00  0.00    +0.000 NA
ATOM      6  C   UNL     1       8.507  10.090  17.974  0.00  0.00    +0.000 C 
BRANCH   6   7
ATOM      7  C   UNL     1       9.551  10.908  18.621  0.00  0.00    +0.000 A 
ATOM      8  C   UNL     1       9.584  11.054  20.006  0.00  0.00    +0.000 A 
ATOM      9  C   UNL     1      10.582  11.843  20.545  0.00  0.00    +0.000 A 
ATOM     10  N   UNL     1      11.520  12.473  19.804  0.00  0.00    +0.000 NA
ATOM     11  C   UNL     1      11.460  12.308  18.465  0.00  0.00    +0.000 A 
ATOM     12  C   UNL     1      10.503  11.540  17.827  0.00  0.00    +0.000 A 
ENDBRANCH   6   7
ENDBRANCH   3   5
BRANCH   2  13
ATOM     13  C   UNL     1       6.147   6.174  16.913  0.00  0.00    +0.000 C 
BRANCH  13  14
ATOM     14  N   UNL     1       4.849   6.399  17.558  0.00  0.00    +0.000 N 
ATOM     15  H   UNL     1       4.387   7.262  17.288  0.00  0.00    +0.000 HD
BRANCH  14  16
ATOM     16  C   UNL     1       3.988   5.320  17.760  0.00  0.00    +0.000 A 
ATOM     17  C   UNL     1       2.593   5.457  17.823  0.00  0.00    +0.000 A 
ATOM     18  C   UNL     1       1.759   4.344  17.966  0.00  0.00    +0.000 A 
ATOM     19  C   UNL     1       2.315   3.076  18.029  0.00  0.00    +0.000 A 
ATOM     20  F   UNL     1       1.519   2.009  18.168  0.00  0.00    +0.000 F 
ATOM     21  C   UNL     1       3.688   2.902  17.936  0.00  0.00    +0.000 A 
ATOM     22  C   UNL     1       4.517   4.019  17.784  0.00  0.00    +0.000 A 
ENDBRANCH  14  16
ENDBRANCH  13  14
ENDBRANCH   2  13
TORSDOF 5
ENDMDL
MODEL 3
REMARK VINA RESULT:      -7.3      1.602      1.800
REMARK  Name = 
REMARK  5 active torsions:
REMARK  status: ('A' for Active; 'I' for Inactive)
REMARK    1  A    between atoms: C_2  and  C_3
REMARK    2  A    between atoms: C_3  and  N_4
REMARK    3  A    between atoms: N_4  and  C_5
REMARK    4  A    between atoms: N_12  and  N_13
REMARK    5  A    between atoms: C_14  and  C_15
REMARK                            x       y       z     vdW  Elec       q    Type
REMARK                         _______ _______ _______ _____ _____    ______ ____
ROOT
ATOM      1  O   UNL     1       6.924   6.875  16.585  0.00  0.00    +0.000 OA
ATOM      2  C   UNL     1       7.434   6.557  17.658  0.00  0.00    +0.000 C 
ATOM      3  N   UNL     1       8.161   7.413  18.478  0.00  0.00    +0.000 N 
ATOM      4  H   UNL     1       8.571   7.083  19.346  0.00  0.00    +0.000 HD
ENDROOT
BRANCH   3   5
ATOM      5  N   UNL     1       8.304   8.719  18.115  0.00  0.00    +0.000 NA
ATOM      6  C   UNL     1       9.069   9.446  18.863  0.00  0.00    +0.000 C 
BRANCH   6   7
ATOM      7  C   UNL     1       9.302  10.870  18.560  0.00  0.00    +0.000 A 
ATOM      8  C   UNL     1       8.375  11.602  17.822  0.00  0.00    +0.000 A 
ATOM      9  C   UNL     1       8.662  12.930  17.564  0.00  0.00    +0.000 A 
ATOM     10  N   UNL     1       9.785  13.548  17.991  0.00  0.00    +0.000 NA
ATOM     11  C   UNL     1      10.661  12.811  18.706  0.00  0.00    +0.000 A 
ATOM     12  C   UNL     1      10.469  11.477  19.018  0.00  0.00    +0.000 A 
ENDBRANCH   6   7
ENDBRANCH   3   5
BRANCH   2  13
ATOM     13  C   UNL     1       7.322   5.137  18.219  0.00  0.00    +0.000 C 
BRANCH  13  14
ATOM     14  N   UNL     1       6.210   5.024  19.170  0.00  0.00    +0.000 N 
ATOM     15  H   UNL     1       6.287   5.629  19.981  0.00  0.00    +0.000 HD
BRANCH  14  16
ATOM     16  C   UNL     1       4.911   4.861  18.688  0.00  0.00    +0.000 A 
ATOM     17  C   UNL     1       4.581   3.950  17.673  0.00  0.00    +0.000 A 
ATOM     18  C   UNL     1       3.259   3.772  17.258  0.00  0.00    +0.000 A 
ATOM     19  C   UNL     1       2.246   4.494  17.871  0.00  0.00    +0.000 A 
ATOM     20  F   UNL     1       0.978   4.327  17.474  0.00  0.00    +0.000 F 
ATOM     21  C   UNL     1       2.533   5.378  18.901  0.00  0.00    +0.000 A 
ATOM     22  C   UNL     1       3.859   5.545  19.317  0.00  0.00    +0.000 A 
ENDBRANCH  14  16
ENDBRANCH  13  14
ENDBRANCH   2  13
TORSDOF 5
ENDMDL
MODEL 4
REMARK VINA RESULT:      -7.2      1.147      1.736
REMARK  Name = 
REMARK  5 active torsions:
REMARK  status: ('A' for Active; 'I' for Inactive)
REMARK    1  A    between atoms: C_2  and  C_3
REMARK    2  A    between atoms: C_3  and  N_4
REMARK    3  A    between atoms: N_4  and  C_5
REMARK    4  A    between atoms: N_12  and  N_13
REMARK    5  A    between atoms: C_14  and  C_15
REMARK                            x       y       z     vdW  Elec       q    Type
REMARK                         _______ _______ _______ _____ _____    ______ ____
ROOT
ATOM      1  O   UNL     1       7.856   5.808  18.847  0.00  0.00    +0.000 OA
ATOM      2  C   UNL     1       7.349   6.344  17.862  0.00  0.00    +0.000 C 
ATOM      3  N   UNL     1       7.546   7.669  17.489  0.00  0.00    +0.000 N 
ATOM      4  H   UNL     1       7.084   8.057  16.673  0.00  0.00    +0.000 HD
ENDROOT
BRANCH   3   5
ATOM      5  N   UNL     1       8.389   8.448  18.224  0.00  0.00    +0.000 NA
ATOM      6  C   UNL     1       8.461   9.696  17.890  0.00  0.00    +0.000 C 
BRANCH   6   7
ATOM      7  C   UNL     1       9.335  10.633  18.621  0.00  0.00    +0.000 A 
ATOM      8  C   UNL     1       9.297  10.703  20.012  0.00  0.00    +0.000 A 
ATOM      9  C   UNL     1      10.135  11.612  20.632  0.00  0.00    +0.000 A 
ATOM     10  N   UNL     1      10.981  12.426  19.964  0.00  0.00    +0.000 NA
ATOM     11  C   UNL     1      10.994  12.330  18.617  0.00  0.00    +0.000 A 
ATOM     12  C   UNL     1      10.197  11.455  17.900  0.00  0.00    +0.000 A 
ENDBRANCH   6   7
ENDBRANCH   3   5
BRANCH   2  13
ATOM     13  C   UNL     1       6.414   5.585  16.918  0.00  0.00    +0.000 C 
BRANCH  13  14
ATOM     14  N   UNL     1       5.987   4.308  17.501  0.00  0.00    +0.000 N 
ATOM     15  H   UNL     1       6.703   3.828  18.037  0.00  0.00    +0.000 HD
BRANCH  14  16
ATOM     16  C   UNL     1       4.697   4.192  18.022  0.00  0.00    +0.000 A 
ATOM     17  C   UNL     1       3.570   4.755  17.404  0.00  0.00    +0.000 A 
ATOM     18  C   UNL     1       2.286   4.566  17.923  0.00  0.00    +0.000 A 
ATOM     19  C   UNL     1       2.115   3.793  19.061  0.00  0.00    +0.000 A 
ATOM     20  F   UNL     1       0.887   3.612  19.562  0.00  0.00    +0.000 F 
ATOM     21  C   UNL     1       3.204   3.194  19.677  0.00  0.00    +0.000 A 
ATOM     22  C   UNL     1       4.486   3.380  19.148  0.00  0.00    +0.000 A 
ENDBRANCH  14  16
ENDBRANCH  13  14
ENDBRANCH   2  13
TORSDOF 5
ENDMDL
MODEL 5
REMARK VINA RESULT:      -7.2      0.806      1.377
REMARK  Name = 
REMARK  5 active torsions:
REMARK  status: ('A' for Active; 'I' for Inactive)
REMARK    1  A    between atoms: C_2  and  C_3
REMARK    2  A    between atoms: C_3  and  N_4
REMARK    3  A    between atoms: N_4  and  C_5
REMARK    4  A    between atoms: N_12  and  N_13
REMARK    5  A    between atoms: C_14  and  C_15
REMARK                            x       y       z     vdW  Elec       q    Type
REMARK                         _______ _______ _______ _____ _____    ______ ____
ROOT
ATOM      1  O   UNL     1       8.058   6.453  18.925  0.00  0.00    +0.000 OA
ATOM      2  C   UNL     1       7.701   6.930  17.848  0.00  0.00    +0.000 C 
ATOM      3  N   UNL     1       7.817   8.270  17.495  0.00  0.00    +0.000 N 
ATOM      4  H   UNL     1       7.487   8.605  16.596  0.00  0.00    +0.000 HD
ENDROOT
BRANCH   3   5
ATOM      5  N   UNL     1       8.403   9.138  18.368  0.00  0.00    +0.000 NA
ATOM      6  C   UNL     1       8.898  10.220  17.860  0.00  0.00    +0.000 C 
BRANCH   6   7
ATOM      7  C   UNL     1       9.548  11.235  18.710  0.00  0.00    +0.000 A 
ATOM      8  C   UNL     1       9.999  12.436  18.167  0.00  0.00    +0.000 A 
ATOM      9  C   UNL     1      10.610  13.338  19.019  0.00  0.00    +0.000 A 
ATOM     10  N   UNL     1      10.788  13.115  20.340  0.00  0.00    +0.000 NA
ATOM     11  C   UNL     1      10.338  11.943  20.833  0.00  0.00    +0.000 A 
ATOM     12  C   UNL     1       9.713  10.975  20.068  0.00  0.00    +0.000 A 
ENDBRANCH   6   7
ENDBRANCH   3   5
BRANCH   2  13
ATOM     13  C   UNL     1       7.065   6.071  16.752  0.00  0.00    +0.000 C 
BRANCH  13  14
ATOM     14  N   UNL     1       5.734   6.568  16.389  0.00  0.00    +0.000 N 
ATOM     15  H   UNL     1       5.613   6.769  15.401  0.00  0.00    +0.000 HD
BRANCH  14  16
ATOM     16  C   UNL     1       4.608   6.027  17.012  0.00  0.00    +0.000 A 
ATOM     17  C   UNL     1       3.649   6.810  17.671  0.00  0.00    +0.000 A 
ATOM     18  C   UNL     1       2.504   6.238  18.232  0.00  0.00    +0.000 A 
ATOM     19  C   UNL     1       2.298   4.871  18.122  0.00  0.00    +0.000 A 
ATOM     20  F   UNL     1       1.202   4.321  18.659  0.00  0.00    +0.000 F 
ATOM     21  C   UNL     1       3.209   4.073  17.447  0.00  0.00    +0.000 A 
ATOM     22  C   UNL     1       4.350   4.653  16.881  0.00  0.00    +0.000 A 
ENDBRANCH  14  16
ENDBRANCH  13  14
ENDBRANCH   2  13
TORSDOF 5
ENDMDL
MODEL 6
REMARK VINA RESULT:      -7.2      1.135      1.361
REMARK  Name = 
REMARK  5 active torsions:
REMARK  status: ('A' for Active; 'I' for Inactive)
REMARK    1  A    between atoms: C_2  and  C_3
REMARK    2  A    between atoms: C_3  and  N_4
REMARK    3  A    between atoms: N_4  and  C_5
REMARK    4  A    between atoms: N_12  and  N_13
REMARK    5  A    between atoms: C_14  and  C_15
REMARK                            x       y       z     vdW  Elec       q    Type
REMARK                         _______ _______ _______ _____ _____    ______ ____
ROOT
ATOM      1  O   UNL     1       7.927   5.964  18.786  0.00  0.00    +0.000 OA
ATOM      2  C   UNL     1       7.263   6.506  17.904  0.00  0.00    +0.000 C 
ATOM      3  N   UNL     1       7.471   7.798  17.433  0.00  0.00    +0.000 N 
ATOM      4  H   UNL     1       6.875   8.194  16.714  0.00  0.00    +0.000 HD
ENDROOT
BRANCH   3   5
ATOM      5  N   UNL     1       8.505   8.530  17.935  0.00  0.00    +0.000 NA
ATOM      6  C   UNL     1       8.271   9.782  18.159  0.00  0.00    +0.000 C 
BRANCH   6   7
ATOM      7  C   UNL     1       9.315  10.667  18.709  0.00  0.00    +0.000 A 
ATOM      8  C   UNL     1      10.241  11.284  17.869  0.00  0.00    +0.000 A 
ATOM      9  C   UNL     1      11.199  12.092  18.453  0.00  0.00    +0.000 A 
ATOM     10  N   UNL     1      11.282  12.313  19.783  0.00  0.00    +0.000 NA
ATOM     11  C   UNL     1      10.368  11.702  20.567  0.00  0.00    +0.000 A 
ATOM     12  C   UNL     1       9.369  10.876  20.084  0.00  0.00    +0.000 A 
ENDBRANCH   6   7
ENDBRANCH   3   5
BRANCH   2  13
ATOM     13  C   UNL     1       6.096   5.794  17.216  0.00  0.00    +0.000 C 
BRANCH  13  14
ATOM     14  N   UNL     1       6.007   4.390  17.631  0.00  0.00    +0.000 N 
ATOM     15  H   UNL     1       6.785   4.067  18.197  0.00  0.00    +0.000 HD
BRANCH  14  16
ATOM     16  C   UNL     1       4.767   3.861  17.993  0.00  0.00    +0.000 A 
ATOM     17  C   UNL     1       3.705   3.714  17.087  0.00  0.00    +0.000 A 
ATOM     18  C   UNL     1       2.498   3.125  17.472  0.00  0.00    +0.000 A 
ATOM     19  C   UNL     1       2.348   2.657  18.769  0.00  0.00    +0.000 A 
ATOM     20  F   UNL     1       1.192   2.093  19.141  0.00  0.00    +0.000 F 
ATOM     21  C   UNL     1       3.389   2.756  19.680  0.00  0.00    +0.000 A 
ATOM     22  C   UNL     1       4.598   3.340  19.286  0.00  0.00    +0.000 A 
ENDBRANCH  14  16
ENDBRANCH  13  14
ENDBRANCH   2  13
TORSDOF 5
ENDMDL
MODEL 7
REMARK VINA RESULT:      -7.2      3.676      9.339
REMARK  Name = 
REMARK  5 active torsions:
REMARK  status: ('A' for Active; 'I' for Inactive)
REMARK    1  A    between atoms: C_2  and  C_3
REMARK    2  A    between atoms: C_3  and  N_4
REMARK    3  A    between atoms: N_4  and  C_5
REMARK    4  A    between atoms: N_12  and  N_13
REMARK    5  A    between atoms: C_14  and  C_15
REMARK                            x       y       z     vdW  Elec       q    Type
REMARK                         _______ _______ _______ _____ _____    ______ ____
ROOT
ATOM      1  O   UNL     1       7.902   6.541  18.479  0.00  0.00    +0.000 OA
ATOM      2  C   UNL     1       7.468   7.465  17.793  0.00  0.00    +0.000 C 
ATOM      3  N   UNL     1       6.343   7.390  16.978  0.00  0.00    +0.000 N 
ATOM      4  H   UNL     1       6.047   8.185  16.422  0.00  0.00    +0.000 HD
ENDROOT
BRANCH   3   5
ATOM      5  N   UNL     1       5.621   6.234  16.947  0.00  0.00    +0.000 NA
ATOM      6  C   UNL     1       4.522   6.223  17.629  0.00  0.00    +0.000 C 
BRANCH   6   7
ATOM      7  C   UNL     1       3.656   5.028  17.661  0.00  0.00    +0.000 A 
ATOM      8  C   UNL     1       4.184   3.760  17.427  0.00  0.00    +0.000 A 
ATOM      9  C   UNL     1       3.315   2.686  17.461  0.00  0.00    +0.000 A 
ATOM     10  N   UNL     1       1.991   2.802  17.708  0.00  0.00    +0.000 NA
ATOM     11  C   UNL     1       1.514   4.045  17.932  0.00  0.00    +0.000 A 
ATOM     12  C   UNL     1       2.298   5.185  17.922  0.00  0.00    +0.000 A 
ENDBRANCH   6   7
ENDBRANCH   3   5
BRANCH   2  13
ATOM     13  C   UNL     1       8.147   8.836  17.758  0.00  0.00    +0.000 C 
BRANCH  13  14
ATOM     14  N   UNL     1       8.881   9.101  19.000  0.00  0.00    +0.000 N 
ATOM     15  H   UNL     1       9.467   8.334  19.315  0.00  0.00    +0.000 HD
BRANCH  14  16
ATOM     16  C   UNL     1       9.419  10.370  19.221  0.00  0.00    +0.000 A 
ATOM     17  C   UNL     1       9.601  10.910  20.503  0.00  0.00    +0.000 A 
ATOM     18  C   UNL     1      10.198  12.160  20.687  0.00  0.00    +0.000 A 
ATOM     19  C   UNL     1      10.636  12.878  19.584  0.00  0.00    +0.000 A 
ATOM     20  F   UNL     1      11.206  14.077  19.757  0.00  0.00    +0.000 F 
ATOM     21  C   UNL     1      10.502  12.358  18.305  0.00  0.00    +0.000 A 
ATOM     22  C   UNL     1       9.911  11.102  18.128  0.00  0.00    +0.000 A 
ENDBRANCH  14  16
ENDBRANCH  13  14
ENDBRANCH   2  13
TORSDOF 5
ENDMDL
MODEL 8
REMARK VINA RESULT:      -7.0      1.596      2.170
REMARK  Name = 
REMARK  5 active torsions:
REMARK  status: ('A' for Active; 'I' for Inactive)
REMARK    1  A    between atoms: C_2  and  C_3
REMARK    2  A    between atoms: C_3  and  N_4
REMARK    3  A    between atoms: N_4  and  C_5
REMARK    4  A    between atoms: N_12  and  N_13
REMARK    5  A    between atoms: C_14  and  C_15
REMARK                            x       y       z     vdW  Elec       q    Type
REMARK                         _______ _______ _______ _____ _____    ______ ____
ROOT
ATOM      1  O   UNL     1       7.310   7.416  16.930  0.00  0.00    +0.000 OA
ATOM      2  C   UNL     1       7.768   7.123  18.033  0.00  0.00    +0.000 C 
ATOM      3  N   UNL     1       8.503   7.982  18.843  0.00  0.00    +0.000 N 
ATOM      4  H   UNL     1       8.869   7.673  19.737  0.00  0.00    +0.000 HD
ENDROOT
BRANCH   3   5
ATOM      5  N   UNL     1       8.713   9.265  18.432  0.00  0.00    +0.000 NA
ATOM      6  C   UNL     1       9.284  10.057  19.281  0.00  0.00    +0.000 C 
BRANCH   6   7
ATOM      7  C   UNL     1       9.568  11.464  18.941  0.00  0.00    +0.000 A 
ATOM      8  C   UNL     1       9.210  12.492  19.810  0.00  0.00    +0.000 A 
ATOM      9  C   UNL     1       9.496  13.789  19.424  0.00  0.00    +0.000 A 
ATOM     10  N   UNL     1      10.101  14.105  18.258  0.00  0.00    +0.000 NA
ATOM     11  C   UNL     1      10.436  13.085  17.441  0.00  0.00    +0.000 A 
ATOM     12  C   UNL     1      10.196  11.754  17.733  0.00  0.00    +0.000 A 
ENDBRANCH   6   7
ENDBRANCH   3   5
BRANCH   2  13
ATOM     13  C   UNL     1       7.577   5.734  18.647  0.00  0.00    +0.000 C 
BRANCH  13  14
ATOM     14  N   UNL     1       6.743   4.882  17.792  0.00  0.00    +0.000 N 
ATOM     15  H   UNL     1       7.202   4.040  17.459  0.00  0.00    +0.000 HD
BRANCH  14  16
ATOM     16  C   UNL     1       5.390   4.724  18.095  0.00  0.00    +0.000 A 
ATOM     17  C   UNL     1       4.799   5.255  19.251  0.00  0.00    +0.000 A 
ATOM     18  C   UNL     1       3.428   5.127  19.491  0.00  0.00    +0.000 A 
ATOM     19  C   UNL     1       2.628   4.479  18.561  0.00  0.00    +0.000 A 
ATOM     20  F   UNL     1       1.315   4.354  18.789  0.00  0.00    +0.000 F 
ATOM     21  C   UNL     1       3.175   3.973  17.391  0.00  0.00    +0.000 A 
ATOM     22  C   UNL     1       4.547   4.111  17.154  0.00  0.00    +0.000 A 
ENDBRANCH  14  16
ENDBRANCH  13  14
ENDBRANCH   2  13
TORSDOF 5
ENDMDL
MODEL 9
REMARK VINA RESULT:      -7.0      0.725      1.275
REMARK  Name = 
REMARK  5 active torsions:
REMARK  status: ('A' for Active; 'I' for Inactive)
REMARK    1  A    between atoms: C_2  and  C_3
REMARK    2  A    between atoms: C_3  and  N_4
REMARK    3  A    between atoms: N_4  and  C_5
REMARK    4  A    between atoms: N_12  and  N_13
REMARK    5  A    between atoms: C_14  and  C_15
REMARK                            x       y       z     vdW  Elec       q    Type
REMARK                         _______ _______ _______ _____ _____    ______ ____
ROOT
ATOM      1  O   UNL     1       7.707   5.914  18.661  0.00  0.00    +0.000 OA
ATOM      2  C   UNL     1       7.306   6.450  17.628  0.00  0.00    +0.000 C 
ATOM      3  N   UNL     1       7.547   7.773  17.274  0.00  0.00    +0.000 N 
ATOM      4  H   UNL     1       7.173   8.161  16.415  0.00  0.00    +0.000 HD
ENDROOT
BRANCH   3   5
ATOM      5  N   UNL     1       8.315   8.550  18.090  0.00  0.00    +0.000 NA
ATOM      6  C   UNL     1       8.425   9.797  17.764  0.00  0.00    +0.000 C 
BRANCH   6   7
ATOM      7  C   UNL     1       9.224  10.732  18.578  0.00  0.00    +0.000 A 
ATOM      8  C   UNL     1       9.334  10.559  19.957  0.00  0.00    +0.000 A 
ATOM      9  C   UNL     1      10.090  11.478  20.661  0.00  0.00    +0.000 A 
ATOM     10  N   UNL     1      10.723  12.524  20.085  0.00  0.00    +0.000 NA
ATOM     11  C   UNL     1      10.597  12.660  18.748  0.00  0.00    +0.000 A 
ATOM     12  C   UNL     1       9.865  11.796  17.952  0.00  0.00    +0.000 A 
ENDBRANCH   6   7
ENDBRANCH   3   5
BRANCH   2  13
ATOM     13  C   UNL     1       6.469   5.693  16.594  0.00  0.00    +0.000 C 
BRANCH  13  14
ATOM     14  N   UNL     1       5.109   6.238  16.506  0.00  0.00    +0.000 N 
ATOM     15  H   UNL     1       4.859   6.600  15.591  0.00  0.00    +0.000 HD
BRANCH  14  16
ATOM     16  C   UNL     1       4.069   5.596  17.180  0.00  0.00    +0.000 A 
ATOM     17  C   UNL     1       3.897   4.204  17.168  0.00  0.00    +0.000 A 
ATOM     18  C   UNL     1       2.878   3.592  17.904  0.00  0.00    +0.000 A 
ATOM     19  C   UNL     1       2.029   4.371  18.677  0.00  0.00    +0.000 A 
ATOM     20  F   UNL     1       1.052   3.787  19.381  0.00  0.00    +0.000 F 
ATOM     21  C   UNL     1       2.194   5.747  18.737  0.00  0.00    +0.000 A 
ATOM     22  C   UNL     1       3.221   6.352  18.005  0.00  0.00    +0.000 A 
ENDBRANCH  14  16
ENDBRANCH  13  14
ENDBRANCH   2  13
TORSDOF 5
ENDMDL
