MODEL 1
REMARK VINA RESULT:      -7.5      0.000      0.000
REMARK  Name = 
REMARK  6 active torsions:
REMARK  status: ('A' for Active; 'I' for Inactive)
REMARK    1  A    between atoms: C_2  and  C_20
REMARK    2  A    between atoms: N_3  and  C_4
REMARK    3  A    between atoms: C_4  and  C_5
REMARK    4  A    between atoms: N_7  and  C_8
REMARK    5  A    between atoms: C_8  and  C_9
REMARK    6  A    between atoms: C_12  and  N_13
REMARK                            x       y       z     vdW  Elec       q    Type
REMARK                         _______ _______ _______ _____ _____    ______ ____
ROOT
ATOM      1  C   UNL     1       1.589   8.792  19.516  0.00  0.00    +0.000 A 
ATOM      2  C   UNL     1       2.186   7.674  18.970  0.00  0.00    +0.000 A 
ATOM      3  N   UNL     1       2.059   6.717  19.930  0.00  0.00    +0.000 N 
ATOM      4  N   UNL     1       1.426   7.209  21.016  0.00  0.00    +0.000 NA
ATOM      5  N   UNL     1       1.127   8.479  20.766  0.00  0.00    +0.000 NA
ENDROOT
BRANCH   1   6
ATOM      6  C   UNL     1       1.406  10.125  18.902  0.00  0.00    +0.000 C 
BRANCH   6   9
ATOM      7  O   UNL     1      -1.037  11.094  19.749  0.00  0.00    +0.000 OA
ATOM      8  C   UNL     1      -0.948  10.668  18.606  0.00  0.00    +0.000 C 
ATOM      9  N   UNL     1       0.218  10.150  18.072  0.00  0.00    +0.000 N 
ATOM     10  H   UNL     1       0.338  10.109  17.067  0.00  0.00    +0.000 HD
BRANCH   8  11
ATOM     11  C   UNL     1      -2.117  10.719  17.705  0.00  0.00    +0.000 A 
ATOM     12  C   UNL     1      -3.229  11.495  18.043  0.00  0.00    +0.000 A 
ATOM     13  C   UNL     1      -4.310  11.547  17.167  0.00  0.00    +0.000 A 
ATOM     14  C   UNL     1      -4.245  10.805  15.997  0.00  0.00    +0.000 A 
ATOM     15  N   UNL     1      -3.200  10.017  15.660  0.00  0.00    +0.000 NA
ATOM     16  C   UNL     1      -2.162   9.985  16.530  0.00  0.00    +0.000 A 
ENDBRANCH   8  11
ENDBRANCH   6   9
ENDBRANCH   1   6
BRANCH   3  17
ATOM     17  C   UNL     1       2.572   5.356  19.933  0.00  0.00    +0.000 C 
BRANCH  17  18
ATOM     18  C   UNL     1       3.677   5.140  18.919  0.00  0.00    +0.000 A 
ATOM     19  C   UNL     1       5.021   5.389  19.258  0.00  0.00    +0.000 A 
ATOM     20  C   UNL     1       6.047   5.125  18.345  0.00  0.00    +0.000 A 
ATOM     21  C   UNL     1       5.737   4.584  17.091  0.00  0.00    +0.000 A 
ATOM     22  C   UNL     1       4.406   4.335  16.736  0.00  0.00    +0.000 A 
ATOM     23  C   UNL     1       3.387   4.624  17.645  0.00  0.00    +0.000 A 
BRANCH  21  24
ATOM     24  N   UNL     1       6.809   4.259  16.148  0.00  0.00    +0.000 N 
ATOM     25  O   UNL     1       6.484   3.857  15.017  0.00  0.00    +0.000 OA
ATOM     26  O   UNL     1       7.982   4.406  16.527  0.00  0.00    +0.000 OA
ENDBRANCH  21  24
ENDBRANCH  17  18
ENDBRANCH   3  17
TORSDOF 6
ENDMDL
MODEL 2
REMARK VINA RESULT:      -7.4      5.704      8.720
REMARK  Name = 
REMARK  6 active torsions:
REMARK  status: ('A' for Active; 'I' for Inactive)
REMARK    1  A    between atoms: C_2  and  C_20
REMARK    2  A    between atoms: N_3  and  C_4
REMARK    3  A    between atoms: C_4  and  C_5
REMARK    4  A    between atoms: N_7  and  C_8
REMARK    5  A    between atoms: C_8  and  C_9
REMARK    6  A    between atoms: C_12  and  N_13
REMARK                            x       y       z     vdW  Elec       q    Type
REMARK                         _______ _______ _______ _____ _____    ______ ____
ROOT
ATOM      1  C   UNL     1       7.666   7.321  18.041  0.00  0.00    +0.000 A 
ATOM      2  C   UNL     1       7.408   5.966  18.087  0.00  0.00    +0.000 A 
ATOM      3  N   UNL     1       6.619   5.734  17.001  0.00  0.00    +0.000 N 
ATOM      4  N   UNL     1       6.392   6.876  16.320  0.00  0.00    +0.000 NA
ATOM      5  N   UNL     1       7.038   7.852  16.947  0.00  0.00    +0.000 NA
ENDROOT
BRANCH   1   6
ATOM      6  C   UNL     1       8.503   8.126  18.958  0.00  0.00    +0.000 C 
BRANCH   6   9
ATOM      7  O   UNL     1       9.384  10.308  20.402  0.00  0.00    +0.000 OA
ATOM      8  C   UNL     1       9.276  10.421  19.189  0.00  0.00    +0.000 C 
ATOM      9  N   UNL     1       8.838   9.404  18.361  0.00  0.00    +0.000 N 
ATOM     10  H   UNL     1       9.060   9.425  17.374  0.00  0.00    +0.000 HD
BRANCH   8  11
ATOM     11  C   UNL     1       9.654  11.688  18.529  0.00  0.00    +0.000 A 
ATOM     12  C   UNL     1      10.773  11.736  17.694  0.00  0.00    +0.000 A 
ATOM     13  C   UNL     1      11.097  12.935  17.064  0.00  0.00    +0.000 A 
ATOM     14  C   UNL     1      10.301  14.044  17.311  0.00  0.00    +0.000 A 
ATOM     15  N   UNL     1       9.235  14.038  18.143  0.00  0.00    +0.000 NA
ATOM     16  C   UNL     1       8.942  12.858  18.741  0.00  0.00    +0.000 A 
ENDBRANCH   8  11
ENDBRANCH   6   9
ENDBRANCH   1   6
BRANCH   3  17
ATOM     17  C   UNL     1       5.982   4.493  16.589  0.00  0.00    +0.000 C 
BRANCH  17  18
ATOM     18  C   UNL     1       4.648   4.259  17.270  0.00  0.00    +0.000 A 
ATOM     19  C   UNL     1       4.072   2.975  17.297  0.00  0.00    +0.000 A 
ATOM     20  C   UNL     1       2.875   2.745  17.984  0.00  0.00    +0.000 A 
ATOM     21  C   UNL     1       2.258   3.797  18.673  0.00  0.00    +0.000 A 
ATOM     22  C   UNL     1       2.816   5.081  18.653  0.00  0.00    +0.000 A 
ATOM     23  C   UNL     1       3.997   5.306  17.944  0.00  0.00    +0.000 A 
BRANCH  21  24
ATOM     24  N   UNL     1       1.032   3.554  19.435  0.00  0.00    +0.000 N 
ATOM     25  O   UNL     1       0.278   2.645  19.047  0.00  0.00    +0.000 OA
ATOM     26  O   UNL     1       0.814   4.267  20.428  0.00  0.00    +0.000 OA
ENDBRANCH  21  24
ENDBRANCH  17  18
ENDBRANCH   3  17
TORSDOF 6
ENDMDL
MODEL 3
REMARK VINA RESULT:      -7.3      2.021      9.217
REMARK  Name = 
REMARK  6 active torsions:
REMARK  status: ('A' for Active; 'I' for Inactive)
REMARK    1  A    between atoms: C_2  and  C_20
REMARK    2  A    between atoms: N_3  and  C_4
REMARK    3  A    between atoms: C_4  and  C_5
REMARK    4  A    between atoms: N_7  and  C_8
REMARK    5  A    between atoms: C_8  and  C_9
REMARK    6  A    between atoms: C_12  and  N_13
REMARK                            x       y       z     vdW  Elec       q    Type
REMARK                         _______ _______ _______ _____ _____    ______ ____
ROOT
ATOM      1  C   UNL     1       2.154   7.176  19.561  0.00  0.00    +0.000 A 
ATOM      2  C   UNL     1       2.236   8.184  18.620  0.00  0.00    +0.000 A 
ATOM      3  N   UNL     1       1.598   9.239  19.197  0.00  0.00    +0.000 N 
ATOM      4  N   UNL     1       1.139   8.911  20.422  0.00  0.00    +0.000 NA
ATOM      5  N   UNL     1       1.483   7.650  20.656  0.00  0.00    +0.000 NA
ENDROOT
BRANCH   1   6
ATOM      6  C   UNL     1       2.708   5.807  19.487  0.00  0.00    +0.000 C 
BRANCH   6   9
ATOM      7  O   UNL     1       5.436   5.380  19.428  0.00  0.00    +0.000 OA
ATOM      8  C   UNL     1       4.831   5.410  18.365  0.00  0.00    +0.000 C 
ATOM      9  N   UNL     1       3.468   5.624  18.266  0.00  0.00    +0.000 N 
ATOM     10  H   UNL     1       2.971   5.332  17.434  0.00  0.00    +0.000 HD
BRANCH   8  11
ATOM     11  C   UNL     1       5.554   5.178  17.098  0.00  0.00    +0.000 A 
ATOM     12  C   UNL     1       5.037   4.294  16.149  0.00  0.00    +0.000 A 
ATOM     13  C   UNL     1       5.724   4.108  14.951  0.00  0.00    +0.000 A 
ATOM     14  C   UNL     1       6.910   4.800  14.759  0.00  0.00    +0.000 A 
ATOM     15  N   UNL     1       7.454   5.634  15.674  0.00  0.00    +0.000 NA
ATOM     16  C   UNL     1       6.765   5.796  16.829  0.00  0.00    +0.000 A 
ENDBRANCH   8  11
ENDBRANCH   6   9
ENDBRANCH   1   6
BRANCH   3  17
ATOM     17  C   UNL     1       1.313  10.549  18.632  0.00  0.00    +0.000 C 
BRANCH  17  18
ATOM     18  C   UNL     1      -0.171  10.838  18.532  0.00  0.00    +0.000 A 
ATOM     19  C   UNL     1      -1.015  10.005  17.772  0.00  0.00    +0.000 A 
ATOM     20  C   UNL     1      -2.394  10.232  17.734  0.00  0.00    +0.000 A 
ATOM     21  C   UNL     1      -2.945  11.283  18.478  0.00  0.00    +0.000 A 
ATOM     22  C   UNL     1      -2.121  12.123  19.235  0.00  0.00    +0.000 A 
ATOM     23  C   UNL     1      -0.742  11.904  19.247  0.00  0.00    +0.000 A 
BRANCH  21  24
ATOM     24  N   UNL     1      -4.394  11.498  18.483  0.00  0.00    +0.000 N 
ATOM     25  O   UNL     1      -4.855  12.320  19.293  0.00  0.00    +0.000 OA
ATOM     26  O   UNL     1      -5.080  10.850  17.677  0.00  0.00    +0.000 OA
ENDBRANCH  21  24
ENDBRANCH  17  18
ENDBRANCH   3  17
TORSDOF 6
ENDMDL
MODEL 4
REMARK VINA RESULT:      -7.3      5.913      8.734
REMARK  Name = 
REMARK  6 active torsions:
REMARK  status: ('A' for Active; 'I' for Inactive)
REMARK    1  A    between atoms: C_2  and  C_20
REMARK    2  A    between atoms: N_3  and  C_4
REMARK    3  A    between atoms: C_4  and  C_5
REMARK    4  A    between atoms: N_7  and  C_8
REMARK    5  A    between atoms: C_8  and  C_9
REMARK    6  A    between atoms: C_12  and  N_13
REMARK                            x       y       z     vdW  Elec       q    Type
REMARK                         _______ _______ _______ _____ _____    ______ ____
ROOT
ATOM      1  C   UNL     1       7.491   7.202  17.827  0.00  0.00    +0.000 A 
ATOM      2  C   UNL     1       6.316   6.533  18.107  0.00  0.00    +0.000 A 
ATOM      3  N   UNL     1       5.965   5.954  16.926  0.00  0.00    +0.000 N 
ATOM      4  N   UNL     1       6.863   6.247  15.963  0.00  0.00    +0.000 NA
ATOM      5  N   UNL     1       7.807   7.005  16.510  0.00  0.00    +0.000 NA
ENDROOT
BRANCH   1   6
ATOM      6  C   UNL     1       8.343   7.984  18.750  0.00  0.00    +0.000 C 
BRANCH   6   9
ATOM      7  O   UNL     1       9.374  10.107  20.183  0.00  0.00    +0.000 OA
ATOM      8  C   UNL     1       9.234  10.236  18.975  0.00  0.00    +0.000 C 
ATOM      9  N   UNL     1       8.721   9.249  18.153  0.00  0.00    +0.000 N 
ATOM     10  H   UNL     1       8.914   9.269  17.160  0.00  0.00    +0.000 HD
BRANCH   8  11
ATOM     11  C   UNL     1       9.654  11.489  18.314  0.00  0.00    +0.000 A 
ATOM     12  C   UNL     1       8.741  12.532  18.145  0.00  0.00    +0.000 A 
ATOM     13  C   UNL     1       9.165  13.713  17.539  0.00  0.00    +0.000 A 
ATOM     14  C   UNL     1      10.481  13.795  17.109  0.00  0.00    +0.000 A 
ATOM     15  N   UNL     1      11.377  12.789  17.226  0.00  0.00    +0.000 NA
ATOM     16  C   UNL     1      10.938  11.654  17.819  0.00  0.00    +0.000 A 
ENDBRANCH   8  11
ENDBRANCH   6   9
ENDBRANCH   1   6
BRANCH   3  17
ATOM     17  C   UNL     1       4.772   5.185  16.609  0.00  0.00    +0.000 C 
BRANCH  17  18
ATOM     18  C   UNL     1       4.059   4.667  17.841  0.00  0.00    +0.000 A 
ATOM     19  C   UNL     1       2.852   5.252  18.271  0.00  0.00    +0.000 A 
ATOM     20  C   UNL     1       2.159   4.730  19.368  0.00  0.00    +0.000 A 
ATOM     21  C   UNL     1       2.656   3.599  20.029  0.00  0.00    +0.000 A 
ATOM     22  C   UNL     1       3.855   3.008  19.617  0.00  0.00    +0.000 A 
ATOM     23  C   UNL     1       4.553   3.551  18.536  0.00  0.00    +0.000 A 
BRANCH  21  24
ATOM     24  N   UNL     1       1.911   3.017  21.148  0.00  0.00    +0.000 N 
ATOM     25  O   UNL     1       2.536   2.769  22.193  0.00  0.00    +0.000 OA
ATOM     26  O   UNL     1       0.697   2.808  20.992  0.00  0.00    +0.000 OA
ENDBRANCH  21  24
ENDBRANCH  17  18
ENDBRANCH   3  17
TORSDOF 6
ENDMDL
MODEL 5
REMARK VINA RESULT:      -7.3      0.871      1.521
REMARK  Name = 
REMARK  6 active torsions:
REMARK  status: ('A' for Active; 'I' for Inactive)
REMARK    1  A    between atoms: C_2  and  C_20
REMARK    2  A    between atoms: N_3  and  C_4
REMARK    3  A    between atoms: C_4  and  C_5
REMARK    4  A    between atoms: N_7  and  C_8
REMARK    5  A    between atoms: C_8  and  C_9
REMARK    6  A    between atoms: C_12  and  N_13
REMARK                            x       y       z     vdW  Elec       q    Type
REMARK                         _______ _______ _______ _____ _____    ______ ____
ROOT
ATOM      1  C   UNL     1       1.833   8.256  19.478  0.00  0.00    +0.000 A 
ATOM      2  C   UNL     1       2.538   7.231  18.878  0.00  0.00    +0.000 A 
ATOM      3  N   UNL     1       2.428   6.189  19.747  0.00  0.00    +0.000 N 
ATOM      4  N   UNL     1       1.704   6.542  20.829  0.00  0.00    +0.000 NA
ATOM      5  N   UNL     1       1.329   7.805  20.668  0.00  0.00    +0.000 NA
ENDROOT
BRANCH   1   6
ATOM      6  C   UNL     1       1.587   9.622  18.965  0.00  0.00    +0.000 C 
BRANCH   6   9
ATOM      7  O   UNL     1      -0.453  11.382  19.568  0.00  0.00    +0.000 OA
ATOM      8  C   UNL     1      -0.610  10.612  18.631  0.00  0.00    +0.000 C 
ATOM      9  N   UNL     1       0.334   9.680  18.239  0.00  0.00    +0.000 N 
ATOM     10  H   UNL     1       0.308   9.300  17.301  0.00  0.00    +0.000 HD
BRANCH   8  11
ATOM     11  C   UNL     1      -1.849  10.670  17.829  0.00  0.00    +0.000 A 
ATOM     12  C   UNL     1      -1.965   9.907  16.664  0.00  0.00    +0.000 A 
ATOM     13  C   UNL     1      -3.151   9.959  15.936  0.00  0.00    +0.000 A 
ATOM     14  C   UNL     1      -4.167  10.788  16.390  0.00  0.00    +0.000 A 
ATOM     15  N   UNL     1      -4.070  11.565  17.492  0.00  0.00    +0.000 NA
ATOM     16  C   UNL     1      -2.906  11.494  18.182  0.00  0.00    +0.000 A 
ENDBRANCH   8  11
ENDBRANCH   6   9
ENDBRANCH   1   6
BRANCH   3  17
ATOM     17  C   UNL     1       3.038   4.871  19.668  0.00  0.00    +0.000 C 
BRANCH  17  18
ATOM     18  C   UNL     1       4.033   4.747  18.532  0.00  0.00    +0.000 A 
ATOM     19  C   UNL     1       3.620   4.298  17.263  0.00  0.00    +0.000 A 
ATOM     20  C   UNL     1       4.523   4.248  16.196  0.00  0.00    +0.000 A 
ATOM     21  C   UNL     1       5.845   4.673  16.386  0.00  0.00    +0.000 A 
ATOM     22  C   UNL     1       6.272   5.118  17.642  0.00  0.00    +0.000 A 
ATOM     23  C   UNL     1       5.370   5.141  18.706  0.00  0.00    +0.000 A 
BRANCH  21  24
ATOM     24  N   UNL     1       6.784   4.671  15.263  0.00  0.00    +0.000 N 
ATOM     25  O   UNL     1       6.605   3.836  14.359  0.00  0.00    +0.000 OA
ATOM     26  O   UNL     1       7.704   5.503  15.272  0.00  0.00    +0.000 OA
ENDBRANCH  21  24
ENDBRANCH  17  18
ENDBRANCH   3  17
TORSDOF 6
ENDMDL
MODEL 6
REMARK VINA RESULT:      -7.3      2.100      9.333
REMARK  Name = 
REMARK  6 active torsions:
REMARK  status: ('A' for Active; 'I' for Inactive)
REMARK    1  A    between atoms: C_2  and  C_20
REMARK    2  A    between atoms: N_3  and  C_4
REMARK    3  A    between atoms: C_4  and  C_5
REMARK    4  A    between atoms: N_7  and  C_8
REMARK    5  A    between atoms: C_8  and  C_9
REMARK    6  A    between atoms: C_12  and  N_13
REMARK                            x       y       z     vdW  Elec       q    Type
REMARK                         _______ _______ _______ _____ _____    ______ ____
ROOT
ATOM      1  C   UNL     1       2.129   7.452  19.595  0.00  0.00    +0.000 A 
ATOM      2  C   UNL     1       2.069   8.425  18.617  0.00  0.00    +0.000 A 
ATOM      3  N   UNL     1       1.415   9.462  19.208  0.00  0.00    +0.000 N 
ATOM      4  N   UNL     1       1.078   9.155  20.478  0.00  0.00    +0.000 NA
ATOM      5  N   UNL     1       1.520   7.927  20.725  0.00  0.00    +0.000 NA
ENDROOT
BRANCH   1   6
ATOM      6  C   UNL     1       2.760   6.117  19.522  0.00  0.00    +0.000 C 
BRANCH   6   9
ATOM      7  O   UNL     1       4.757   4.225  19.276  0.00  0.00    +0.000 OA
ATOM      8  C   UNL     1       4.608   5.032  18.369  0.00  0.00    +0.000 C 
ATOM      9  N   UNL     1       3.650   6.030  18.382  0.00  0.00    +0.000 N 
ATOM     10  H   UNL     1       3.353   6.456  17.512  0.00  0.00    +0.000 HD
BRANCH   8  11
ATOM     11  C   UNL     1       5.456   4.952  17.163  0.00  0.00    +0.000 A 
ATOM     12  C   UNL     1       5.207   3.977  16.194  0.00  0.00    +0.000 A 
ATOM     13  C   UNL     1       6.005   3.934  15.054  0.00  0.00    +0.000 A 
ATOM     14  C   UNL     1       7.035   4.856  14.937  0.00  0.00    +0.000 A 
ATOM     15  N   UNL     1       7.324   5.787  15.874  0.00  0.00    +0.000 NA
ATOM     16  C   UNL     1       6.531   5.806  16.972  0.00  0.00    +0.000 A 
ENDBRANCH   8  11
ENDBRANCH   6   9
ENDBRANCH   1   6
BRANCH   3  17
ATOM     17  C   UNL     1       1.002  10.729  18.625  0.00  0.00    +0.000 C 
BRANCH  17  18
ATOM     18  C   UNL     1      -0.503  10.907  18.603  0.00  0.00    +0.000 A 
ATOM     19  C   UNL     1      -1.121  11.883  19.407  0.00  0.00    +0.000 A 
ATOM     20  C   UNL     1      -2.502  12.094  19.337  0.00  0.00    +0.000 A 
ATOM     21  C   UNL     1      -3.274  11.344  18.441  0.00  0.00    +0.000 A 
ATOM     22  C   UNL     1      -2.675  10.366  17.637  0.00  0.00    +0.000 A 
ATOM     23  C   UNL     1      -1.300  10.146  17.732  0.00  0.00    +0.000 A 
BRANCH  21  24
ATOM     24  N   UNL     1      -4.712  11.591  18.326  0.00  0.00    +0.000 N 
ATOM     25  O   UNL     1      -5.210  12.464  19.057  0.00  0.00    +0.000 OA
ATOM     26  O   UNL     1      -5.354  10.920  17.502  0.00  0.00    +0.000 OA
ENDBRANCH  21  24
ENDBRANCH  17  18
ENDBRANCH   3  17
TORSDOF 6
ENDMDL
MODEL 7
REMARK VINA RESULT:      -7.2      6.098      9.013
REMARK  Name = 
REMARK  6 active torsions:
REMARK  status: ('A' for Active; 'I' for Inactive)
REMARK    1  A    between atoms: C_2  and  C_20
REMARK    2  A    between atoms: N_3  and  C_4
REMARK    3  A    between atoms: C_4  and  C_5
REMARK    4  A    between atoms: N_7  and  C_8
REMARK    5  A    between atoms: C_8  and  C_9
REMARK    6  A    between atoms: C_12  and  N_13
REMARK                            x       y       z     vdW  Elec       q    Type
REMARK                         _______ _______ _______ _____ _____    ______ ____
ROOT
ATOM      1  C   UNL     1       8.211   8.051  18.441  0.00  0.00    +0.000 A 
ATOM      2  C   UNL     1       8.150   6.678  18.573  0.00  0.00    +0.000 A 
ATOM      3  N   UNL     1       7.416   6.266  17.503  0.00  0.00    +0.000 N 
ATOM      4  N   UNL     1       7.034   7.318  16.750  0.00  0.00    +0.000 NA
ATOM      5  N   UNL     1       7.525   8.415  17.315  0.00  0.00    +0.000 NA
ENDROOT
BRANCH   1   6
ATOM      6  C   UNL     1       8.912   9.025  19.307  0.00  0.00    +0.000 C 
BRANCH   6   9
ATOM      7  O   UNL     1       9.668  11.421  20.452  0.00  0.00    +0.000 OA
ATOM      8  C   UNL     1       9.691  11.329  19.233  0.00  0.00    +0.000 C 
ATOM      9  N   UNL     1       9.327  10.185  18.544  0.00  0.00    +0.000 N 
ATOM     10  H   UNL     1       9.654  10.041  17.597  0.00  0.00    +0.000 HD
BRANCH   8  11
ATOM     11  C   UNL     1      10.157  12.467  18.415  0.00  0.00    +0.000 A 
ATOM     12  C   UNL     1      11.163  12.282  17.465  0.00  0.00    +0.000 A 
ATOM     13  C   UNL     1      11.570  13.365  16.689  0.00  0.00    +0.000 A 
ATOM     14  C   UNL     1      10.968  14.595  16.908  0.00  0.00    +0.000 A 
ATOM     15  N   UNL     1      10.018  14.813  17.845  0.00  0.00    +0.000 NA
ATOM     16  C   UNL     1       9.641  13.743  18.585  0.00  0.00    +0.000 A 
ENDBRANCH   8  11
ENDBRANCH   6   9
ENDBRANCH   1   6
BRANCH   3  17
ATOM     17  C   UNL     1       6.970   4.923  17.169  0.00  0.00    +0.000 C 
BRANCH  17  18
ATOM     18  C   UNL     1       5.549   4.645  17.617  0.00  0.00    +0.000 A 
ATOM     19  C   UNL     1       4.568   4.250  16.686  0.00  0.00    +0.000 A 
ATOM     20  C   UNL     1       3.274   3.928  17.108  0.00  0.00    +0.000 A 
ATOM     21  C   UNL     1       2.957   3.974  18.472  0.00  0.00    +0.000 A 
ATOM     22  C   UNL     1       3.919   4.368  19.410  0.00  0.00    +0.000 A 
ATOM     23  C   UNL     1       5.201   4.712  18.976  0.00  0.00    +0.000 A 
BRANCH  21  24
ATOM     24  N   UNL     1       1.620   3.591  18.928  0.00  0.00    +0.000 N 
ATOM     25  O   UNL     1       1.231   4.035  20.022  0.00  0.00    +0.000 OA
ATOM     26  O   UNL     1       0.946   2.849  18.196  0.00  0.00    +0.000 OA
ENDBRANCH  21  24
ENDBRANCH  17  18
ENDBRANCH   3  17
TORSDOF 6
ENDMDL
MODEL 8
REMARK VINA RESULT:      -7.2      2.179      9.217
REMARK  Name = 
REMARK  6 active torsions:
REMARK  status: ('A' for Active; 'I' for Inactive)
REMARK    1  A    between atoms: C_2  and  C_20
REMARK    2  A    between atoms: N_3  and  C_4
REMARK    3  A    between atoms: C_4  and  C_5
REMARK    4  A    between atoms: N_7  and  C_8
REMARK    5  A    between atoms: C_8  and  C_9
REMARK    6  A    between atoms: C_12  and  N_13
REMARK                            x       y       z     vdW  Elec       q    Type
REMARK                         _______ _______ _______ _____ _____    ______ ____
ROOT
ATOM      1  C   UNL     1       1.665   7.377  20.364  0.00  0.00    +0.000 A 
ATOM      2  C   UNL     1       1.768   8.185  19.249  0.00  0.00    +0.000 A 
ATOM      3  N   UNL     1       1.218   9.369  19.635  0.00  0.00    +0.000 N 
ATOM      4  N   UNL     1       0.790   9.305  20.912  0.00  0.00    +0.000 NA
ATOM      5  N   UNL     1       1.068   8.089  21.369  0.00  0.00    +0.000 NA
ENDROOT
BRANCH   1   6
ATOM      6  C   UNL     1       2.132   5.984  20.533  0.00  0.00    +0.000 C 
BRANCH   6   9
ATOM      7  O   UNL     1       2.600   4.163  18.511  0.00  0.00    +0.000 OA
ATOM      8  C   UNL     1       3.532   4.855  18.894  0.00  0.00    +0.000 C 
ATOM      9  N   UNL     1       3.424   5.795  19.903  0.00  0.00    +0.000 N 
ATOM     10  H   UNL     1       4.101   6.545  19.969  0.00  0.00    +0.000 HD
BRANCH   8  11
ATOM     11  C   UNL     1       4.855   4.736  18.247  0.00  0.00    +0.000 A 
ATOM     12  C   UNL     1       4.946   4.429  16.888  0.00  0.00    +0.000 A 
ATOM     13  C   UNL     1       6.203   4.344  16.294  0.00  0.00    +0.000 A 
ATOM     14  C   UNL     1       7.321   4.549  17.089  0.00  0.00    +0.000 A 
ATOM     15  N   UNL     1       7.266   4.811  18.415  0.00  0.00    +0.000 NA
ATOM     16  C   UNL     1       6.031   4.888  18.965  0.00  0.00    +0.000 A 
ENDBRANCH   8  11
ENDBRANCH   6   9
ENDBRANCH   1   6
BRANCH   3  17
ATOM     17  C   UNL     1       0.989  10.567  18.842  0.00  0.00    +0.000 C 
BRANCH  17  18
ATOM     18  C   UNL     1      -0.470  10.773  18.492  0.00  0.00    +0.000 A 
ATOM     19  C   UNL     1      -1.117   9.917  17.579  0.00  0.00    +0.000 A 
ATOM     20  C   UNL     1      -2.481  10.065  17.307  0.00  0.00    +0.000 A 
ATOM     21  C   UNL     1      -3.216  11.058  17.968  0.00  0.00    +0.000 A 
ATOM     22  C   UNL     1      -2.588  11.920  18.874  0.00  0.00    +0.000 A 
ATOM     23  C   UNL     1      -1.221  11.780  19.121  0.00  0.00    +0.000 A 
BRANCH  21  24
ATOM     24  N   UNL     1      -4.654  11.188  17.726  0.00  0.00    +0.000 N 
ATOM     25  O   UNL     1      -5.430  10.693  18.561  0.00  0.00    +0.000 OA
ATOM     26  O   UNL     1      -5.020  11.789  16.703  0.00  0.00    +0.000 OA
ENDBRANCH  21  24
ENDBRANCH  17  18
ENDBRANCH   3  17
TORSDOF 6
ENDMDL
MODEL 9
REMARK VINA RESULT:      -7.2      2.927      3.807
REMARK  Name = 
REMARK  6 active torsions:
REMARK  status: ('A' for Active; 'I' for Inactive)
REMARK    1  A    between atoms: C_2  and  C_20
REMARK    2  A    between atoms: N_3  and  C_4
REMARK    3  A    between atoms: C_4  and  C_5
REMARK    4  A    between atoms: N_7  and  C_8
REMARK    5  A    between atoms: C_8  and  C_9
REMARK    6  A    between atoms: C_12  and  N_13
REMARK                            x       y       z     vdW  Elec       q    Type
REMARK                         _______ _______ _______ _____ _____    ______ ____
ROOT
ATOM      1  C   UNL     1       2.735   7.261  18.653  0.00  0.00    +0.000 A 
ATOM      2  C   UNL     1       3.709   6.646  17.892  0.00  0.00    +0.000 A 
ATOM      3  N   UNL     1       4.011   5.511  18.580  0.00  0.00    +0.000 N 
ATOM      4  N   UNL     1       3.276   5.423  19.707  0.00  0.00    +0.000 NA
ATOM      5  N   UNL     1       2.484   6.489  19.755  0.00  0.00    +0.000 NA
ENDROOT
BRANCH   1   6
ATOM      6  C   UNL     1       2.010   8.519  18.371  0.00  0.00    +0.000 C 
BRANCH   6   9
ATOM      7  O   UNL     1       1.391  11.154  18.914  0.00  0.00    +0.000 OA
ATOM      8  C   UNL     1       0.994  10.295  19.688  0.00  0.00    +0.000 C 
ATOM      9  N   UNL     1       1.248   8.944  19.528  0.00  0.00    +0.000 N 
ATOM     10  H   UNL     1       0.657   8.262  19.987  0.00  0.00    +0.000 HD
BRANCH   8  11
ATOM     11  C   UNL     1       0.170  10.675  20.854  0.00  0.00    +0.000 A 
ATOM     12  C   UNL     1      -0.838  11.632  20.718  0.00  0.00    +0.000 A 
ATOM     13  C   UNL     1      -1.618  11.957  21.824  0.00  0.00    +0.000 A 
ATOM     14  C   UNL     1      -1.346  11.326  23.029  0.00  0.00    +0.000 A 
ATOM     15  N   UNL     1      -0.354  10.423  23.201  0.00  0.00    +0.000 NA
ATOM     16  C   UNL     1       0.388  10.126  22.108  0.00  0.00    +0.000 A 
ENDBRANCH   8  11
ENDBRANCH   6   9
ENDBRANCH   1   6
BRANCH   3  17
ATOM     17  C   UNL     1       5.026   4.511  18.286  0.00  0.00    +0.000 C 
BRANCH  17  18
ATOM     18  C   UNL     1       5.612   4.657  16.896  0.00  0.00    +0.000 A 
ATOM     19  C   UNL     1       6.908   5.177  16.714  0.00  0.00    +0.000 A 
ATOM     20  C   UNL     1       7.475   5.248  15.437  0.00  0.00    +0.000 A 
ATOM     21  C   UNL     1       6.757   4.774  14.332  0.00  0.00    +0.000 A 
ATOM     22  C   UNL     1       5.466   4.257  14.495  0.00  0.00    +0.000 A 
ATOM     23  C   UNL     1       4.899   4.213  15.769  0.00  0.00    +0.000 A 
BRANCH  21  24
ATOM     24  N   UNL     1       7.362   4.799  12.999  0.00  0.00    +0.000 N 
ATOM     25  O   UNL     1       6.991   3.942  12.178  0.00  0.00    +0.000 OA
ATOM     26  O   UNL     1       8.207   5.676  12.761  0.00  0.00    +0.000 OA
ENDBRANCH  21  24
ENDBRANCH  17  18
ENDBRANCH   3  17
TORSDOF 6
ENDMDL
