MODEL 1
REMARK VINA RESULT:      -7.8      0.000      0.000
REMARK  Name = 
REMARK  4 active torsions:
REMARK  status: ('A' for Active; 'I' for Inactive)
REMARK    1  A    between atoms: N_2  and  C_4
REMARK    2  A    between atoms: C_8  and  C_9
REMARK    3  A    between atoms: N_13  and  N_14
REMARK    4  A    between atoms: C_15  and  C_16
REMARK                            x       y       z     vdW  Elec       q    Type
REMARK                         _______ _______ _______ _____ _____    ______ ____
ROOT
ATOM      1  C   UNL     1       3.966   3.698  18.406  0.00  0.00    +0.000 A 
ATOM      2  C   UNL     1       3.670   2.360  18.565  0.00  0.00    +0.000 A 
ATOM      3  S   UNL     1       2.421   2.174  19.729  0.00  0.00    +0.000 S 
ATOM      4  C   UNL     1       2.330   3.887  19.905  0.00  0.00    +0.000 A 
ATOM      5  N   UNL     1       1.407   4.454  20.729  0.00  0.00    +0.000 N 
ATOM      6  N   UNL     1       3.197   4.550  19.172  0.00  0.00    +0.000 NA
ATOM      7  H   UNL     1       0.807   3.824  21.250  0.00  0.00    +0.000 HD
ENDROOT
BRANCH   1  12
ATOM      8  C   UNL     1       6.784   5.846  17.173  0.00  0.00    +0.000 A 
ATOM      9  C   UNL     1       6.951   5.390  15.859  0.00  0.00    +0.000 A 
ATOM     10  C   UNL     1       6.139   4.360  15.384  0.00  0.00    +0.000 A 
ATOM     11  C   UNL     1       5.168   3.789  16.214  0.00  0.00    +0.000 A 
ATOM     12  C   UNL     1       4.997   4.242  17.530  0.00  0.00    +0.000 A 
ATOM     13  C   UNL     1       5.815   5.277  18.008  0.00  0.00    +0.000 A 
BRANCH   8  15
ATOM     14  O   UNL     1       8.170   6.785  18.779  0.00  0.00    +0.000 OA
ATOM     15  N   UNL     1       7.627   6.938  17.674  0.00  0.00    +0.000 N 
ATOM     16  O   UNL     1       7.747   7.952  16.971  0.00  0.00    +0.000 OA
ENDBRANCH   8  15
ENDBRANCH   1  12
BRANCH   5  17
ATOM     17  N   UNL     1       0.983   5.726  20.489  0.00  0.00    +0.000 NA
ATOM     18  C   UNL     1       1.754   6.698  20.865  0.00  0.00    +0.000 C 
BRANCH  18  19
ATOM     19  C   UNL     1       1.301   8.100  20.693  0.00  0.00    +0.000 A 
ATOM     20  C   UNL     1       0.652   8.718  21.775  0.00  0.00    +0.000 A 
ATOM     21  C   UNL     1       0.222  10.041  21.690  0.00  0.00    +0.000 A 
ATOM     22  C   UNL     1       0.439  10.763  20.522  0.00  0.00    +0.000 A 
ATOM     23  C   UNL     1       1.081  10.159  19.438  0.00  0.00    +0.000 A 
ATOM     24  C   UNL     1       1.513   8.827  19.516  0.00  0.00    +0.000 A 
ATOM     25 BR   UNL     1       2.359   8.105  17.978  0.00  0.00    +0.000 Br
ENDBRANCH  18  19
ENDBRANCH   5  17
TORSDOF 4
ENDMDL
MODEL 2
REMARK VINA RESULT:      -7.7      1.848      2.487
REMARK  Name = 
REMARK  4 active torsions:
REMARK  status: ('A' for Active; 'I' for Inactive)
REMARK    1  A    between atoms: N_2  and  C_4
REMARK    2  A    between atoms: C_8  and  C_9
REMARK    3  A    between atoms: N_13  and  N_14
REMARK    4  A    between atoms: C_15  and  C_16
REMARK                            x       y       z     vdW  Elec       q    Type
REMARK                         _______ _______ _______ _____ _____    ______ ____
ROOT
ATOM      1  C   UNL     1       3.251   4.793  19.012  0.00  0.00    +0.000 A 
ATOM      2  C   UNL     1       2.459   3.709  19.326  0.00  0.00    +0.000 A 
ATOM      3  S   UNL     1       1.281   4.165  20.489  0.00  0.00    +0.000 S 
ATOM      4  C   UNL     1       1.878   5.782  20.458  0.00  0.00    +0.000 A 
ATOM      5  N   UNL     1       1.284   6.759  21.198  0.00  0.00    +0.000 N 
ATOM      6  N   UNL     1       2.908   5.961  19.662  0.00  0.00    +0.000 NA
ATOM      7  H   UNL     1       0.504   6.481  21.783  0.00  0.00    +0.000 HD
ENDROOT
BRANCH   1  12
ATOM      8  C   UNL     1       6.509   5.724  17.399  0.00  0.00    +0.000 A 
ATOM      9  C   UNL     1       6.548   4.863  16.295  0.00  0.00    +0.000 A 
ATOM     10  C   UNL     1       5.503   3.963  16.090  0.00  0.00    +0.000 A 
ATOM     11  C   UNL     1       4.426   3.922  16.981  0.00  0.00    +0.000 A 
ATOM     12  C   UNL     1       4.380   4.781  18.089  0.00  0.00    +0.000 A 
ATOM     13  C   UNL     1       5.433   5.685  18.294  0.00  0.00    +0.000 A 
BRANCH   8  15
ATOM     14  O   UNL     1       7.925   7.405  16.658  0.00  0.00    +0.000 OA
ATOM     15  N   UNL     1       7.600   6.682  17.612  0.00  0.00    +0.000 N 
ATOM     16  O   UNL     1       8.138   6.715  18.729  0.00  0.00    +0.000 OA
ENDBRANCH   8  15
ENDBRANCH   1  12
BRANCH   5  17
ATOM     17  N   UNL     1       1.387   8.058  20.803  0.00  0.00    +0.000 NA
ATOM     18  C   UNL     1       0.379   8.839  21.037  0.00  0.00    +0.000 C 
BRANCH  18  19
ATOM     19  C   UNL     1       0.415  10.243  20.559  0.00  0.00    +0.000 A 
ATOM     20  C   UNL     1       1.065  10.505  19.341  0.00  0.00    +0.000 A 
ATOM     21  C   UNL     1       1.114  11.798  18.821  0.00  0.00    +0.000 A 
ATOM     22  C   UNL     1       0.513  12.843  19.513  0.00  0.00    +0.000 A 
ATOM     23  C   UNL     1      -0.134  12.595  20.726  0.00  0.00    +0.000 A 
ATOM     24  C   UNL     1      -0.185  11.298  21.256  0.00  0.00    +0.000 A 
ATOM     25 BR   UNL     1      -1.076  11.082  22.918  0.00  0.00    +0.000 Br
ENDBRANCH  18  19
ENDBRANCH   5  17
TORSDOF 4
ENDMDL
MODEL 3
REMARK VINA RESULT:      -7.7      1.271      1.819
REMARK  Name = 
REMARK  4 active torsions:
REMARK  status: ('A' for Active; 'I' for Inactive)
REMARK    1  A    between atoms: N_2  and  C_4
REMARK    2  A    between atoms: C_8  and  C_9
REMARK    3  A    between atoms: N_13  and  N_14
REMARK    4  A    between atoms: C_15  and  C_16
REMARK                            x       y       z     vdW  Elec       q    Type
REMARK                         _______ _______ _______ _____ _____    ______ ____
ROOT
ATOM      1  C   UNL     1       3.254   4.829  18.931  0.00  0.00    +0.000 A 
ATOM      2  C   UNL     1       2.401   3.762  19.123  0.00  0.00    +0.000 A 
ATOM      3  S   UNL     1       1.216   4.168  20.299  0.00  0.00    +0.000 S 
ATOM      4  C   UNL     1       1.893   5.747  20.435  0.00  0.00    +0.000 A 
ATOM      5  N   UNL     1       1.329   6.679  21.251  0.00  0.00    +0.000 N 
ATOM      6  N   UNL     1       2.952   5.947  19.682  0.00  0.00    +0.000 NA
ATOM      7  H   UNL     1       0.521   6.388  21.791  0.00  0.00    +0.000 HD
ENDROOT
BRANCH   1  12
ATOM      8  C   UNL     1       6.527   5.839  17.400  0.00  0.00    +0.000 A 
ATOM      9  C   UNL     1       6.613   4.983  16.296  0.00  0.00    +0.000 A 
ATOM     10  C   UNL     1       5.595   4.058  16.064  0.00  0.00    +0.000 A 
ATOM     11  C   UNL     1       4.497   3.990  16.928  0.00  0.00    +0.000 A 
ATOM     12  C   UNL     1       4.404   4.845  18.036  0.00  0.00    +0.000 A 
ATOM     13  C   UNL     1       5.431   5.773  18.269  0.00  0.00    +0.000 A 
BRANCH   8  15
ATOM     14  O   UNL     1       7.815   7.656  16.752  0.00  0.00    +0.000 OA
ATOM     15  N   UNL     1       7.590   6.822  17.642  0.00  0.00    +0.000 N 
ATOM     16  O   UNL     1       8.205   6.763  18.716  0.00  0.00    +0.000 OA
ENDBRANCH   8  15
ENDBRANCH   1  12
BRANCH   5  17
ATOM     17  N   UNL     1       1.506   8.003  20.984  0.00  0.00    +0.000 NA
ATOM     18  C   UNL     1       0.446   8.730  20.817  0.00  0.00    +0.000 C 
BRANCH  18  19
ATOM     19  C   UNL     1       0.590  10.160  20.451  0.00  0.00    +0.000 A 
ATOM     20  C   UNL     1       0.173  11.122  21.387  0.00  0.00    +0.000 A 
ATOM     21  C   UNL     1       0.302  12.484  21.117  0.00  0.00    +0.000 A 
ATOM     22  C   UNL     1       0.851  12.899  19.910  0.00  0.00    +0.000 A 
ATOM     23  C   UNL     1       1.267  11.952  18.971  0.00  0.00    +0.000 A 
ATOM     24  C   UNL     1       1.137  10.581  19.234  0.00  0.00    +0.000 A 
ATOM     25 BR   UNL     1       1.720   9.386  17.879  0.00  0.00    +0.000 Br
ENDBRANCH  18  19
ENDBRANCH   5  17
TORSDOF 4
ENDMDL
MODEL 4
REMARK VINA RESULT:      -7.7      5.781      8.962
REMARK  Name = 
REMARK  4 active torsions:
REMARK  status: ('A' for Active; 'I' for Inactive)
REMARK    1  A    between atoms: N_2  and  C_4
REMARK    2  A    between atoms: C_8  and  C_9
REMARK    3  A    between atoms: N_13  and  N_14
REMARK    4  A    between atoms: C_15  and  C_16
REMARK                            x       y       z     vdW  Elec       q    Type
REMARK                         _______ _______ _______ _____ _____    ______ ____
ROOT
ATOM      1  C   UNL     1      -0.840  10.919  19.147  0.00  0.00    +0.000 A 
ATOM      2  C   UNL     1      -0.130  12.062  19.448  0.00  0.00    +0.000 A 
ATOM      3  S   UNL     1       1.027  11.724  20.672  0.00  0.00    +0.000 S 
ATOM      4  C   UNL     1       0.534  10.072  20.681  0.00  0.00    +0.000 A 
ATOM      5  N   UNL     1       1.158   9.163  21.480  0.00  0.00    +0.000 N 
ATOM      6  N   UNL     1      -0.451   9.799  19.854  0.00  0.00    +0.000 NA
ATOM      7  H   UNL     1       1.895   9.511  22.083  0.00  0.00    +0.000 HD
ENDROOT
BRANCH   1  12
ATOM      8  C   UNL     1      -4.193  11.425  17.542  0.00  0.00    +0.000 A 
ATOM      9  C   UNL     1      -4.099  10.620  16.400  0.00  0.00    +0.000 A 
ATOM     10  C   UNL     1      -2.919   9.919  16.151  0.00  0.00    +0.000 A 
ATOM     11  C   UNL     1      -1.841  10.021  17.037  0.00  0.00    +0.000 A 
ATOM     12  C   UNL     1      -1.929  10.825  18.182  0.00  0.00    +0.000 A 
ATOM     13  C   UNL     1      -3.116  11.531  18.430  0.00  0.00    +0.000 A 
BRANCH   8  15
ATOM     14  O   UNL     1      -5.912  12.845  16.901  0.00  0.00    +0.000 OA
ATOM     15  N   UNL     1      -5.437  12.155  17.815  0.00  0.00    +0.000 N 
ATOM     16  O   UNL     1      -5.942  12.046  18.942  0.00  0.00    +0.000 OA
ENDBRANCH   8  15
ENDBRANCH   1  12
BRANCH   5  17
ATOM     17  N   UNL     1       1.152   7.846  21.132  0.00  0.00    +0.000 NA
ATOM     18  C   UNL     1       2.048   7.444  20.287  0.00  0.00    +0.000 C 
BRANCH  18  19
ATOM     19  C   UNL     1       2.035   6.036  19.822  0.00  0.00    +0.000 A 
ATOM     20  C   UNL     1       1.274   5.109  20.555  0.00  0.00    +0.000 A 
ATOM     21  C   UNL     1       1.198   3.774  20.159  0.00  0.00    +0.000 A 
ATOM     22  C   UNL     1       1.881   3.351  19.024  0.00  0.00    +0.000 A 
ATOM     23  C   UNL     1       2.642   4.263  18.289  0.00  0.00    +0.000 A 
ATOM     24  C   UNL     1       2.726   5.606  18.683  0.00  0.00    +0.000 A 
ATOM     25 BR   UNL     1       3.803   6.750  17.618  0.00  0.00    +0.000 Br
ENDBRANCH  18  19
ENDBRANCH   5  17
TORSDOF 4
ENDMDL
MODEL 5
REMARK VINA RESULT:      -7.6      2.386      2.932
REMARK  Name = 
REMARK  4 active torsions:
REMARK  status: ('A' for Active; 'I' for Inactive)
REMARK    1  A    between atoms: N_2  and  C_4
REMARK    2  A    between atoms: C_8  and  C_9
REMARK    3  A    between atoms: N_13  and  N_14
REMARK    4  A    between atoms: C_15  and  C_16
REMARK                            x       y       z     vdW  Elec       q    Type
REMARK                         _______ _______ _______ _____ _____    ______ ____
ROOT
ATOM      1  C   UNL     1       3.924   4.632  19.010  0.00  0.00    +0.000 A 
ATOM      2  C   UNL     1       3.168   3.491  19.187  0.00  0.00    +0.000 A 
ATOM      3  S   UNL     1       1.829   3.832  20.207  0.00  0.00    +0.000 S 
ATOM      4  C   UNL     1       2.322   5.481  20.303  0.00  0.00    +0.000 A 
ATOM      5  N   UNL     1       1.581   6.391  20.992  0.00  0.00    +0.000 N 
ATOM      6  N   UNL     1       3.430   5.751  19.648  0.00  0.00    +0.000 NA
ATOM      7  H   UNL     1       0.753   6.045  21.466  0.00  0.00    +0.000 HD
ENDROOT
BRANCH   1  12
ATOM      8  C   UNL     1       6.252   4.741  16.070  0.00  0.00    +0.000 A 
ATOM      9  C   UNL     1       7.506   4.811  16.688  0.00  0.00    +0.000 A 
ATOM     10  C   UNL     1       7.583   4.837  18.081  0.00  0.00    +0.000 A 
ATOM     11  C   UNL     1       6.415   4.793  18.850  0.00  0.00    +0.000 A 
ATOM     12  C   UNL     1       5.156   4.722  18.237  0.00  0.00    +0.000 A 
ATOM     13  C   UNL     1       5.081   4.699  16.836  0.00  0.00    +0.000 A 
BRANCH   8  15
ATOM     14  O   UNL     1       5.184   4.137  14.101  0.00  0.00    +0.000 OA
ATOM     15  N   UNL     1       6.166   4.702  14.605  0.00  0.00    +0.000 N 
ATOM     16  O   UNL     1       7.079   5.229  13.953  0.00  0.00    +0.000 OA
ENDBRANCH   8  15
ENDBRANCH   1  12
BRANCH   5  17
ATOM     17  N   UNL     1       1.649   7.709  20.655  0.00  0.00    +0.000 NA
ATOM     18  C   UNL     1       0.610   8.446  20.893  0.00  0.00    +0.000 C 
BRANCH  18  19
ATOM     19  C   UNL     1       0.610   9.869  20.475  0.00  0.00    +0.000 A 
ATOM     20  C   UNL     1       1.202  10.191  19.242  0.00  0.00    +0.000 A 
ATOM     21  C   UNL     1       1.215  11.505  18.777  0.00  0.00    +0.000 A 
ATOM     22  C   UNL     1       0.636  12.512  19.539  0.00  0.00    +0.000 A 
ATOM     23  C   UNL     1       0.046  12.205  20.768  0.00  0.00    +0.000 A 
ATOM     24  C   UNL     1       0.033  10.886  21.243  0.00  0.00    +0.000 A 
ATOM     25 BR   UNL     1      -0.780  10.588  22.933  0.00  0.00    +0.000 Br
ENDBRANCH  18  19
ENDBRANCH   5  17
TORSDOF 4
ENDMDL
MODEL 6
REMARK VINA RESULT:      -7.6      5.888      9.155
REMARK  Name = 
REMARK  4 active torsions:
REMARK  status: ('A' for Active; 'I' for Inactive)
REMARK    1  A    between atoms: N_2  and  C_4
REMARK    2  A    between atoms: C_8  and  C_9
REMARK    3  A    between atoms: N_13  and  N_14
REMARK    4  A    between atoms: C_15  and  C_16
REMARK                            x       y       z     vdW  Elec       q    Type
REMARK                         _______ _______ _______ _____ _____    ______ ____
ROOT
ATOM      1  C   UNL     1      -1.086  10.675  19.246  0.00  0.00    +0.000 A 
ATOM      2  C   UNL     1      -0.841  11.631  20.209  0.00  0.00    +0.000 A 
ATOM      3  S   UNL     1       0.408  11.094  21.259  0.00  0.00    +0.000 S 
ATOM      4  C   UNL     1       0.565   9.650  20.331  0.00  0.00    +0.000 A 
ATOM      5  N   UNL     1       1.515   8.724  20.639  0.00  0.00    +0.000 N 
ATOM      6  N   UNL     1      -0.280   9.558  19.328  0.00  0.00    +0.000 NA
ATOM      7  H   UNL     1       2.094   8.912  21.450  0.00  0.00    +0.000 HD
ENDROOT
BRANCH   1  12
ATOM      8  C   UNL     1      -4.281  11.557  17.487  0.00  0.00    +0.000 A 
ATOM      9  C   UNL     1      -4.135  10.897  16.260  0.00  0.00    +0.000 A 
ATOM     10  C   UNL     1      -2.971  10.171  16.007  0.00  0.00    +0.000 A 
ATOM     11  C   UNL     1      -1.961  10.103  16.972  0.00  0.00    +0.000 A 
ATOM     12  C   UNL     1      -2.102  10.761  18.203  0.00  0.00    +0.000 A 
ATOM     13  C   UNL     1      -3.272  11.493  18.455  0.00  0.00    +0.000 A 
BRANCH   8  15
ATOM     14  O   UNL     1      -5.968  12.263  18.914  0.00  0.00    +0.000 OA
ATOM     15  N   UNL     1      -5.509  12.312  17.764  0.00  0.00    +0.000 N 
ATOM     16  O   UNL     1      -6.021  12.952  16.834  0.00  0.00    +0.000 OA
ENDBRANCH   8  15
ENDBRANCH   1  12
BRANCH   5  17
ATOM     17  N   UNL     1       1.986   7.894  19.667  0.00  0.00    +0.000 NA
ATOM     18  C   UNL     1       2.139   6.643  19.967  0.00  0.00    +0.000 C 
BRANCH  18  19
ATOM     19  C   UNL     1       2.719   5.716  18.965  0.00  0.00    +0.000 A 
ATOM     20  C   UNL     1       3.686   6.225  18.081  0.00  0.00    +0.000 A 
ATOM     21  C   UNL     1       4.289   5.403  17.130  0.00  0.00    +0.000 A 
ATOM     22  C   UNL     1       3.934   4.061  17.054  0.00  0.00    +0.000 A 
ATOM     23  C   UNL     1       2.973   3.544  17.925  0.00  0.00    +0.000 A 
ATOM     24  C   UNL     1       2.360   4.366  18.881  0.00  0.00    +0.000 A 
ATOM     25 BR   UNL     1       1.056   3.559  20.001  0.00  0.00    +0.000 Br
ENDBRANCH  18  19
ENDBRANCH   5  17
TORSDOF 4
ENDMDL
MODEL 7
REMARK VINA RESULT:      -7.4      1.432      1.774
REMARK  Name = 
REMARK  4 active torsions:
REMARK  status: ('A' for Active; 'I' for Inactive)
REMARK    1  A    between atoms: N_2  and  C_4
REMARK    2  A    between atoms: C_8  and  C_9
REMARK    3  A    between atoms: N_13  and  N_14
REMARK    4  A    between atoms: C_15  and  C_16
REMARK                            x       y       z     vdW  Elec       q    Type
REMARK                         _______ _______ _______ _____ _____    ______ ____
ROOT
ATOM      1  C   UNL     1       4.130   4.247  19.095  0.00  0.00    +0.000 A 
ATOM      2  C   UNL     1       3.897   2.972  19.569  0.00  0.00    +0.000 A 
ATOM      3  S   UNL     1       2.630   3.004  20.729  0.00  0.00    +0.000 S 
ATOM      4  C   UNL     1       2.451   4.701  20.485  0.00  0.00    +0.000 A 
ATOM      5  N   UNL     1       1.481   5.399  21.137  0.00  0.00    +0.000 N 
ATOM      6  N   UNL     1       3.301   5.215  19.625  0.00  0.00    +0.000 NA
ATOM      7  H   UNL     1       0.900   4.881  21.788  0.00  0.00    +0.000 HD
ENDROOT
BRANCH   1  12
ATOM      8  C   UNL     1       6.944   6.123  17.471  0.00  0.00    +0.000 A 
ATOM      9  C   UNL     1       7.094   5.438  16.258  0.00  0.00    +0.000 A 
ATOM     10  C   UNL     1       6.273   4.345  15.982  0.00  0.00    +0.000 A 
ATOM     11  C   UNL     1       5.309   3.937  16.911  0.00  0.00    +0.000 A 
ATOM     12  C   UNL     1       5.153   4.619  18.126  0.00  0.00    +0.000 A 
ATOM     13  C   UNL     1       5.981   5.718  18.403  0.00  0.00    +0.000 A 
BRANCH   8  15
ATOM     14  O   UNL     1       8.482   7.248  18.793  0.00  0.00    +0.000 OA
ATOM     15  N   UNL     1       7.796   7.282  17.761  0.00  0.00    +0.000 N 
ATOM     16  O   UNL     1       7.781   8.231  16.963  0.00  0.00    +0.000 OA
ENDBRANCH   8  15
ENDBRANCH   1  12
BRANCH   5  17
ATOM     17  N   UNL     1       1.000   6.552  20.593  0.00  0.00    +0.000 NA
ATOM     18  C   UNL     1       1.559   7.664  20.953  0.00  0.00    +0.000 C 
BRANCH  18  19
ATOM     19  C   UNL     1       1.021   8.950  20.445  0.00  0.00    +0.000 A 
ATOM     20  C   UNL     1       1.276   9.284  19.103  0.00  0.00    +0.000 A 
ATOM     21  C   UNL     1       0.780  10.466  18.554  0.00  0.00    +0.000 A 
ATOM     22  C   UNL     1       0.022  11.326  19.339  0.00  0.00    +0.000 A 
ATOM     23  C   UNL     1      -0.235  11.007  20.675  0.00  0.00    +0.000 A 
ATOM     24  C   UNL     1       0.263   9.822  21.234  0.00  0.00    +0.000 A 
ATOM     25 BR   UNL     1      -0.135   9.499  23.062  0.00  0.00    +0.000 Br
ENDBRANCH  18  19
ENDBRANCH   5  17
TORSDOF 4
ENDMDL
MODEL 8
REMARK VINA RESULT:      -7.4      1.779      2.158
REMARK  Name = 
REMARK  4 active torsions:
REMARK  status: ('A' for Active; 'I' for Inactive)
REMARK    1  A    between atoms: N_2  and  C_4
REMARK    2  A    between atoms: C_8  and  C_9
REMARK    3  A    between atoms: N_13  and  N_14
REMARK    4  A    between atoms: C_15  and  C_16
REMARK                            x       y       z     vdW  Elec       q    Type
REMARK                         _______ _______ _______ _____ _____    ______ ____
ROOT
ATOM      1  C   UNL     1       4.432   4.425  19.130  0.00  0.00    +0.000 A 
ATOM      2  C   UNL     1       4.260   3.100  19.471  0.00  0.00    +0.000 A 
ATOM      3  S   UNL     1       2.919   2.940  20.533  0.00  0.00    +0.000 S 
ATOM      4  C   UNL     1       2.635   4.638  20.426  0.00  0.00    +0.000 A 
ATOM      5  N   UNL     1       1.575   5.207  21.064  0.00  0.00    +0.000 N 
ATOM      6  N   UNL     1       3.502   5.284  19.679  0.00  0.00    +0.000 NA
ATOM      7  H   UNL     1       0.991   4.595  21.622  0.00  0.00    +0.000 HD
ENDROOT
BRANCH   1  12
ATOM      8  C   UNL     1       6.467   5.143  16.061  0.00  0.00    +0.000 A 
ATOM      9  C   UNL     1       7.544   5.870  16.583  0.00  0.00    +0.000 A 
ATOM     10  C   UNL     1       7.591   6.137  17.952  0.00  0.00    +0.000 A 
ATOM     11  C   UNL     1       6.570   5.680  18.792  0.00  0.00    +0.000 A 
ATOM     12  C   UNL     1       5.489   4.951  18.275  0.00  0.00    +0.000 A 
ATOM     13  C   UNL     1       5.443   4.686  16.898  0.00  0.00    +0.000 A 
BRANCH   8  15
ATOM     14  O   UNL     1       7.337   5.290  13.915  0.00  0.00    +0.000 OA
ATOM     15  N   UNL     1       6.420   4.849  14.623  0.00  0.00    +0.000 N 
ATOM     16  O   UNL     1       5.466   4.181  14.196  0.00  0.00    +0.000 OA
ENDBRANCH   8  15
ENDBRANCH   1  12
BRANCH   5  17
ATOM     17  N   UNL     1       1.051   6.371  20.589  0.00  0.00    +0.000 NA
ATOM     18  C   UNL     1       1.500   7.480  21.087  0.00  0.00    +0.000 C 
BRANCH  18  19
ATOM     19  C   UNL     1       0.907   8.769  20.655  0.00  0.00    +0.000 A 
ATOM     20  C   UNL     1       0.105   9.465  21.576  0.00  0.00    +0.000 A 
ATOM     21  C   UNL     1      -0.464  10.694  21.244  0.00  0.00    +0.000 A 
ATOM     22  C   UNL     1      -0.235  11.243  19.988  0.00  0.00    +0.000 A 
ATOM     23  C   UNL     1       0.559  10.560  19.063  0.00  0.00    +0.000 A 
ATOM     24  C   UNL     1       1.131   9.322  19.389  0.00  0.00    +0.000 A 
ATOM     25 BR   UNL     1       2.178   8.478  18.049  0.00  0.00    +0.000 Br
ENDBRANCH  18  19
ENDBRANCH   5  17
TORSDOF 4
ENDMDL
MODEL 9
REMARK VINA RESULT:      -7.4      5.324      8.774
REMARK  Name = 
REMARK  4 active torsions:
REMARK  status: ('A' for Active; 'I' for Inactive)
REMARK    1  A    between atoms: N_2  and  C_4
REMARK    2  A    between atoms: C_8  and  C_9
REMARK    3  A    between atoms: N_13  and  N_14
REMARK    4  A    between atoms: C_15  and  C_16
REMARK                            x       y       z     vdW  Elec       q    Type
REMARK                         _______ _______ _______ _____ _____    ______ ____
ROOT
ATOM      1  C   UNL     1      -0.966  11.167  18.671  0.00  0.00    +0.000 A 
ATOM      2  C   UNL     1      -0.136  12.259  18.817  0.00  0.00    +0.000 A 
ATOM      3  S   UNL     1       1.204  11.843  19.809  0.00  0.00    +0.000 S 
ATOM      4  C   UNL     1       0.609  10.229  19.934  0.00  0.00    +0.000 A 
ATOM      5  N   UNL     1       1.307   9.281  20.616  0.00  0.00    +0.000 N 
ATOM      6  N   UNL     1      -0.530  10.025  19.310  0.00  0.00    +0.000 NA
ATOM      7  H   UNL     1       2.166   9.577  21.066  0.00  0.00    +0.000 HD
ENDROOT
BRANCH   1  12
ATOM      8  C   UNL     1      -3.410  10.638  15.873  0.00  0.00    +0.000 A 
ATOM      9  C   UNL     1      -4.593  11.159  16.412  0.00  0.00    +0.000 A 
ATOM     10  C   UNL     1      -4.587  11.674  17.708  0.00  0.00    +0.000 A 
ATOM     11  C   UNL     1      -3.409  11.668  18.462  0.00  0.00    +0.000 A 
ATOM     12  C   UNL     1      -2.221  11.148  17.928  0.00  0.00    +0.000 A 
ATOM     13  C   UNL     1      -2.229  10.629  16.624  0.00  0.00    +0.000 A 
BRANCH   8  15
ATOM     14  O   UNL     1      -2.309   9.930  13.959  0.00  0.00    +0.000 OA
ATOM     15  N   UNL     1      -3.407  10.107  14.505  0.00  0.00    +0.000 N 
ATOM     16  O   UNL     1      -4.500   9.870  13.970  0.00  0.00    +0.000 OA
ENDBRANCH   8  15
ENDBRANCH   1  12
BRANCH   5  17
ATOM     17  N   UNL     1       1.146   7.967  20.296  0.00  0.00    +0.000 NA
ATOM     18  C   UNL     1       2.210   7.229  20.233  0.00  0.00    +0.000 C 
BRANCH  18  19
ATOM     19  C   UNL     1       2.093   5.811  19.815  0.00  0.00    +0.000 A 
ATOM     20  C   UNL     1       1.281   4.963  20.588  0.00  0.00    +0.000 A 
ATOM     21  C   UNL     1       1.107   3.624  20.237  0.00  0.00    +0.000 A 
ATOM     22  C   UNL     1       1.741   3.119  19.109  0.00  0.00    +0.000 A 
ATOM     23  C   UNL     1       2.553   3.951  18.334  0.00  0.00    +0.000 A 
ATOM     24  C   UNL     1       2.735   5.297  18.683  0.00  0.00    +0.000 A 
ATOM     25 BR   UNL     1       3.872   6.329  17.566  0.00  0.00    +0.000 Br
ENDBRANCH  18  19
ENDBRANCH   5  17
TORSDOF 4
ENDMDL
