MODEL 1
REMARK VINA RESULT:      -8.4      0.000      0.000
REMARK  Name = 
REMARK  5 active torsions:
REMARK  status: ('A' for Active; 'I' for Inactive)
REMARK    1  A    between atoms: C_1  and  C_2
REMARK    2  A    between atoms: C_2  and  C_4
REMARK    3  A    between atoms: C_8  and  N_9
REMARK    4  A    between atoms: C_10  and  C_12
REMARK    5  A    between atoms: C_18  and  C_19
REMARK                            x       y       z     vdW  Elec       q    Type
REMARK                         _______ _______ _______ _____ _____    ______ ____
ROOT
ATOM      1  C   UNL     1       1.455   8.959  19.854  0.00  0.00    +0.000 A 
ATOM      2  C   UNL     1       1.480   8.658  21.213  0.00  0.00    +0.000 A 
ATOM      3  C   UNL     1       0.763   9.617  21.962  0.00  0.00    +0.000 A 
ATOM      4  C   UNL     1       0.443  10.722  21.218  0.00  0.00    +0.000 A 
ATOM      5  S   UNL     1       0.787  10.521  19.572  0.00  0.00    +0.000 S 
ATOM      6  C   UNL     1      -0.392  11.748  21.826  0.00  0.00    +0.000 A 
ATOM      7  C   UNL     1      -0.169  13.122  21.800  0.00  0.00    +0.000 A 
ATOM      8  C   UNL     1       1.179  13.682  21.441  0.00  0.00    +0.000 C 
ATOM      9  C   UNL     1      -1.121  13.958  22.411  0.00  0.00    +0.000 A 
ATOM     10  C   UNL     1      -2.252  13.429  23.051  0.00  0.00    +0.000 A 
ATOM     11  C   UNL     1      -2.359  12.056  23.241  0.00  0.00    +0.000 A 
ATOM     12  C   UNL     1      -1.357  11.246  22.730  0.00  0.00    +0.000 A 
ATOM     13  O   UNL     1      -1.224   9.968  23.275  0.00  0.00    +0.000 OA
ATOM     14  C   UNL     1       0.190   9.587  23.338  0.00  0.00    +0.000 C 
ENDROOT
BRANCH   1  16
ATOM     15  N   UNL     1       2.476   6.876  19.192  0.00  0.00    +0.000 N 
ATOM     16  C   UNL     1       1.884   8.061  18.788  0.00  0.00    +0.000 C 
ATOM     17  O   UNL     1       1.724   8.379  17.609  0.00  0.00    +0.000 OA
ATOM     18  H   UNL     1       2.455   6.688  20.188  0.00  0.00    +0.000 HD
BRANCH  15  23
ATOM     19  C   UNL     1       4.944   5.047  17.126  0.00  0.00    +0.000 A 
ATOM     20  C   UNL     1       4.243   3.885  16.795  0.00  0.00    +0.000 A 
ATOM     21  C   UNL     1       2.932   3.729  17.222  0.00  0.00    +0.000 A 
ATOM     22  C   UNL     1       2.316   4.710  18.000  0.00  0.00    +0.000 A 
ATOM     23  C   UNL     1       3.011   5.870  18.358  0.00  0.00    +0.000 A 
ATOM     24  C   UNL     1       4.314   6.049  17.881  0.00  0.00    +0.000 A 
BRANCH  19  26
ATOM     25  C   UNL     1       7.459   4.640  17.539  0.00  0.00    +0.000 C 
ATOM     26  C   UNL     1       6.358   5.251  16.712  0.00  0.00    +0.000 C 
ATOM     27  O   UNL     1       6.611   5.912  15.705  0.00  0.00    +0.000 OA
ENDBRANCH  19  26
ENDBRANCH  15  23
ENDBRANCH   1  16
TORSDOF 3
ENDMDL
MODEL 2
REMARK VINA RESULT:      -7.9      1.422      2.110
REMARK  Name = 
REMARK  5 active torsions:
REMARK  status: ('A' for Active; 'I' for Inactive)
REMARK    1  A    between atoms: C_1  and  C_2
REMARK    2  A    between atoms: C_2  and  C_4
REMARK    3  A    between atoms: C_8  and  N_9
REMARK    4  A    between atoms: C_10  and  C_12
REMARK    5  A    between atoms: C_18  and  C_19
REMARK                            x       y       z     vdW  Elec       q    Type
REMARK                         _______ _______ _______ _____ _____    ______ ____
ROOT
ATOM      1  C   UNL     1       1.350   9.186  19.966  0.00  0.00    +0.000 A 
ATOM      2  C   UNL     1       1.323   8.878  21.324  0.00  0.00    +0.000 A 
ATOM      3  C   UNL     1       0.578   9.834  22.049  0.00  0.00    +0.000 A 
ATOM      4  C   UNL     1       0.287  10.942  21.299  0.00  0.00    +0.000 A 
ATOM      5  S   UNL     1       0.694  10.750  19.666  0.00  0.00    +0.000 S 
ATOM      6  C   UNL     1      -0.571  11.965  21.880  0.00  0.00    +0.000 A 
ATOM      7  C   UNL     1      -0.348  13.339  21.869  0.00  0.00    +0.000 A 
ATOM      8  C   UNL     1       1.013  13.901  21.565  0.00  0.00    +0.000 C 
ATOM      9  C   UNL     1      -1.323  14.172  22.447  0.00  0.00    +0.000 A 
ATOM     10  C   UNL     1      -2.477  13.641  23.041  0.00  0.00    +0.000 A 
ATOM     11  C   UNL     1      -2.591  12.267  23.220  0.00  0.00    +0.000 A 
ATOM     12  C   UNL     1      -1.570  11.459  22.743  0.00  0.00    +0.000 A 
ATOM     13  O   UNL     1      -1.458  10.178  23.286  0.00  0.00    +0.000 OA
ATOM     14  C   UNL     1      -0.047   9.796  23.402  0.00  0.00    +0.000 C 
ENDROOT
BRANCH   1  16
ATOM     15  N   UNL     1       2.573   7.207  19.327  0.00  0.00    +0.000 N 
ATOM     16  C   UNL     1       1.820   8.293  18.912  0.00  0.00    +0.000 C 
ATOM     17  O   UNL     1       1.553   8.533  17.734  0.00  0.00    +0.000 OA
ATOM     18  H   UNL     1       2.635   7.067  20.329  0.00  0.00    +0.000 HD
BRANCH  15  23
ATOM     19  C   UNL     1       3.237   3.899  17.804  0.00  0.00    +0.000 A 
ATOM     20  C   UNL     1       4.197   4.211  16.837  0.00  0.00    +0.000 A 
ATOM     21  C   UNL     1       4.657   5.513  16.722  0.00  0.00    +0.000 A 
ATOM     22  C   UNL     1       4.152   6.522  17.544  0.00  0.00    +0.000 A 
ATOM     23  C   UNL     1       3.175   6.231  18.502  0.00  0.00    +0.000 A 
ATOM     24  C   UNL     1       2.753   4.906  18.654  0.00  0.00    +0.000 A 
BRANCH  19  26
ATOM     25  C   UNL     1       3.643   1.388  18.242  0.00  0.00    +0.000 C 
ATOM     26  C   UNL     1       2.695   2.521  17.951  0.00  0.00    +0.000 C 
ATOM     27  O   UNL     1       1.485   2.326  17.833  0.00  0.00    +0.000 OA
ENDBRANCH  19  26
ENDBRANCH  15  23
ENDBRANCH   1  16
TORSDOF 3
ENDMDL
MODEL 3
REMARK VINA RESULT:      -7.8      1.904      2.582
REMARK  Name = 
REMARK  5 active torsions:
REMARK  status: ('A' for Active; 'I' for Inactive)
REMARK    1  A    between atoms: C_1  and  C_2
REMARK    2  A    between atoms: C_2  and  C_4
REMARK    3  A    between atoms: C_8  and  N_9
REMARK    4  A    between atoms: C_10  and  C_12
REMARK    5  A    between atoms: C_18  and  C_19
REMARK                            x       y       z     vdW  Elec       q    Type
REMARK                         _______ _______ _______ _____ _____    ______ ____
ROOT
ATOM      1  C   UNL     1       1.018   9.018  20.307  0.00  0.00    +0.000 A 
ATOM      2  C   UNL     1       0.635   9.864  19.270  0.00  0.00    +0.000 A 
ATOM      3  C   UNL     1       0.284  11.143  19.757  0.00  0.00    +0.000 A 
ATOM      4  C   UNL     1       0.162  11.162  21.121  0.00  0.00    +0.000 A 
ATOM      5  S   UNL     1       0.692   9.724  21.844  0.00  0.00    +0.000 S 
ATOM      6  C   UNL     1      -0.088  12.438  21.775  0.00  0.00    +0.000 A 
ATOM      7  C   UNL     1      -1.036  12.692  22.762  0.00  0.00    +0.000 A 
ATOM      8  C   UNL     1      -2.175  11.741  23.008  0.00  0.00    +0.000 C 
ATOM      9  C   UNL     1      -1.094  13.989  23.306  0.00  0.00    +0.000 A 
ATOM     10  C   UNL     1      -0.241  15.007  22.855  0.00  0.00    +0.000 A 
ATOM     11  C   UNL     1       0.560  14.793  21.739  0.00  0.00    +0.000 A 
ATOM     12  C   UNL     1       0.527  13.542  21.142  0.00  0.00    +0.000 A 
ATOM     13  O   UNL     1       0.962  13.451  19.819  0.00  0.00    +0.000 OA
ATOM     14  C   UNL     1       0.158  12.468  19.086  0.00  0.00    +0.000 C 
ENDROOT
BRANCH   1  16
ATOM     15  N   UNL     1       2.279   7.504  18.915  0.00  0.00    +0.000 N 
ATOM     16  C   UNL     1       1.664   7.721  20.137  0.00  0.00    +0.000 C 
ATOM     17  O   UNL     1       1.630   6.889  21.044  0.00  0.00    +0.000 OA
ATOM     18  H   UNL     1       2.324   8.304  18.293  0.00  0.00    +0.000 HD
BRANCH  15  23
ATOM     19  C   UNL     1       5.012   5.070  18.359  0.00  0.00    +0.000 A 
ATOM     20  C   UNL     1       4.326   3.980  17.814  0.00  0.00    +0.000 A 
ATOM     21  C   UNL     1       2.961   4.072  17.589  0.00  0.00    +0.000 A 
ATOM     22  C   UNL     1       2.261   5.232  17.926  0.00  0.00    +0.000 A 
ATOM     23  C   UNL     1       2.928   6.323  18.492  0.00  0.00    +0.000 A 
ATOM     24  C   UNL     1       4.314   6.248  18.667  0.00  0.00    +0.000 A 
BRANCH  19  26
ATOM     25  C   UNL     1       7.419   4.642  17.530  0.00  0.00    +0.000 C 
ATOM     26  C   UNL     1       6.472   5.011  18.641  0.00  0.00    +0.000 C 
ATOM     27  O   UNL     1       6.885   5.265  19.772  0.00  0.00    +0.000 OA
ENDBRANCH  19  26
ENDBRANCH  15  23
ENDBRANCH   1  16
TORSDOF 3
ENDMDL
MODEL 4
REMARK VINA RESULT:      -7.8      1.765      2.476
REMARK  Name = 
REMARK  5 active torsions:
REMARK  status: ('A' for Active; 'I' for Inactive)
REMARK    1  A    between atoms: C_1  and  C_2
REMARK    2  A    between atoms: C_2  and  C_4
REMARK    3  A    between atoms: C_8  and  N_9
REMARK    4  A    between atoms: C_10  and  C_12
REMARK    5  A    between atoms: C_18  and  C_19
REMARK                            x       y       z     vdW  Elec       q    Type
REMARK                         _______ _______ _______ _____ _____    ______ ____
ROOT
ATOM      1  C   UNL     1       1.124   9.086  20.001  0.00  0.00    +0.000 A 
ATOM      2  C   UNL     1       0.568   9.902  19.020  0.00  0.00    +0.000 A 
ATOM      3  C   UNL     1       0.169  11.146  19.558  0.00  0.00    +0.000 A 
ATOM      4  C   UNL     1       0.189  11.149  20.927  0.00  0.00    +0.000 A 
ATOM      5  S   UNL     1       0.904   9.755  21.572  0.00  0.00    +0.000 S 
ATOM      6  C   UNL     1      -0.094  12.396  21.621  0.00  0.00    +0.000 A 
ATOM      7  C   UNL     1      -0.952  12.568  22.704  0.00  0.00    +0.000 A 
ATOM      8  C   UNL     1      -1.978  11.526  23.053  0.00  0.00    +0.000 C 
ATOM      9  C   UNL     1      -1.056  13.853  23.268  0.00  0.00    +0.000 A 
ATOM     10  C   UNL     1      -0.339  14.939  22.745  0.00  0.00    +0.000 A 
ATOM     11  C   UNL     1       0.357  14.797  21.550  0.00  0.00    +0.000 A 
ATOM     12  C   UNL     1       0.362  13.550  20.942  0.00  0.00    +0.000 A 
ATOM     13  O   UNL     1       0.662  13.501  19.580  0.00  0.00    +0.000 OA
ATOM     14  C   UNL     1      -0.131  12.460  18.921  0.00  0.00    +0.000 C 
ENDROOT
BRANCH   1  16
ATOM     15  N   UNL     1       2.452   7.737  18.504  0.00  0.00    +0.000 N 
ATOM     16  C   UNL     1       1.850   7.846  19.747  0.00  0.00    +0.000 C 
ATOM     17  O   UNL     1       1.892   6.966  20.607  0.00  0.00    +0.000 OA
ATOM     18  H   UNL     1       2.430   8.570  17.927  0.00  0.00    +0.000 HD
BRANCH  15  23
ATOM     19  C   UNL     1       5.298   5.759  17.202  0.00  0.00    +0.000 A 
ATOM     20  C   UNL     1       4.747   4.477  17.117  0.00  0.00    +0.000 A 
ATOM     21  C   UNL     1       3.415   4.279  17.450  0.00  0.00    +0.000 A 
ATOM     22  C   UNL     1       2.627   5.342  17.893  0.00  0.00    +0.000 A 
ATOM     23  C   UNL     1       3.168   6.626  18.005  0.00  0.00    +0.000 A 
ATOM     24  C   UNL     1       4.496   6.834  17.617  0.00  0.00    +0.000 A 
BRANCH  19  26
ATOM     25  C   UNL     1       7.411   7.213  17.488  0.00  0.00    +0.000 C 
ATOM     26  C   UNL     1       6.726   6.018  16.879  0.00  0.00    +0.000 C 
ATOM     27  O   UNL     1       7.328   5.257  16.121  0.00  0.00    +0.000 OA
ENDBRANCH  19  26
ENDBRANCH  15  23
ENDBRANCH   1  16
TORSDOF 3
ENDMDL
MODEL 5
REMARK VINA RESULT:      -7.7      1.515      1.638
REMARK  Name = 
REMARK  5 active torsions:
REMARK  status: ('A' for Active; 'I' for Inactive)
REMARK    1  A    between atoms: C_1  and  C_2
REMARK    2  A    between atoms: C_2  and  C_4
REMARK    3  A    between atoms: C_8  and  N_9
REMARK    4  A    between atoms: C_10  and  C_12
REMARK    5  A    between atoms: C_18  and  C_19
REMARK                            x       y       z     vdW  Elec       q    Type
REMARK                         _______ _______ _______ _____ _____    ______ ____
ROOT
ATOM      1  C   UNL     1       1.391   8.394  20.545  0.00  0.00    +0.000 A 
ATOM      2  C   UNL     1       1.053   8.746  21.848  0.00  0.00    +0.000 A 
ATOM      3  C   UNL     1       0.409  10.003  21.887  0.00  0.00    +0.000 A 
ATOM      4  C   UNL     1       0.501  10.669  20.694  0.00  0.00    +0.000 A 
ATOM      5  S   UNL     1       1.148   9.708  19.458  0.00  0.00    +0.000 S 
ATOM      6  C   UNL     1      -0.210  11.930  20.549  0.00  0.00    +0.000 A 
ATOM      7  C   UNL     1       0.299  13.114  20.020  0.00  0.00    +0.000 A 
ATOM      8  C   UNL     1       1.780  13.323  19.870  0.00  0.00    +0.000 C 
ATOM      9  C   UNL     1      -0.565  14.220  19.922  0.00  0.00    +0.000 A 
ATOM     10  C   UNL     1      -1.894  14.148  20.365  0.00  0.00    +0.000 A 
ATOM     11  C   UNL     1      -2.329  13.030  21.067  0.00  0.00    +0.000 A 
ATOM     12  C   UNL     1      -1.434  11.988  21.255  0.00  0.00    +0.000 A 
ATOM     13  O   UNL     1      -1.697  11.094  22.294  0.00  0.00    +0.000 OA
ATOM     14  C   UNL     1      -0.445  10.657  22.919  0.00  0.00    +0.000 C 
ENDROOT
BRANCH   1  16
ATOM     15  N   UNL     1       2.489   7.013  18.898  0.00  0.00    +0.000 N 
ATOM     16  C   UNL     1       1.844   7.072  20.123  0.00  0.00    +0.000 C 
ATOM     17  O   UNL     1       1.635   6.090  20.835  0.00  0.00    +0.000 OA
ATOM     18  H   UNL     1       2.689   7.904  18.459  0.00  0.00    +0.000 HD
BRANCH  15  23
ATOM     19  C   UNL     1       4.920   4.622  17.457  0.00  0.00    +0.000 A 
ATOM     20  C   UNL     1       4.098   3.550  17.099  0.00  0.00    +0.000 A 
ATOM     21  C   UNL     1       2.728   3.641  17.294  0.00  0.00    +0.000 A 
ATOM     22  C   UNL     1       2.166   4.782  17.870  0.00  0.00    +0.000 A 
ATOM     23  C   UNL     1       2.977   5.854  18.255  0.00  0.00    +0.000 A 
ATOM     24  C   UNL     1       4.352   5.782  18.006  0.00  0.00    +0.000 A 
BRANCH  19  26
ATOM     25  C   UNL     1       6.981   4.645  15.902  0.00  0.00    +0.000 C 
ATOM     26  C   UNL     1       6.397   4.563  17.288  0.00  0.00    +0.000 C 
ATOM     27  O   UNL     1       7.120   4.450  18.278  0.00  0.00    +0.000 OA
ENDBRANCH  19  26
ENDBRANCH  15  23
ENDBRANCH   1  16
TORSDOF 3
ENDMDL
MODEL 6
REMARK VINA RESULT:      -7.6      2.094      3.235
REMARK  Name = 
REMARK  5 active torsions:
REMARK  status: ('A' for Active; 'I' for Inactive)
REMARK    1  A    between atoms: C_1  and  C_2
REMARK    2  A    between atoms: C_2  and  C_4
REMARK    3  A    between atoms: C_8  and  N_9
REMARK    4  A    between atoms: C_10  and  C_12
REMARK    5  A    between atoms: C_18  and  C_19
REMARK                            x       y       z     vdW  Elec       q    Type
REMARK                         _______ _______ _______ _____ _____    ______ ____
ROOT
ATOM      1  C   UNL     1       1.072   9.089  20.085  0.00  0.00    +0.000 A 
ATOM      2  C   UNL     1       0.510   9.902  19.104  0.00  0.00    +0.000 A 
ATOM      3  C   UNL     1       0.112  11.147  19.640  0.00  0.00    +0.000 A 
ATOM      4  C   UNL     1       0.138  11.154  21.010  0.00  0.00    +0.000 A 
ATOM      5  S   UNL     1       0.858   9.763  21.655  0.00  0.00    +0.000 S 
ATOM      6  C   UNL     1      -0.142  12.404  21.700  0.00  0.00    +0.000 A 
ATOM      7  C   UNL     1      -0.995  12.578  22.787  0.00  0.00    +0.000 A 
ATOM      8  C   UNL     1      -2.019  11.536  23.144  0.00  0.00    +0.000 C 
ATOM      9  C   UNL     1      -1.098  13.865  23.347  0.00  0.00    +0.000 A 
ATOM     10  C   UNL     1      -0.385  14.950  22.817  0.00  0.00    +0.000 A 
ATOM     11  C   UNL     1       0.305  14.804  21.619  0.00  0.00    +0.000 A 
ATOM     12  C   UNL     1       0.309  13.556  21.016  0.00  0.00    +0.000 A 
ATOM     13  O   UNL     1       0.603  13.503  19.653  0.00  0.00    +0.000 OA
ATOM     14  C   UNL     1      -0.193  12.458  19.001  0.00  0.00    +0.000 C 
ENDROOT
BRANCH   1  16
ATOM     15  N   UNL     1       2.325   7.702  18.560  0.00  0.00    +0.000 N 
ATOM     16  C   UNL     1       1.798   7.849  19.832  0.00  0.00    +0.000 C 
ATOM     17  O   UNL     1       1.903   7.001  20.719  0.00  0.00    +0.000 OA
ATOM     18  H   UNL     1       2.258   8.514  17.956  0.00  0.00    +0.000 HD
BRANCH  15  23
ATOM     19  C   UNL     1       3.092   4.163  17.787  0.00  0.00    +0.000 A 
ATOM     20  C   UNL     1       4.249   4.279  17.012  0.00  0.00    +0.000 A 
ATOM     21  C   UNL     1       4.802   5.530  16.785  0.00  0.00    +0.000 A 
ATOM     22  C   UNL     1       4.197   6.678  17.300  0.00  0.00    +0.000 A 
ATOM     23  C   UNL     1       3.026   6.583  18.058  0.00  0.00    +0.000 A 
ATOM     24  C   UNL     1       2.502   5.315  18.332  0.00  0.00    +0.000 A 
BRANCH  19  26
ATOM     25  C   UNL     1       1.061   2.807  18.623  0.00  0.00    +0.000 C 
ATOM     26  C   UNL     1       2.449   2.846  18.039  0.00  0.00    +0.000 C 
ATOM     27  O   UNL     1       3.056   1.809  17.769  0.00  0.00    +0.000 OA
ENDBRANCH  19  26
ENDBRANCH  15  23
ENDBRANCH   1  16
TORSDOF 3
ENDMDL
MODEL 7
REMARK VINA RESULT:      -7.5      1.834      2.483
REMARK  Name = 
REMARK  5 active torsions:
REMARK  status: ('A' for Active; 'I' for Inactive)
REMARK    1  A    between atoms: C_1  and  C_2
REMARK    2  A    between atoms: C_2  and  C_4
REMARK    3  A    between atoms: C_8  and  N_9
REMARK    4  A    between atoms: C_10  and  C_12
REMARK    5  A    between atoms: C_18  and  C_19
REMARK                            x       y       z     vdW  Elec       q    Type
REMARK                         _______ _______ _______ _____ _____    ______ ____
ROOT
ATOM      1  C   UNL     1       1.057   9.361  18.749  0.00  0.00    +0.000 A 
ATOM      2  C   UNL     1      -0.104   9.870  18.175  0.00  0.00    +0.000 A 
ATOM      3  C   UNL     1      -0.649  10.909  18.962  0.00  0.00    +0.000 A 
ATOM      4  C   UNL     1      -0.061  10.988  20.196  0.00  0.00    +0.000 A 
ATOM      5  S   UNL     1       1.296   9.983  20.337  0.00  0.00    +0.000 S 
ATOM      6  C   UNL     1      -0.443  12.081  21.077  0.00  0.00    +0.000 A 
ATOM      7  C   UNL     1      -0.770  11.984  22.427  0.00  0.00    +0.000 A 
ATOM      8  C   UNL     1      -1.121  10.660  23.047  0.00  0.00    +0.000 C 
ATOM      9  C   UNL     1      -1.071  13.170  23.122  0.00  0.00    +0.000 A 
ATOM     10  C   UNL     1      -1.068  14.415  22.475  0.00  0.00    +0.000 A 
ATOM     11  C   UNL     1      -0.934  14.474  21.092  0.00  0.00    +0.000 A 
ATOM     12  C   UNL     1      -0.748  13.286  20.402  0.00  0.00    +0.000 A 
ATOM     13  O   UNL     1      -1.049  13.281  19.040  0.00  0.00    +0.000 OA
ATOM     14  C   UNL     1      -1.626  11.991  18.650  0.00  0.00    +0.000 C 
ENDROOT
BRANCH   1  16
ATOM     15  N   UNL     1       2.143   7.208  18.666  0.00  0.00    +0.000 N 
ATOM     16  C   UNL     1       1.993   8.458  18.088  0.00  0.00    +0.000 C 
ATOM     17  O   UNL     1       2.606   8.827  17.086  0.00  0.00    +0.000 OA
ATOM     18  H   UNL     1       1.507   6.992  19.425  0.00  0.00    +0.000 HD
BRANCH  15  23
ATOM     19  C   UNL     1       5.316   5.427  17.983  0.00  0.00    +0.000 A 
ATOM     20  C   UNL     1       4.861   4.176  17.555  0.00  0.00    +0.000 A 
ATOM     21  C   UNL     1       3.499   3.939  17.451  0.00  0.00    +0.000 A 
ATOM     22  C   UNL     1       2.577   4.929  17.793  0.00  0.00    +0.000 A 
ATOM     23  C   UNL     1       3.014   6.179  18.244  0.00  0.00    +0.000 A 
ATOM     24  C   UNL     1       4.389   6.434  18.296  0.00  0.00    +0.000 A 
BRANCH  19  26
ATOM     25  C   UNL     1       7.316   7.004  17.568  0.00  0.00    +0.000 C 
ATOM     26  C   UNL     1       6.766   5.721  18.133  0.00  0.00    +0.000 C 
ATOM     27  O   UNL     1       7.495   4.917  18.715  0.00  0.00    +0.000 OA
ENDBRANCH  19  26
ENDBRANCH  15  23
ENDBRANCH   1  16
TORSDOF 3
ENDMDL
MODEL 8
REMARK VINA RESULT:      -7.5      2.281      3.431
REMARK  Name = 
REMARK  5 active torsions:
REMARK  status: ('A' for Active; 'I' for Inactive)
REMARK    1  A    between atoms: C_1  and  C_2
REMARK    2  A    between atoms: C_2  and  C_4
REMARK    3  A    between atoms: C_8  and  N_9
REMARK    4  A    between atoms: C_10  and  C_12
REMARK    5  A    between atoms: C_18  and  C_19
REMARK                            x       y       z     vdW  Elec       q    Type
REMARK                         _______ _______ _______ _____ _____    ______ ____
ROOT
ATOM      1  C   UNL     1       0.756   9.586  19.701  0.00  0.00    +0.000 A 
ATOM      2  C   UNL     1      -0.049  10.072  18.674  0.00  0.00    +0.000 A 
ATOM      3  C   UNL     1      -0.565  11.348  18.991  0.00  0.00    +0.000 A 
ATOM      4  C   UNL     1      -0.363  11.678  20.305  0.00  0.00    +0.000 A 
ATOM      5  S   UNL     1       0.645  10.577  21.106  0.00  0.00    +0.000 S 
ATOM      6  C   UNL     1      -0.744  13.010  20.751  0.00  0.00    +0.000 A 
ATOM      7  C   UNL     1      -1.465  13.326  21.899  0.00  0.00    +0.000 A 
ATOM      8  C   UNL     1      -2.257  12.277  22.630  0.00  0.00    +0.000 C 
ATOM      9  C   UNL     1      -1.696  14.684  22.182  0.00  0.00    +0.000 A 
ATOM     10  C   UNL     1      -1.237  15.696  21.326  0.00  0.00    +0.000 A 
ATOM     11  C   UNL     1      -0.694  15.361  20.090  0.00  0.00    +0.000 A 
ATOM     12  C   UNL     1      -0.572  14.017  19.773  0.00  0.00    +0.000 A 
ATOM     13  O   UNL     1      -0.453  13.684  18.423  0.00  0.00    +0.000 OA
ATOM     14  C   UNL     1      -1.153  12.426  18.146  0.00  0.00    +0.000 C 
ENDROOT
BRANCH   1  16
ATOM     15  N   UNL     1       2.032   8.070  18.325  0.00  0.00    +0.000 N 
ATOM     16  C   UNL     1       1.629   8.422  19.603  0.00  0.00    +0.000 C 
ATOM     17  O   UNL     1       1.955   7.805  20.618  0.00  0.00    +0.000 OA
ATOM     18  H   UNL     1       1.779   8.717  17.587  0.00  0.00    +0.000 HD
BRANCH  15  23
ATOM     19  C   UNL     1       2.997   4.548  17.716  0.00  0.00    +0.000 A 
ATOM     20  C   UNL     1       4.276   4.687  17.170  0.00  0.00    +0.000 A 
ATOM     21  C   UNL     1       4.837   5.949  17.046  0.00  0.00    +0.000 A 
ATOM     22  C   UNL     1       4.125   7.084  17.437  0.00  0.00    +0.000 A 
ATOM     23  C   UNL     1       2.836   6.965  17.965  0.00  0.00    +0.000 A 
ATOM     24  C   UNL     1       2.294   5.687  18.140  0.00  0.00    +0.000 A 
BRANCH  19  26
ATOM     25  C   UNL     1       3.203   1.984  17.926  0.00  0.00    +0.000 C 
ATOM     26  C   UNL     1       2.344   3.218  17.848  0.00  0.00    +0.000 C 
ATOM     27  O   UNL     1       1.116   3.143  17.891  0.00  0.00    +0.000 OA
ENDBRANCH  19  26
ENDBRANCH  15  23
ENDBRANCH   1  16
TORSDOF 3
ENDMDL
MODEL 9
REMARK VINA RESULT:      -7.5      2.096      3.135
REMARK  Name = 
REMARK  5 active torsions:
REMARK  status: ('A' for Active; 'I' for Inactive)
REMARK    1  A    between atoms: C_1  and  C_2
REMARK    2  A    between atoms: C_2  and  C_4
REMARK    3  A    between atoms: C_8  and  N_9
REMARK    4  A    between atoms: C_10  and  C_12
REMARK    5  A    between atoms: C_18  and  C_19
REMARK                            x       y       z     vdW  Elec       q    Type
REMARK                         _______ _______ _______ _____ _____    ______ ____
ROOT
ATOM      1  C   UNL     1       0.903   9.585  18.835  0.00  0.00    +0.000 A 
ATOM      2  C   UNL     1      -0.248  10.130  18.272  0.00  0.00    +0.000 A 
ATOM      3  C   UNL     1      -0.783  11.149  19.090  0.00  0.00    +0.000 A 
ATOM      4  C   UNL     1      -0.201  11.177  20.330  0.00  0.00    +0.000 A 
ATOM      5  S   UNL     1       1.140  10.150  20.444  0.00  0.00    +0.000 S 
ATOM      6  C   UNL     1      -0.574  12.246  21.245  0.00  0.00    +0.000 A 
ATOM      7  C   UNL     1      -0.910  12.108  22.589  0.00  0.00    +0.000 A 
ATOM      8  C   UNL     1      -1.283  10.768  23.162  0.00  0.00    +0.000 C 
ATOM      9  C   UNL     1      -1.199  13.274  23.322  0.00  0.00    +0.000 A 
ATOM     10  C   UNL     1      -1.175  14.539  22.718  0.00  0.00    +0.000 A 
ATOM     11  C   UNL     1      -1.032  14.644  21.339  0.00  0.00    +0.000 A 
ATOM     12  C   UNL     1      -0.858  13.477  20.610  0.00  0.00    +0.000 A 
ATOM     13  O   UNL     1      -1.151  13.523  19.246  0.00  0.00    +0.000 OA
ATOM     14  C   UNL     1      -1.743  12.255  18.811  0.00  0.00    +0.000 C 
ENDROOT
BRANCH   1  16
ATOM     15  N   UNL     1       1.974   7.428  18.696  0.00  0.00    +0.000 N 
ATOM     16  C   UNL     1       1.831   8.692  18.149  0.00  0.00    +0.000 C 
ATOM     17  O   UNL     1       2.442   9.081  17.153  0.00  0.00    +0.000 OA
ATOM     18  H   UNL     1       1.340   7.198  19.453  0.00  0.00    +0.000 HD
BRANCH  15  23
ATOM     19  C   UNL     1       3.180   4.016  17.913  0.00  0.00    +0.000 A 
ATOM     20  C   UNL     1       4.399   4.276  17.280  0.00  0.00    +0.000 A 
ATOM     21  C   UNL     1       4.842   5.584  17.155  0.00  0.00    +0.000 A 
ATOM     22  C   UNL     1       4.070   6.645  17.630  0.00  0.00    +0.000 A 
ATOM     23  C   UNL     1       2.837   6.404  18.246  0.00  0.00    +0.000 A 
ATOM     24  C   UNL     1       2.419   5.081  18.420  0.00  0.00    +0.000 A 
BRANCH  19  26
ATOM     25  C   UNL     1       3.595   1.522  18.432  0.00  0.00    +0.000 C 
ATOM     26  C   UNL     1       2.652   2.633  18.051  0.00  0.00    +0.000 C 
ATOM     27  O   UNL     1       1.456   2.413  17.854  0.00  0.00    +0.000 OA
ENDBRANCH  19  26
ENDBRANCH  15  23
ENDBRANCH   1  16
TORSDOF 3
ENDMDL
