MODEL 1
REMARK VINA RESULT:      -7.5      0.000      0.000
REMARK  Name = 
REMARK  5 active torsions:
REMARK  status: ('A' for Active; 'I' for Inactive)
REMARK    1  A    between atoms: C_2  and  C_3
REMARK    2  A    between atoms: C_3  and  S_4
REMARK    3  A    between atoms: S_4  and  C_5
REMARK    4  A    between atoms: N_12  and  C_13
REMARK    5  A    between atoms: C_16  and  N_17
REMARK                            x       y       z     vdW  Elec       q    Type
REMARK                         _______ _______ _______ _____ _____    ______ ____
ROOT
ATOM      1  O   UNL     1       5.615   3.814  16.206  0.00  0.00    +0.000 OA
ATOM      2  C   UNL     1       4.701   4.348  16.818  0.00  0.00    +0.000 C 
ATOM      3  N   UNL     1       4.918   5.584  17.352  0.00  0.00    +0.000 N 
ATOM      4  H   UNL     1       5.806   6.056  17.124  0.00  0.00    +0.000 HD
ENDROOT
BRANCH   3   5
ATOM      5  C   UNL     1       3.947   6.331  18.071  0.00  0.00    +0.000 A 
ATOM      6  C   UNL     1       3.445   5.890  19.305  0.00  0.00    +0.000 A 
ATOM      7  C   UNL     1       2.515   6.667  20.005  0.00  0.00    +0.000 A 
ATOM      8  C   UNL     1       2.037   7.878  19.461  0.00  0.00    +0.000 A 
ATOM      9  C   UNL     1       2.549   8.304  18.221  0.00  0.00    +0.000 A 
ATOM     10  C   UNL     1       3.513   7.553  17.551  0.00  0.00    +0.000 A 
BRANCH   8  11
ATOM     11  N   UNL     1       1.040   8.655  20.141  0.00  0.00    +0.000 N 
ATOM     12  C   UNL     1       0.539   9.921  19.633  0.00  0.00    +0.000 C 
ATOM     13  C   UNL     1       0.841  11.006  20.670  0.00  0.00    +0.000 C 
ATOM     14  O   UNL     1       0.291  10.654  21.933  0.00  0.00    +0.000 OA
ATOM     15  C   UNL     1       0.882   9.452  22.402  0.00  0.00    +0.000 C 
ATOM     16  C   UNL     1       0.554   8.284  21.458  0.00  0.00    +0.000 C 
ENDBRANCH   8  11
ENDBRANCH   3   5
BRANCH   2  17
ATOM     17  C   UNL     1       3.341   3.669  16.857  0.00  0.00    +0.000 C 
BRANCH  17  18
ATOM     18  S   UNL     1       3.465   2.005  17.617  0.00  0.00    +0.000 S 
BRANCH  18  19
ATOM     19  C   UNL     1       2.664   2.431  19.170  0.00  0.00    +0.000 A 
ATOM     20  C   UNL     1       1.304   2.760  19.158  0.00  0.00    +0.000 A 
ATOM     21  C   UNL     1       0.675   3.129  20.346  0.00  0.00    +0.000 A 
ATOM     22  C   UNL     1       1.406   3.164  21.534  0.00  0.00    +0.000 A 
ATOM     23  C   UNL     1       2.762   2.832  21.511  0.00  0.00    +0.000 A 
ATOM     24  N   UNL     1       3.368   2.475  20.342  0.00  0.00    +0.000 N 
ATOM     25  O   UNL     1       4.662   2.171  20.355  0.00  0.00    +0.000 OA
ENDBRANCH  18  19
ENDBRANCH  17  18
ENDBRANCH   2  17
TORSDOF 5
ENDMDL
MODEL 2
REMARK VINA RESULT:      -7.1      0.950      1.422
REMARK  Name = 
REMARK  5 active torsions:
REMARK  status: ('A' for Active; 'I' for Inactive)
REMARK    1  A    between atoms: C_2  and  C_3
REMARK    2  A    between atoms: C_3  and  S_4
REMARK    3  A    between atoms: S_4  and  C_5
REMARK    4  A    between atoms: N_12  and  C_13
REMARK    5  A    between atoms: C_16  and  N_17
REMARK                            x       y       z     vdW  Elec       q    Type
REMARK                         _______ _______ _______ _____ _____    ______ ____
ROOT
ATOM      1  O   UNL     1       5.310   5.196  16.333  0.00  0.00    +0.000 OA
ATOM      2  C   UNL     1       4.356   5.584  16.992  0.00  0.00    +0.000 C 
ATOM      3  N   UNL     1       4.344   6.882  17.408  0.00  0.00    +0.000 N 
ATOM      4  H   UNL     1       5.087   7.506  17.056  0.00  0.00    +0.000 HD
ENDROOT
BRANCH   3   5
ATOM      5  C   UNL     1       3.299   7.477  18.163  0.00  0.00    +0.000 A 
ATOM      6  C   UNL     1       2.575   8.577  17.678  0.00  0.00    +0.000 A 
ATOM      7  C   UNL     1       1.527   9.119  18.430  0.00  0.00    +0.000 A 
ATOM      8  C   UNL     1       1.214   8.597  19.703  0.00  0.00    +0.000 A 
ATOM      9  C   UNL     1       1.952   7.496  20.177  0.00  0.00    +0.000 A 
ATOM     10  C   UNL     1       2.961   6.927  19.401  0.00  0.00    +0.000 A 
BRANCH   8  11
ATOM     11  N   UNL     1       0.180   9.180  20.512  0.00  0.00    +0.000 N 
ATOM     12  C   UNL     1      -0.430  10.464  20.214  0.00  0.00    +0.000 C 
ATOM     13  C   UNL     1      -0.182  11.399  21.400  0.00  0.00    +0.000 C 
ATOM     14  O   UNL     1      -0.666  10.817  22.603  0.00  0.00    +0.000 OA
ATOM     15  C   UNL     1       0.028   9.608  22.871  0.00  0.00    +0.000 C 
ATOM     16  C   UNL     1      -0.237   8.575  21.764  0.00  0.00    +0.000 C 
ENDBRANCH   8  11
ENDBRANCH   3   5
BRANCH   2  17
ATOM     17  C   UNL     1       3.182   4.644  17.220  0.00  0.00    +0.000 C 
BRANCH  17  18
ATOM     18  S   UNL     1       3.769   2.975  17.705  0.00  0.00    +0.000 S 
BRANCH  18  19
ATOM     19  C   UNL     1       2.879   2.894  19.266  0.00  0.00    +0.000 A 
ATOM     20  C   UNL     1       1.539   3.297  19.300  0.00  0.00    +0.000 A 
ATOM     21  C   UNL     1       0.845   3.276  20.508  0.00  0.00    +0.000 A 
ATOM     22  C   UNL     1       1.490   2.852  21.669  0.00  0.00    +0.000 A 
ATOM     23  C   UNL     1       2.829   2.459  21.603  0.00  0.00    +0.000 A 
ATOM     24  N   UNL     1       3.499   2.485  20.415  0.00  0.00    +0.000 N 
ATOM     25  O   UNL     1       4.775   2.110  20.388  0.00  0.00    +0.000 OA
ENDBRANCH  18  19
ENDBRANCH  17  18
ENDBRANCH   2  17
TORSDOF 5
ENDMDL
MODEL 3
REMARK VINA RESULT:      -6.9      1.091      1.366
REMARK  Name = 
REMARK  5 active torsions:
REMARK  status: ('A' for Active; 'I' for Inactive)
REMARK    1  A    between atoms: C_2  and  C_3
REMARK    2  A    between atoms: C_3  and  S_4
REMARK    3  A    between atoms: S_4  and  C_5
REMARK    4  A    between atoms: N_12  and  C_13
REMARK    5  A    between atoms: C_16  and  N_17
REMARK                            x       y       z     vdW  Elec       q    Type
REMARK                         _______ _______ _______ _____ _____    ______ ____
ROOT
ATOM      1  O   UNL     1       5.712   3.781  16.289  0.00  0.00    +0.000 OA
ATOM      2  C   UNL     1       4.782   4.325  16.867  0.00  0.00    +0.000 C 
ATOM      3  N   UNL     1       4.970   5.586  17.350  0.00  0.00    +0.000 N 
ATOM      4  H   UNL     1       5.852   6.064  17.112  0.00  0.00    +0.000 HD
ENDROOT
BRANCH   3   5
ATOM      5  C   UNL     1       3.979   6.346  18.025  0.00  0.00    +0.000 A 
ATOM      6  C   UNL     1       3.425   5.918  19.242  0.00  0.00    +0.000 A 
ATOM      7  C   UNL     1       2.475   6.705  19.900  0.00  0.00    +0.000 A 
ATOM      8  C   UNL     1       2.028   7.917  19.330  0.00  0.00    +0.000 A 
ATOM      9  C   UNL     1       2.591   8.330  18.108  0.00  0.00    +0.000 A 
ATOM     10  C   UNL     1       3.575   7.567  17.481  0.00  0.00    +0.000 A 
BRANCH   8  11
ATOM     11  N   UNL     1       1.011   8.706  19.966  0.00  0.00    +0.000 N 
ATOM     12  C   UNL     1       0.516   9.955  19.413  0.00  0.00    +0.000 C 
ATOM     13  C   UNL     1       0.788  11.069  20.427  0.00  0.00    +0.000 C 
ATOM     14  O   UNL     1       0.211  10.748  21.686  0.00  0.00    +0.000 OA
ATOM     15  C   UNL     1       0.796   9.562  22.200  0.00  0.00    +0.000 C 
ATOM     16  C   UNL     1       0.497   8.368  21.281  0.00  0.00    +0.000 C 
ENDBRANCH   8  11
ENDBRANCH   3   5
BRANCH   2  17
ATOM     17  C   UNL     1       3.433   3.624  16.921  0.00  0.00    +0.000 C 
BRANCH  17  18
ATOM     18  S   UNL     1       3.575   2.003  17.768  0.00  0.00    +0.000 S 
BRANCH  18  19
ATOM     19  C   UNL     1       2.705   2.483  19.268  0.00  0.00    +0.000 A 
ATOM     20  C   UNL     1       3.397   2.460  20.484  0.00  0.00    +0.000 A 
ATOM     21  C   UNL     1       2.730   2.793  21.661  0.00  0.00    +0.000 A 
ATOM     22  C   UNL     1       1.382   3.150  21.615  0.00  0.00    +0.000 A 
ATOM     23  C   UNL     1       0.720   3.161  20.386  0.00  0.00    +0.000 A 
ATOM     24  N   UNL     1       1.382   2.831  19.240  0.00  0.00    +0.000 N 
ATOM     25  O   UNL     1       0.720   2.846  18.087  0.00  0.00    +0.000 OA
ENDBRANCH  18  19
ENDBRANCH  17  18
ENDBRANCH   2  17
TORSDOF 5
ENDMDL
MODEL 4
REMARK VINA RESULT:      -6.6      1.697      2.272
REMARK  Name = 
REMARK  5 active torsions:
REMARK  status: ('A' for Active; 'I' for Inactive)
REMARK    1  A    between atoms: C_2  and  C_3
REMARK    2  A    between atoms: C_3  and  S_4
REMARK    3  A    between atoms: S_4  and  C_5
REMARK    4  A    between atoms: N_12  and  C_13
REMARK    5  A    between atoms: C_16  and  N_17
REMARK                            x       y       z     vdW  Elec       q    Type
REMARK                         _______ _______ _______ _____ _____    ______ ____
ROOT
ATOM      1  O   UNL     1       5.432   6.042  16.311  0.00  0.00    +0.000 OA
ATOM      2  C   UNL     1       4.675   6.381  17.209  0.00  0.00    +0.000 C 
ATOM      3  N   UNL     1       3.851   7.445  16.992  0.00  0.00    +0.000 N 
ATOM      4  H   UNL     1       3.827   7.847  16.042  0.00  0.00    +0.000 HD
ENDROOT
BRANCH   3   5
ATOM      5  C   UNL     1       2.910   7.940  17.933  0.00  0.00    +0.000 A 
ATOM      6  C   UNL     1       2.174   9.110  17.691  0.00  0.00    +0.000 A 
ATOM      7  C   UNL     1       1.229   9.554  18.623  0.00  0.00    +0.000 A 
ATOM      8  C   UNL     1       1.036   8.859  19.835  0.00  0.00    +0.000 A 
ATOM      9  C   UNL     1       1.785   7.689  20.064  0.00  0.00    +0.000 A 
ATOM     10  C   UNL     1       2.688   7.222  19.110  0.00  0.00    +0.000 A 
BRANCH   8  11
ATOM     11  N   UNL     1       0.112   9.335  20.826  0.00  0.00    +0.000 N 
ATOM     12  C   UNL     1      -0.518  10.642  20.760  0.00  0.00    +0.000 C 
ATOM     13  C   UNL     1      -0.120  11.429  22.011  0.00  0.00    +0.000 C 
ATOM     14  O   UNL     1      -0.462  10.704  23.185  0.00  0.00    +0.000 OA
ATOM     15  C   UNL     1       0.249   9.475  23.220  0.00  0.00    +0.000 C 
ATOM     16  C   UNL     1      -0.157   8.582  22.038  0.00  0.00    +0.000 C 
ENDBRANCH   8  11
ENDBRANCH   3   5
BRANCH   2  17
ATOM     17  C   UNL     1       4.606   5.541  18.475  0.00  0.00    +0.000 C 
BRANCH  17  18
ATOM     18  S   UNL     1       4.377   3.767  18.068  0.00  0.00    +0.000 S 
BRANCH  18  19
ATOM     19  C   UNL     1       3.056   3.458  19.248  0.00  0.00    +0.000 A 
ATOM     20  C   UNL     1       3.392   3.091  20.556  0.00  0.00    +0.000 A 
ATOM     21  C   UNL     1       2.381   2.812  21.473  0.00  0.00    +0.000 A 
ATOM     22  C   UNL     1       1.046   2.905  21.081  0.00  0.00    +0.000 A 
ATOM     23  C   UNL     1       0.743   3.271  19.768  0.00  0.00    +0.000 A 
ATOM     24  N   UNL     1       1.741   3.540  18.878  0.00  0.00    +0.000 N 
ATOM     25  O   UNL     1       1.418   3.881  17.633  0.00  0.00    +0.000 OA
ENDBRANCH  18  19
ENDBRANCH  17  18
ENDBRANCH   2  17
TORSDOF 5
ENDMDL
MODEL 5
REMARK VINA RESULT:      -6.6      0.660      1.247
REMARK  Name = 
REMARK  5 active torsions:
REMARK  status: ('A' for Active; 'I' for Inactive)
REMARK    1  A    between atoms: C_2  and  C_3
REMARK    2  A    between atoms: C_3  and  S_4
REMARK    3  A    between atoms: S_4  and  C_5
REMARK    4  A    between atoms: N_12  and  C_13
REMARK    5  A    between atoms: C_16  and  N_17
REMARK                            x       y       z     vdW  Elec       q    Type
REMARK                         _______ _______ _______ _____ _____    ______ ____
ROOT
ATOM      1  O   UNL     1       5.285   3.587  15.793  0.00  0.00    +0.000 OA
ATOM      2  C   UNL     1       4.497   4.185  16.512  0.00  0.00    +0.000 C 
ATOM      3  N   UNL     1       4.803   5.460  16.886  0.00  0.00    +0.000 N 
ATOM      4  H   UNL     1       5.631   5.900  16.456  0.00  0.00    +0.000 HD
ENDROOT
BRANCH   3   5
ATOM      5  C   UNL     1       3.978   6.280  17.701  0.00  0.00    +0.000 A 
ATOM      6  C   UNL     1       3.581   5.876  18.985  0.00  0.00    +0.000 A 
ATOM      7  C   UNL     1       2.797   6.721  19.778  0.00  0.00    +0.000 A 
ATOM      8  C   UNL     1       2.358   7.967  19.283  0.00  0.00    +0.000 A 
ATOM      9  C   UNL     1       2.763   8.355  17.991  0.00  0.00    +0.000 A 
ATOM     10  C   UNL     1       3.586   7.532  17.224  0.00  0.00    +0.000 A 
BRANCH   8  11
ATOM     11  N   UNL     1       1.505   8.819  20.063  0.00  0.00    +0.000 N 
ATOM     12  C   UNL     1       1.093   8.500  21.419  0.00  0.00    +0.000 C 
ATOM     13  C   UNL     1      -0.435   8.409  21.446  0.00  0.00    +0.000 C 
ATOM     14  O   UNL     1      -1.014   9.610  20.954  0.00  0.00    +0.000 OA
ATOM     15  C   UNL     1      -0.632   9.816  19.603  0.00  0.00    +0.000 C 
ATOM     16  C   UNL     1       0.889  10.004  19.494  0.00  0.00    +0.000 C 
ENDBRANCH   8  11
ENDBRANCH   3   5
BRANCH   2  17
ATOM     17  C   UNL     1       3.171   3.528  16.863  0.00  0.00    +0.000 C 
BRANCH  17  18
ATOM     18  S   UNL     1       3.442   1.922  17.706  0.00  0.00    +0.000 S 
BRANCH  18  19
ATOM     19  C   UNL     1       2.664   2.378  19.263  0.00  0.00    +0.000 A 
ATOM     20  C   UNL     1       1.318   2.760  19.256  0.00  0.00    +0.000 A 
ATOM     21  C   UNL     1       0.709   3.152  20.447  0.00  0.00    +0.000 A 
ATOM     22  C   UNL     1       1.445   3.156  21.632  0.00  0.00    +0.000 A 
ATOM     23  C   UNL     1       2.787   2.771  21.604  0.00  0.00    +0.000 A 
ATOM     24  N   UNL     1       3.373   2.391  20.433  0.00  0.00    +0.000 N 
ATOM     25  O   UNL     1       4.655   2.036  20.440  0.00  0.00    +0.000 OA
ENDBRANCH  18  19
ENDBRANCH  17  18
ENDBRANCH   2  17
TORSDOF 5
ENDMDL
MODEL 6
REMARK VINA RESULT:      -6.5      2.015      4.202
REMARK  Name = 
REMARK  5 active torsions:
REMARK  status: ('A' for Active; 'I' for Inactive)
REMARK    1  A    between atoms: C_2  and  C_3
REMARK    2  A    between atoms: C_3  and  S_4
REMARK    3  A    between atoms: S_4  and  C_5
REMARK    4  A    between atoms: N_12  and  C_13
REMARK    5  A    between atoms: C_16  and  N_17
REMARK                            x       y       z     vdW  Elec       q    Type
REMARK                         _______ _______ _______ _____ _____    ______ ____
ROOT
ATOM      1  O   UNL     1       4.025   2.169  18.277  0.00  0.00    +0.000 OA
ATOM      2  C   UNL     1       3.626   3.324  18.240  0.00  0.00    +0.000 C 
ATOM      3  N   UNL     1       3.218   3.903  19.405  0.00  0.00    +0.000 N 
ATOM      4  H   UNL     1       3.365   3.377  20.280  0.00  0.00    +0.000 HD
ENDROOT
BRANCH   3   5
ATOM      5  C   UNL     1       2.748   5.238  19.519  0.00  0.00    +0.000 A 
ATOM      6  C   UNL     1       3.066   6.214  18.562  0.00  0.00    +0.000 A 
ATOM      7  C   UNL     1       2.560   7.513  18.684  0.00  0.00    +0.000 A 
ATOM      8  C   UNL     1       1.762   7.871  19.792  0.00  0.00    +0.000 A 
ATOM      9  C   UNL     1       1.455   6.881  20.744  0.00  0.00    +0.000 A 
ATOM     10  C   UNL     1       1.920   5.575  20.592  0.00  0.00    +0.000 A 
BRANCH   8  11
ATOM     11  N   UNL     1       1.284   9.214  19.960  0.00  0.00    +0.000 N 
ATOM     12  C   UNL     1       1.049   9.814  21.262  0.00  0.00    +0.000 C 
ATOM     13  C   UNL     1      -0.429  10.206  21.348  0.00  0.00    +0.000 C 
ATOM     14  O   UNL     1      -0.780  11.060  20.268  0.00  0.00    +0.000 OA
ATOM     15  C   UNL     1      -0.599  10.382  19.034  0.00  0.00    +0.000 C 
ATOM     16  C   UNL     1       0.881  10.025  18.826  0.00  0.00    +0.000 C 
ENDBRANCH   8  11
ENDBRANCH   3   5
BRANCH   2  17
ATOM     17  C   UNL     1       3.709   4.094  16.932  0.00  0.00    +0.000 C 
BRANCH  17  18
ATOM     18  S   UNL     1       5.295   3.757  16.076  0.00  0.00    +0.000 S 
BRANCH  18  19
ATOM     19  C   UNL     1       6.255   5.020  16.923  0.00  0.00    +0.000 A 
ATOM     20  C   UNL     1       7.083   4.638  17.985  0.00  0.00    +0.000 A 
ATOM     21  C   UNL     1       7.805   5.608  18.677  0.00  0.00    +0.000 A 
ATOM     22  C   UNL     1       7.699   6.948  18.303  0.00  0.00    +0.000 A 
ATOM     23  C   UNL     1       6.862   7.297  17.241  0.00  0.00    +0.000 A 
ATOM     24  N   UNL     1       6.158   6.339  16.572  0.00  0.00    +0.000 N 
ATOM     25  O   UNL     1       5.365   6.706  15.569  0.00  0.00    +0.000 OA
ENDBRANCH  18  19
ENDBRANCH  17  18
ENDBRANCH   2  17
TORSDOF 5
ENDMDL
MODEL 7
REMARK VINA RESULT:      -6.5      0.661      1.184
REMARK  Name = 
REMARK  5 active torsions:
REMARK  status: ('A' for Active; 'I' for Inactive)
REMARK    1  A    between atoms: C_2  and  C_3
REMARK    2  A    between atoms: C_3  and  S_4
REMARK    3  A    between atoms: S_4  and  C_5
REMARK    4  A    between atoms: N_12  and  C_13
REMARK    5  A    between atoms: C_16  and  N_17
REMARK                            x       y       z     vdW  Elec       q    Type
REMARK                         _______ _______ _______ _____ _____    ______ ____
ROOT
ATOM      1  O   UNL     1       6.133   4.345  16.132  0.00  0.00    +0.000 OA
ATOM      2  C   UNL     1       5.370   4.843  16.948  0.00  0.00    +0.000 C 
ATOM      3  N   UNL     1       4.798   6.043  16.649  0.00  0.00    +0.000 N 
ATOM      4  H   UNL     1       4.949   6.425  15.703  0.00  0.00    +0.000 HD
ENDROOT
BRANCH   3   5
ATOM      5  C   UNL     1       3.883   6.731  17.489  0.00  0.00    +0.000 A 
ATOM      6  C   UNL     1       3.340   7.973  17.125  0.00  0.00    +0.000 A 
ATOM      7  C   UNL     1       2.415   8.610  17.959  0.00  0.00    +0.000 A 
ATOM      8  C   UNL     1       2.048   8.035  19.194  0.00  0.00    +0.000 A 
ATOM      9  C   UNL     1       2.604   6.791  19.546  0.00  0.00    +0.000 A 
ATOM     10  C   UNL     1       3.487   6.136  18.689  0.00  0.00    +0.000 A 
BRANCH   8  11
ATOM     11  N   UNL     1       1.144   8.705  20.086  0.00  0.00    +0.000 N 
ATOM     12  C   UNL     1       0.518   9.978  19.773  0.00  0.00    +0.000 C 
ATOM     13  C   UNL     1       0.942  10.994  20.837  0.00  0.00    +0.000 C 
ATOM     14  O   UNL     1       0.617  10.518  22.136  0.00  0.00    +0.000 OA
ATOM     15  C   UNL     1       1.323   9.315  22.403  0.00  0.00    +0.000 C 
ATOM     16  C   UNL     1       0.893   8.209  21.428  0.00  0.00    +0.000 C 
ENDBRANCH   8  11
ENDBRANCH   3   5
BRANCH   2  17
ATOM     17  C   UNL     1       5.008   4.056  18.199  0.00  0.00    +0.000 C 
BRANCH  17  18
ATOM     18  S   UNL     1       3.945   2.621  17.781  0.00  0.00    +0.000 S 
BRANCH  18  19
ATOM     19  C   UNL     1       2.917   2.696  19.255  0.00  0.00    +0.000 A 
ATOM     20  C   UNL     1       1.586   3.107  19.128  0.00  0.00    +0.000 A 
ATOM     21  C   UNL     1       0.785   3.207  20.264  0.00  0.00    +0.000 A 
ATOM     22  C   UNL     1       1.317   2.893  21.514  0.00  0.00    +0.000 A 
ATOM     23  C   UNL     1       2.650   2.488  21.608  0.00  0.00    +0.000 A 
ATOM     24  N   UNL     1       3.425   2.396  20.490  0.00  0.00    +0.000 N 
ATOM     25  O   UNL     1       4.692   2.013  20.615  0.00  0.00    +0.000 OA
ENDBRANCH  18  19
ENDBRANCH  17  18
ENDBRANCH   2  17
TORSDOF 5
ENDMDL
MODEL 8
REMARK VINA RESULT:      -6.5      2.341      4.065
REMARK  Name = 
REMARK  5 active torsions:
REMARK  status: ('A' for Active; 'I' for Inactive)
REMARK    1  A    between atoms: C_2  and  C_3
REMARK    2  A    between atoms: C_3  and  S_4
REMARK    3  A    between atoms: S_4  and  C_5
REMARK    4  A    between atoms: N_12  and  C_13
REMARK    5  A    between atoms: C_16  and  N_17
REMARK                            x       y       z     vdW  Elec       q    Type
REMARK                         _______ _______ _______ _____ _____    ______ ____
ROOT
ATOM      1  O   UNL     1       3.153   1.432  18.193  0.00  0.00    +0.000 OA
ATOM      2  C   UNL     1       3.146   2.648  18.324  0.00  0.00    +0.000 C 
ATOM      3  N   UNL     1       2.060   3.228  18.910  0.00  0.00    +0.000 N 
ATOM      4  H   UNL     1       1.342   2.607  19.312  0.00  0.00    +0.000 HD
ENDROOT
BRANCH   3   5
ATOM      5  C   UNL     1       1.920   4.622  19.144  0.00  0.00    +0.000 A 
ATOM      6  C   UNL     1       1.701   5.133  20.432  0.00  0.00    +0.000 A 
ATOM      7  C   UNL     1       1.602   6.513  20.636  0.00  0.00    +0.000 A 
ATOM      8  C   UNL     1       1.675   7.406  19.546  0.00  0.00    +0.000 A 
ATOM      9  C   UNL     1       1.892   6.877  18.259  0.00  0.00    +0.000 A 
ATOM     10  C   UNL     1       2.041   5.505  18.068  0.00  0.00    +0.000 A 
BRANCH   8  11
ATOM     11  N   UNL     1       1.517   8.821  19.732  0.00  0.00    +0.000 N 
ATOM     12  C   UNL     1       1.175   9.420  21.011  0.00  0.00    +0.000 C 
ATOM     13  C   UNL     1      -0.147  10.174  20.848  0.00  0.00    +0.000 C 
ATOM     14  O   UNL     1      -0.051  11.124  19.795  0.00  0.00    +0.000 OA
ATOM     15  C   UNL     1       0.206  10.463  18.566  0.00  0.00    +0.000 C 
ATOM     16  C   UNL     1       1.564   9.745  18.613  0.00  0.00    +0.000 C 
ENDBRANCH   8  11
ENDBRANCH   3   5
BRANCH   2  17
ATOM     17  C   UNL     1       4.385   3.441  17.937  0.00  0.00    +0.000 C 
BRANCH  17  18
ATOM     18  S   UNL     1       5.355   3.901  19.424  0.00  0.00    +0.000 S 
BRANCH  18  19
ATOM     19  C   UNL     1       6.215   5.295  18.680  0.00  0.00    +0.000 A 
ATOM     20  C   UNL     1       5.682   5.876  17.524  0.00  0.00    +0.000 A 
ATOM     21  C   UNL     1       6.354   6.933  16.913  0.00  0.00    +0.000 A 
ATOM     22  C   UNL     1       7.548   7.402  17.460  0.00  0.00    +0.000 A 
ATOM     23  C   UNL     1       8.056   6.798  18.612  0.00  0.00    +0.000 A 
ATOM     24  N   UNL     1       7.390   5.763  19.201  0.00  0.00    +0.000 N 
ATOM     25  O   UNL     1       7.904   5.207  20.295  0.00  0.00    +0.000 OA
ENDBRANCH  18  19
ENDBRANCH  17  18
ENDBRANCH   2  17
TORSDOF 5
ENDMDL
MODEL 9
REMARK VINA RESULT:      -6.5      1.289      1.815
REMARK  Name = 
REMARK  5 active torsions:
REMARK  status: ('A' for Active; 'I' for Inactive)
REMARK    1  A    between atoms: C_2  and  C_3
REMARK    2  A    between atoms: C_3  and  S_4
REMARK    3  A    between atoms: S_4  and  C_5
REMARK    4  A    between atoms: N_12  and  C_13
REMARK    5  A    between atoms: C_16  and  N_17
REMARK                            x       y       z     vdW  Elec       q    Type
REMARK                         _______ _______ _______ _____ _____    ______ ____
ROOT
ATOM      1  O   UNL     1       6.115   4.648  16.201  0.00  0.00    +0.000 OA
ATOM      2  C   UNL     1       5.337   5.108  17.024  0.00  0.00    +0.000 C 
ATOM      3  N   UNL     1       4.716   6.287  16.735  0.00  0.00    +0.000 N 
ATOM      4  H   UNL     1       4.848   6.681  15.791  0.00  0.00    +0.000 HD
ENDROOT
BRANCH   3   5
ATOM      5  C   UNL     1       3.777   6.931  17.584  0.00  0.00    +0.000 A 
ATOM      6  C   UNL     1       3.196   8.161  17.239  0.00  0.00    +0.000 A 
ATOM      7  C   UNL     1       2.248   8.754  18.080  0.00  0.00    +0.000 A 
ATOM      8  C   UNL     1       1.898   8.148  19.305  0.00  0.00    +0.000 A 
ATOM      9  C   UNL     1       2.493   6.916  19.639  0.00  0.00    +0.000 A 
ATOM     10  C   UNL     1       3.398   6.304  18.773  0.00  0.00    +0.000 A 
BRANCH   8  11
ATOM     11  N   UNL     1       0.971   8.774  20.206  0.00  0.00    +0.000 N 
ATOM     12  C   UNL     1       0.315  10.038  19.917  0.00  0.00    +0.000 C 
ATOM     13  C   UNL     1       0.704  11.039  21.007  0.00  0.00    +0.000 C 
ATOM     14  O   UNL     1       0.384  10.525  22.293  0.00  0.00    +0.000 OA
ATOM     15  C   UNL     1       1.118   9.335  22.537  0.00  0.00    +0.000 C 
ATOM     16  C   UNL     1       0.724   8.241  21.533  0.00  0.00    +0.000 C 
ENDBRANCH   8  11
ENDBRANCH   3   5
BRANCH   2  17
ATOM     17  C   UNL     1       5.012   4.298  18.269  0.00  0.00    +0.000 C 
BRANCH  17  18
ATOM     18  S   UNL     1       4.055   2.794  17.838  0.00  0.00    +0.000 S 
BRANCH  18  19
ATOM     19  C   UNL     1       2.908   2.882  19.220  0.00  0.00    +0.000 A 
ATOM     20  C   UNL     1       3.374   2.569  20.503  0.00  0.00    +0.000 A 
ATOM     21  C   UNL     1       2.490   2.596  21.580  0.00  0.00    +0.000 A 
ATOM     22  C   UNL     1       1.154   2.937  21.371  0.00  0.00    +0.000 A 
ATOM     23  C   UNL     1       0.721   3.241  20.079  0.00  0.00    +0.000 A 
ATOM     24  N   UNL     1       1.594   3.210  19.031  0.00  0.00    +0.000 N 
ATOM     25  O   UNL     1       1.147   3.499  17.813  0.00  0.00    +0.000 OA
ENDBRANCH  18  19
ENDBRANCH  17  18
ENDBRANCH   2  17
TORSDOF 5
ENDMDL
