MODEL 1
REMARK VINA RESULT:      -8.0      0.000      0.000
REMARK  Name = 
REMARK  4 active torsions:
REMARK  status: ('A' for Active; 'I' for Inactive)
REMARK    1  A    between atoms: N_6  and  C_7
REMARK    2  A    between atoms: N_10  and  C_11
REMARK    3  A    between atoms: C_11  and  C_12
REMARK    4  A    between atoms: C_15  and  C_16
REMARK                            x       y       z     vdW  Elec       q    Type
REMARK                         _______ _______ _______ _____ _____    ______ ____
ROOT
ATOM      1  C   UNL     1       2.404   4.708  18.136  0.00  0.00    +0.000 C 
ATOM      2  C   UNL     1       2.875   3.876  16.940  0.00  0.00    +0.000 C 
ATOM      3  C   UNL     1       4.384   3.935  16.733  0.00  0.00    +0.000 C 
ATOM      4  N   UNL     1       4.847   5.328  16.611  0.00  0.00    +0.000 NA
ATOM      5  C   UNL     1       4.552   6.067  17.849  0.00  0.00    +0.000 C 
ATOM      6  C   UNL     1       3.052   6.095  18.136  0.00  0.00    +0.000 C 
ENDROOT
BRANCH   1  12
ATOM      7  O   UNL     1       1.653   5.686  20.816  0.00  0.00    +0.000 OA
ATOM      8  C   UNL     1       2.085   4.564  20.626  0.00  0.00    +0.000 C 
ATOM      9  N   UNL     1       2.300   3.615  21.624  0.00  0.00    +0.000 N 
ATOM     10  C   UNL     1       3.080   2.532  21.102  0.00  0.00    +0.000 C 
ATOM     11  C   UNL     1       2.785   2.589  19.609  0.00  0.00    +0.000 C 
ATOM     12  N   UNL     1       2.487   3.995  19.413  0.00  0.00    +0.000 N 
ATOM     13  H   UNL     1       2.284   3.922  22.586  0.00  0.00    +0.000 HD
ENDBRANCH   1  12
BRANCH   4  14
ATOM     14  C   UNL     1       6.293   5.337  16.305  0.00  0.00    +0.000 C 
BRANCH  14  15
ATOM     15  C   UNL     1       7.034   6.230  17.239  0.00  0.00    +0.000 A 
ATOM     16  C   UNL     1       7.650   5.938  18.434  0.00  0.00    +0.000 A 
ATOM     17  O   UNL     1       8.233   7.077  18.903  0.00  0.00    +0.000 OA
ATOM     18  C   UNL     1       7.937   8.021  17.954  0.00  0.00    +0.000 A 
ATOM     19  N   UNL     1       7.229   7.561  16.939  0.00  0.00    +0.000 NA
BRANCH  18  20
ATOM     20  C   UNL     1       8.379   9.388  18.207  0.00  0.00    +0.000 A 
ATOM     21  C   UNL     1       7.953  10.469  17.423  0.00  0.00    +0.000 A 
ATOM     22  C   UNL     1       8.473  11.749  17.636  0.00  0.00    +0.000 A 
ATOM     23  C   UNL     1       9.413  11.963  18.643  0.00  0.00    +0.000 A 
ATOM     24  C   UNL     1       9.818  10.907  19.454  0.00  0.00    +0.000 A 
ATOM     25  C   UNL     1       9.301   9.628  19.239  0.00  0.00    +0.000 A 
ENDBRANCH  18  20
ENDBRANCH  14  15
ENDBRANCH   4  14
TORSDOF 4
ENDMDL
MODEL 2
REMARK VINA RESULT:      -7.7      1.679      2.234
REMARK  Name = 
REMARK  4 active torsions:
REMARK  status: ('A' for Active; 'I' for Inactive)
REMARK    1  A    between atoms: N_6  and  C_7
REMARK    2  A    between atoms: N_10  and  C_11
REMARK    3  A    between atoms: C_11  and  C_12
REMARK    4  A    between atoms: C_15  and  C_16
REMARK                            x       y       z     vdW  Elec       q    Type
REMARK                         _______ _______ _______ _____ _____    ______ ____
ROOT
ATOM      1  C   UNL     1       3.824   4.330  17.152  0.00  0.00    +0.000 C 
ATOM      2  C   UNL     1       5.162   3.802  16.627  0.00  0.00    +0.000 C 
ATOM      3  C   UNL     1       6.349   4.246  17.473  0.00  0.00    +0.000 C 
ATOM      4  N   UNL     1       6.386   5.712  17.606  0.00  0.00    +0.000 NA
ATOM      5  C   UNL     1       5.170   6.186  18.286  0.00  0.00    +0.000 C 
ATOM      6  C   UNL     1       3.914   5.819  17.499  0.00  0.00    +0.000 C 
ENDROOT
BRANCH   1  12
ATOM      7  O   UNL     1       0.976   3.700  17.589  0.00  0.00    +0.000 OA
ATOM      8  C   UNL     1       1.861   3.255  18.297  0.00  0.00    +0.000 C 
ATOM      9  N   UNL     1       1.657   2.425  19.398  0.00  0.00    +0.000 N 
ATOM     10  C   UNL     1       2.864   2.335  20.166  0.00  0.00    +0.000 C 
ATOM     11  C   UNL     1       3.945   2.645  19.139  0.00  0.00    +0.000 C 
ATOM     12  N   UNL     1       3.236   3.492  18.200  0.00  0.00    +0.000 N 
ATOM     13  H   UNL     1       0.718   2.332  19.758  0.00  0.00    +0.000 HD
ENDBRANCH   1  12
BRANCH   4  14
ATOM     14  C   UNL     1       7.607   6.105  18.341  0.00  0.00    +0.000 C 
BRANCH  14  15
ATOM     15  C   UNL     1       7.898   7.555  18.164  0.00  0.00    +0.000 A 
ATOM     16  C   UNL     1       7.409   8.444  17.235  0.00  0.00    +0.000 A 
ATOM     17  O   UNL     1       7.937   9.672  17.500  0.00  0.00    +0.000 OA
ATOM     18  C   UNL     1       8.736   9.465  18.596  0.00  0.00    +0.000 A 
ATOM     19  N   UNL     1       8.739   8.219  19.032  0.00  0.00    +0.000 NA
BRANCH  18  20
ATOM     20  C   UNL     1       9.504  10.602  19.091  0.00  0.00    +0.000 A 
ATOM     21  C   UNL     1      10.282  11.404  18.246  0.00  0.00    +0.000 A 
ATOM     22  C   UNL     1      11.079  12.425  18.771  0.00  0.00    +0.000 A 
ATOM     23  C   UNL     1      11.094  12.664  20.144  0.00  0.00    +0.000 A 
ATOM     24  C   UNL     1      10.297  11.900  20.993  0.00  0.00    +0.000 A 
ATOM     25  C   UNL     1       9.505  10.878  20.468  0.00  0.00    +0.000 A 
ENDBRANCH  18  20
ENDBRANCH  14  15
ENDBRANCH   4  14
TORSDOF 4
ENDMDL
MODEL 3
REMARK VINA RESULT:      -7.7      1.496      2.165
REMARK  Name = 
REMARK  4 active torsions:
REMARK  status: ('A' for Active; 'I' for Inactive)
REMARK    1  A    between atoms: N_6  and  C_7
REMARK    2  A    between atoms: N_10  and  C_11
REMARK    3  A    between atoms: C_11  and  C_12
REMARK    4  A    between atoms: C_15  and  C_16
REMARK                            x       y       z     vdW  Elec       q    Type
REMARK                         _______ _______ _______ _____ _____    ______ ____
ROOT
ATOM      1  C   UNL     1       3.836   3.210  18.822  0.00  0.00    +0.000 C 
ATOM      2  C   UNL     1       5.080   3.922  19.363  0.00  0.00    +0.000 C 
ATOM      3  C   UNL     1       5.329   5.270  18.696  0.00  0.00    +0.000 C 
ATOM      4  N   UNL     1       5.406   5.130  17.232  0.00  0.00    +0.000 NA
ATOM      5  C   UNL     1       4.130   4.618  16.707  0.00  0.00    +0.000 C 
ATOM      6  C   UNL     1       3.798   3.247  17.292  0.00  0.00    +0.000 C 
ENDROOT
BRANCH   1  12
ATOM      7  O   UNL     1       1.291   1.730  18.999  0.00  0.00    +0.000 OA
ATOM      8  C   UNL     1       1.447   2.826  19.505  0.00  0.00    +0.000 C 
ATOM      9  N   UNL     1       0.464   3.528  20.201  0.00  0.00    +0.000 N 
ATOM     10  C   UNL     1       0.886   4.884  20.397  0.00  0.00    +0.000 C 
ATOM     11  C   UNL     1       2.404   4.781  20.334  0.00  0.00    +0.000 C 
ATOM     12  N   UNL     1       2.593   3.627  19.476  0.00  0.00    +0.000 N 
ATOM     13  H   UNL     1      -0.491   3.210  20.128  0.00  0.00    +0.000 HD
ENDBRANCH   1  12
BRANCH   4  14
ATOM     14  C   UNL     1       5.753   6.436  16.634  0.00  0.00    +0.000 C 
BRANCH  14  15
ATOM     15  C   UNL     1       6.832   7.112  17.409  0.00  0.00    +0.000 A 
ATOM     16  C   UNL     1       7.746   6.584  18.290  0.00  0.00    +0.000 A 
ATOM     17  O   UNL     1       8.559   7.590  18.716  0.00  0.00    +0.000 OA
ATOM     18  C   UNL     1       8.090   8.701  18.062  0.00  0.00    +0.000 A 
ATOM     19  N   UNL     1       7.064   8.463  17.266  0.00  0.00    +0.000 NA
BRANCH  18  20
ATOM     20  C   UNL     1       8.728   9.977  18.365  0.00  0.00    +0.000 A 
ATOM     21  C   UNL     1       9.675  10.116  19.388  0.00  0.00    +0.000 A 
ATOM     22  C   UNL     1      10.193  11.373  19.711  0.00  0.00    +0.000 A 
ATOM     23  C   UNL     1       9.781  12.502  19.004  0.00  0.00    +0.000 A 
ATOM     24  C   UNL     1       8.869  12.375  17.960  0.00  0.00    +0.000 A 
ATOM     25  C   UNL     1       8.349  11.120  17.641  0.00  0.00    +0.000 A 
ENDBRANCH  18  20
ENDBRANCH  14  15
ENDBRANCH   4  14
TORSDOF 4
ENDMDL
MODEL 4
REMARK VINA RESULT:      -7.6      3.665      6.915
REMARK  Name = 
REMARK  4 active torsions:
REMARK  status: ('A' for Active; 'I' for Inactive)
REMARK    1  A    between atoms: N_6  and  C_7
REMARK    2  A    between atoms: N_10  and  C_11
REMARK    3  A    between atoms: C_11  and  C_12
REMARK    4  A    between atoms: C_15  and  C_16
REMARK                            x       y       z     vdW  Elec       q    Type
REMARK                         _______ _______ _______ _____ _____    ______ ____
ROOT
ATOM      1  C   UNL     1       6.600   5.849  15.546  0.00  0.00    +0.000 C 
ATOM      2  C   UNL     1       7.318   5.246  16.758  0.00  0.00    +0.000 C 
ATOM      3  C   UNL     1       6.416   4.346  17.594  0.00  0.00    +0.000 C 
ATOM      4  N   UNL     1       5.198   5.060  18.014  0.00  0.00    +0.000 NA
ATOM      5  C   UNL     1       4.422   5.470  16.832  0.00  0.00    +0.000 C 
ATOM      6  C   UNL     1       5.229   6.406  15.936  0.00  0.00    +0.000 C 
ENDROOT
BRANCH   1  12
ATOM      7  O   UNL     1       8.469   5.849  13.264  0.00  0.00    +0.000 OA
ATOM      8  C   UNL     1       7.547   5.059  13.356  0.00  0.00    +0.000 C 
ATOM      9  N   UNL     1       7.241   4.083  12.409  0.00  0.00    +0.000 N 
ATOM     10  C   UNL     1       5.943   3.536  12.681  0.00  0.00    +0.000 C 
ATOM     11  C   UNL     1       5.773   3.791  14.173  0.00  0.00    +0.000 C 
ATOM     12  N   UNL     1       6.593   4.970  14.374  0.00  0.00    +0.000 N 
ATOM     13  H   UNL     1       7.678   4.143  11.501  0.00  0.00    +0.000 HD
ENDBRANCH   1  12
BRANCH   4  14
ATOM     14  C   UNL     1       4.406   4.189  18.908  0.00  0.00    +0.000 C 
BRANCH  14  15
ATOM     15  C   UNL     1       3.309   4.952  19.568  0.00  0.00    +0.000 A 
ATOM     16  C   UNL     1       2.299   4.509  20.388  0.00  0.00    +0.000 A 
ATOM     17  O   UNL     1       1.563   5.587  20.780  0.00  0.00    +0.000 OA
ATOM     18  C   UNL     1       2.173   6.651  20.165  0.00  0.00    +0.000 A 
ATOM     19  N   UNL     1       3.223   6.322  19.437  0.00  0.00    +0.000 NA
BRANCH  18  20
ATOM     20  C   UNL     1       1.567   7.966  20.343  0.00  0.00    +0.000 A 
ATOM     21  C   UNL     1       0.971   8.357  21.549  0.00  0.00    +0.000 A 
ATOM     22  C   UNL     1       0.316   9.588  21.651  0.00  0.00    +0.000 A 
ATOM     23  C   UNL     1       0.262  10.445  20.553  0.00  0.00    +0.000 A 
ATOM     24  C   UNL     1       0.882  10.085  19.358  0.00  0.00    +0.000 A 
ATOM     25  C   UNL     1       1.532   8.855  19.256  0.00  0.00    +0.000 A 
ENDBRANCH  18  20
ENDBRANCH  14  15
ENDBRANCH   4  14
TORSDOF 4
ENDMDL
MODEL 5
REMARK VINA RESULT:      -7.5      1.690      2.170
REMARK  Name = 
REMARK  4 active torsions:
REMARK  status: ('A' for Active; 'I' for Inactive)
REMARK    1  A    between atoms: N_6  and  C_7
REMARK    2  A    between atoms: N_10  and  C_11
REMARK    3  A    between atoms: C_11  and  C_12
REMARK    4  A    between atoms: C_15  and  C_16
REMARK                            x       y       z     vdW  Elec       q    Type
REMARK                         _______ _______ _______ _____ _____    ______ ____
ROOT
ATOM      1  C   UNL     1       3.289   4.554  17.648  0.00  0.00    +0.000 C 
ATOM      2  C   UNL     1       4.438   3.548  17.527  0.00  0.00    +0.000 C 
ATOM      3  C   UNL     1       5.709   4.012  18.230  0.00  0.00    +0.000 C 
ATOM      4  N   UNL     1       6.127   5.339  17.746  0.00  0.00    +0.000 NA
ATOM      5  C   UNL     1       5.083   6.334  18.041  0.00  0.00    +0.000 C 
ATOM      6  C   UNL     1       3.767   5.978  17.354  0.00  0.00    +0.000 C 
ENDROOT
BRANCH   1  12
ATOM      7  O   UNL     1       0.892   2.898  18.108  0.00  0.00    +0.000 OA
ATOM      8  C   UNL     1       1.395   3.579  18.983  0.00  0.00    +0.000 C 
ATOM      9  N   UNL     1       0.910   3.685  20.285  0.00  0.00    +0.000 N 
ATOM     10  C   UNL     1       1.553   4.779  20.953  0.00  0.00    +0.000 C 
ATOM     11  C   UNL     1       2.868   4.913  20.197  0.00  0.00    +0.000 C 
ATOM     12  N   UNL     1       2.514   4.411  18.883  0.00  0.00    +0.000 N 
ATOM     13  H   UNL     1      -0.018   3.337  20.479  0.00  0.00    +0.000 HD
ENDBRANCH   1  12
BRANCH   4  14
ATOM     14  C   UNL     1       7.415   5.702  18.372  0.00  0.00    +0.000 C 
BRANCH  14  15
ATOM     15  C   UNL     1       7.765   7.124  18.097  0.00  0.00    +0.000 A 
ATOM     16  C   UNL     1       7.392   7.936  17.051  0.00  0.00    +0.000 A 
ATOM     17  O   UNL     1       7.929   9.171  17.257  0.00  0.00    +0.000 OA
ATOM     18  C   UNL     1       8.614   9.047  18.439  0.00  0.00    +0.000 A 
ATOM     19  N   UNL     1       8.539   7.845  18.981  0.00  0.00    +0.000 NA
BRANCH  18  20
ATOM     20  C   UNL     1       9.364  10.208  18.905  0.00  0.00    +0.000 A 
ATOM     21  C   UNL     1       9.433  10.559  20.259  0.00  0.00    +0.000 A 
ATOM     22  C   UNL     1      10.081  11.732  20.657  0.00  0.00    +0.000 A 
ATOM     23  C   UNL     1      10.679  12.557  19.706  0.00  0.00    +0.000 A 
ATOM     24  C   UNL     1      10.652  12.202  18.359  0.00  0.00    +0.000 A 
ATOM     25  C   UNL     1      10.001  11.033  17.963  0.00  0.00    +0.000 A 
ENDBRANCH  18  20
ENDBRANCH  14  15
ENDBRANCH   4  14
TORSDOF 4
ENDMDL
MODEL 6
REMARK VINA RESULT:      -7.4      1.915      2.654
REMARK  Name = 
REMARK  4 active torsions:
REMARK  status: ('A' for Active; 'I' for Inactive)
REMARK    1  A    between atoms: N_6  and  C_7
REMARK    2  A    between atoms: N_10  and  C_11
REMARK    3  A    between atoms: C_11  and  C_12
REMARK    4  A    between atoms: C_15  and  C_16
REMARK                            x       y       z     vdW  Elec       q    Type
REMARK                         _______ _______ _______ _____ _____    ______ ____
ROOT
ATOM      1  C   UNL     1       3.994   4.537  17.283  0.00  0.00    +0.000 C 
ATOM      2  C   UNL     1       5.282   4.143  16.553  0.00  0.00    +0.000 C 
ATOM      3  C   UNL     1       6.541   4.509  17.330  0.00  0.00    +0.000 C 
ATOM      4  N   UNL     1       6.555   5.942  17.670  0.00  0.00    +0.000 NA
ATOM      5  C   UNL     1       5.406   6.266  18.532  0.00  0.00    +0.000 C 
ATOM      6  C   UNL     1       4.083   5.964  17.831  0.00  0.00    +0.000 C 
ENDROOT
BRANCH   1  12
ATOM      7  O   UNL     1       2.104   2.314  16.850  0.00  0.00    +0.000 OA
ATOM      8  C   UNL     1       2.646   2.514  17.922  0.00  0.00    +0.000 C 
ATOM      9  N   UNL     1       2.438   1.754  19.072  0.00  0.00    +0.000 N 
ATOM     10  C   UNL     1       2.992   2.432  20.207  0.00  0.00    +0.000 C 
ATOM     11  C   UNL     1       4.067   3.314  19.585  0.00  0.00    +0.000 C 
ATOM     12  N   UNL     1       3.542   3.536  18.252  0.00  0.00    +0.000 N 
ATOM     13  H   UNL     1       1.655   1.116  19.087  0.00  0.00    +0.000 HD
ENDBRANCH   1  12
BRANCH   4  14
ATOM     14  C   UNL     1       7.836   6.275  18.327  0.00  0.00    +0.000 C 
BRANCH  14  15
ATOM     15  C   UNL     1       8.117   7.736  18.248  0.00  0.00    +0.000 A 
ATOM     16  C   UNL     1       7.648   8.676  17.360  0.00  0.00    +0.000 A 
ATOM     17  O   UNL     1       8.154   9.890  17.718  0.00  0.00    +0.000 OA
ATOM     18  C   UNL     1       8.919   9.623  18.824  0.00  0.00    +0.000 A 
ATOM     19  N   UNL     1       8.922   8.352  19.183  0.00  0.00    +0.000 NA
BRANCH  18  20
ATOM     20  C   UNL     1       9.658  10.734  19.414  0.00  0.00    +0.000 A 
ATOM     21  C   UNL     1       9.354  11.243  20.684  0.00  0.00    +0.000 A 
ATOM     22  C   UNL     1      10.020  12.370  21.174  0.00  0.00    +0.000 A 
ATOM     23  C   UNL     1      11.005  12.990  20.407  0.00  0.00    +0.000 A 
ATOM     24  C   UNL     1      11.343  12.474  19.159  0.00  0.00    +0.000 A 
ATOM     25  C   UNL     1      10.676  11.351  18.668  0.00  0.00    +0.000 A 
ENDBRANCH  18  20
ENDBRANCH  14  15
ENDBRANCH   4  14
TORSDOF 4
ENDMDL
MODEL 7
REMARK VINA RESULT:      -7.3      4.837      7.402
REMARK  Name = 
REMARK  4 active torsions:
REMARK  status: ('A' for Active; 'I' for Inactive)
REMARK    1  A    between atoms: N_6  and  C_7
REMARK    2  A    between atoms: N_10  and  C_11
REMARK    3  A    between atoms: C_11  and  C_12
REMARK    4  A    between atoms: C_15  and  C_16
REMARK                            x       y       z     vdW  Elec       q    Type
REMARK                         _______ _______ _______ _____ _____    ______ ____
ROOT
ATOM      1  C   UNL     1       3.752   4.640  19.849  0.00  0.00    +0.000 C 
ATOM      2  C   UNL     1       2.537   5.485  20.244  0.00  0.00    +0.000 C 
ATOM      3  C   UNL     1       2.076   6.418  19.130  0.00  0.00    +0.000 C 
ATOM      4  N   UNL     1       3.180   7.278  18.669  0.00  0.00    +0.000 NA
ATOM      5  C   UNL     1       4.265   6.451  18.118  0.00  0.00    +0.000 C 
ATOM      6  C   UNL     1       4.824   5.494  19.169  0.00  0.00    +0.000 C 
ENDROOT
BRANCH   1  12
ATOM      7  O   UNL     1       4.929   1.953  20.159  0.00  0.00    +0.000 OA
ATOM      8  C   UNL     1       4.026   2.186  19.377  0.00  0.00    +0.000 C 
ATOM      9  N   UNL     1       3.451   1.245  18.524  0.00  0.00    +0.000 N 
ATOM     10  C   UNL     1       2.640   1.910  17.546  0.00  0.00    +0.000 C 
ATOM     11  C   UNL     1       2.273   3.215  18.240  0.00  0.00    +0.000 C 
ATOM     12  N   UNL     1       3.401   3.412  19.131  0.00  0.00    +0.000 N 
ATOM     13  H   UNL     1       3.925   0.362  18.397  0.00  0.00    +0.000 HD
ENDBRANCH   1  12
BRANCH   4  14
ATOM     14  C   UNL     1       2.666   8.236  17.669  0.00  0.00    +0.000 C 
BRANCH  14  15
ATOM     15  C   UNL     1       1.546   9.046  18.225  0.00  0.00    +0.000 A 
ATOM     16  C   UNL     1       1.435   9.676  19.443  0.00  0.00    +0.000 A 
ATOM     17  O   UNL     1       0.239  10.327  19.479  0.00  0.00    +0.000 OA
ATOM     18  C   UNL     1      -0.329  10.055  18.261  0.00  0.00    +0.000 A 
ATOM     19  N   UNL     1       0.416   9.299  17.476  0.00  0.00    +0.000 NA
BRANCH  18  20
ATOM     20  C   UNL     1      -1.671  10.572  18.016  0.00  0.00    +0.000 A 
ATOM     21  C   UNL     1      -2.278  11.508  18.864  0.00  0.00    +0.000 A 
ATOM     22  C   UNL     1      -3.600  11.907  18.650  0.00  0.00    +0.000 A 
ATOM     23  C   UNL     1      -4.324  11.385  17.578  0.00  0.00    +0.000 A 
ATOM     24  C   UNL     1      -3.722  10.483  16.705  0.00  0.00    +0.000 A 
ATOM     25  C   UNL     1      -2.403  10.082  16.922  0.00  0.00    +0.000 A 
ENDBRANCH  18  20
ENDBRANCH  14  15
ENDBRANCH   4  14
TORSDOF 4
ENDMDL
MODEL 8
REMARK VINA RESULT:      -7.3      5.372      8.082
REMARK  Name = 
REMARK  4 active torsions:
REMARK  status: ('A' for Active; 'I' for Inactive)
REMARK    1  A    between atoms: N_6  and  C_7
REMARK    2  A    between atoms: N_10  and  C_11
REMARK    3  A    between atoms: C_11  and  C_12
REMARK    4  A    between atoms: C_15  and  C_16
REMARK                            x       y       z     vdW  Elec       q    Type
REMARK                         _______ _______ _______ _____ _____    ______ ____
ROOT
ATOM      1  C   UNL     1       2.599   5.252  18.673  0.00  0.00    +0.000 C 
ATOM      2  C   UNL     1       2.221   6.481  17.840  0.00  0.00    +0.000 C 
ATOM      3  C   UNL     1       2.295   7.780  18.633  0.00  0.00    +0.000 C 
ATOM      4  N   UNL     1       1.471   7.705  19.851  0.00  0.00    +0.000 NA
ATOM      5  C   UNL     1       1.969   6.634  20.730  0.00  0.00    +0.000 C 
ATOM      6  C   UNL     1       1.908   5.274  20.039  0.00  0.00    +0.000 C 
ENDROOT
BRANCH   1  12
ATOM      7  O   UNL     1       3.981   2.707  19.233  0.00  0.00    +0.000 OA
ATOM      8  C   UNL     1       4.581   3.737  18.985  0.00  0.00    +0.000 C 
ATOM      9  N   UNL     1       5.969   3.861  18.954  0.00  0.00    +0.000 N 
ATOM     10  C   UNL     1       6.331   5.248  18.928  0.00  0.00    +0.000 C 
ATOM     11  C   UNL     1       5.099   5.909  18.323  0.00  0.00    +0.000 C 
ATOM     12  N   UNL     1       4.042   5.000  18.721  0.00  0.00    +0.000 N 
ATOM     13  H   UNL     1       6.524   3.112  19.343  0.00  0.00    +0.000 HD
ENDBRANCH   1  12
BRANCH   4  14
ATOM     14  C   UNL     1       1.486   9.016  20.532  0.00  0.00    +0.000 C 
BRANCH  14  15
ATOM     15  C   UNL     1       0.683  10.021  19.780  0.00  0.00    +0.000 A 
ATOM     16  C   UNL     1       1.004  11.306  19.410  0.00  0.00    +0.000 A 
ATOM     17  O   UNL     1      -0.039  11.819  18.699  0.00  0.00    +0.000 OA
ATOM     18  C   UNL     1      -0.959  10.802  18.671  0.00  0.00    +0.000 A 
ATOM     19  N   UNL     1      -0.570   9.707  19.297  0.00  0.00    +0.000 NA
BRANCH  18  20
ATOM     20  C   UNL     1      -2.238  11.072  18.022  0.00  0.00    +0.000 A 
ATOM     21  C   UNL     1      -3.295  11.705  18.688  0.00  0.00    +0.000 A 
ATOM     22  C   UNL     1      -4.536  11.860  18.064  0.00  0.00    +0.000 A 
ATOM     23  C   UNL     1      -4.728  11.395  16.764  0.00  0.00    +0.000 A 
ATOM     24  C   UNL     1      -3.675  10.797  16.076  0.00  0.00    +0.000 A 
ATOM     25  C   UNL     1      -2.438  10.640  16.701  0.00  0.00    +0.000 A 
ENDBRANCH  18  20
ENDBRANCH  14  15
ENDBRANCH   4  14
TORSDOF 4
ENDMDL
MODEL 9
REMARK VINA RESULT:      -7.3      3.231      4.910
REMARK  Name = 
REMARK  4 active torsions:
REMARK  status: ('A' for Active; 'I' for Inactive)
REMARK    1  A    between atoms: N_6  and  C_7
REMARK    2  A    between atoms: N_10  and  C_11
REMARK    3  A    between atoms: C_11  and  C_12
REMARK    4  A    between atoms: C_15  and  C_16
REMARK                            x       y       z     vdW  Elec       q    Type
REMARK                         _______ _______ _______ _____ _____    ______ ____
ROOT
ATOM      1  C   UNL     1       1.675   4.295  19.790  0.00  0.00    +0.000 C 
ATOM      2  C   UNL     1       1.604   4.408  18.264  0.00  0.00    +0.000 C 
ATOM      3  C   UNL     1       2.690   5.308  17.685  0.00  0.00    +0.000 C 
ATOM      4  N   UNL     1       2.658   6.643  18.307  0.00  0.00    +0.000 NA
ATOM      5  C   UNL     1       2.916   6.531  19.751  0.00  0.00    +0.000 C 
ATOM      6  C   UNL     1       1.860   5.669  20.439  0.00  0.00    +0.000 C 
ENDROOT
BRANCH   1  12
ATOM      7  O   UNL     1       1.592   2.779  22.319  0.00  0.00    +0.000 OA
ATOM      8  C   UNL     1       2.456   2.604  21.478  0.00  0.00    +0.000 C 
ATOM      9  N   UNL     1       3.511   1.702  21.600  0.00  0.00    +0.000 N 
ATOM     10  C   UNL     1       4.489   1.962  20.583  0.00  0.00    +0.000 C 
ATOM     11  C   UNL     1       3.673   2.644  19.493  0.00  0.00    +0.000 C 
ATOM     12  N   UNL     1       2.609   3.267  20.257  0.00  0.00    +0.000 N 
ATOM     13  H   UNL     1       3.695   1.300  22.508  0.00  0.00    +0.000 HD
ENDBRANCH   1  12
BRANCH   4  14
ATOM     14  C   UNL     1       3.651   7.513  17.644  0.00  0.00    +0.000 C 
BRANCH  14  15
ATOM     15  C   UNL     1       4.761   6.712  17.055  0.00  0.00    +0.000 A 
ATOM     16  C   UNL     1       5.900   6.218  17.646  0.00  0.00    +0.000 A 
ATOM     17  O   UNL     1       6.594   5.510  16.711  0.00  0.00    +0.000 OA
ATOM     18  C   UNL     1       5.828   5.611  15.577  0.00  0.00    +0.000 A 
ATOM     19  N   UNL     1       4.722   6.313  15.736  0.00  0.00    +0.000 NA
BRANCH  18  20
ATOM     20  C   UNL     1       6.348   4.997  14.360  0.00  0.00    +0.000 A 
ATOM     21  C   UNL     1       7.498   5.471  13.716  0.00  0.00    +0.000 A 
ATOM     22  C   UNL     1       7.911   4.918  12.501  0.00  0.00    +0.000 A 
ATOM     23  C   UNL     1       7.184   3.877  11.924  0.00  0.00    +0.000 A 
ATOM     24  C   UNL     1       6.060   3.370  12.571  0.00  0.00    +0.000 A 
ATOM     25  C   UNL     1       5.647   3.926  13.783  0.00  0.00    +0.000 A 
ENDBRANCH  18  20
ENDBRANCH  14  15
ENDBRANCH   4  14
TORSDOF 4
ENDMDL
