MODEL 1
REMARK VINA RESULT:      -8.6      0.000      0.000
REMARK  Name = 
REMARK  11 active torsions:
REMARK  status: ('A' for Active; 'I' for Inactive)
REMARK    1  A    between atoms: C_1  and  C_2
REMARK    2  A    between atoms: N_4  and  C_5
REMARK    3  A    between atoms: C_5  and  C_6
REMARK    4  A    between atoms: C_5  and  C_17
REMARK    5  A    between atoms: C_6  and  O_7
REMARK    6  A    between atoms: O_7  and  C_8
REMARK    7  A    between atoms: C_8  and  C_9
REMARK    8  A    between atoms: C_11  and  C_12
REMARK    9  A    between atoms: C_14  and  C_15
REMARK   10  A    between atoms: C_17  and  C_18
REMARK   11  A    between atoms: C_17  and  C_24
REMARK                            x       y       z     vdW  Elec       q    Type
REMARK                         _______ _______ _______ _____ _____    ______ ____
ROOT
ATOM      1  C   UNL     1       4.284   5.683  18.226  0.00  0.00    +0.000 C 
ENDROOT
BRANCH   1   5
ATOM      2  C   UNL     1       7.614   7.429  17.636  0.00  0.00    +0.000 C 
ATOM      3  C   UNL     1       6.225   6.942  17.330  0.00  0.00    +0.000 C 
ATOM      4  O   UNL     1       5.643   7.227  16.288  0.00  0.00    +0.000 OA
ATOM      5  N   UNL     1       5.643   6.227  18.354  0.00  0.00    +0.000 N 
ATOM      6  H   UNL     1       6.229   5.844  19.087  0.00  0.00    +0.000 HD
ENDBRANCH   1   5
BRANCH   1   7
ATOM      7  C   UNL     1       4.309   4.201  17.739  0.00  0.00    +0.000 C 
BRANCH   7   8
ATOM      8  O   UNL     1       4.422   3.979  16.317  0.00  0.00    +0.000 OA
BRANCH   8   9
ATOM      9  C   UNL     1       5.803   3.736  15.974  0.00  0.00    +0.000 C 
BRANCH   9  10
ATOM     10  C   UNL     1       6.200   3.982  14.528  0.00  0.00    +0.000 A 
ATOM     11  C   UNL     1       7.158   4.931  14.155  0.00  0.00    +0.000 A 
ATOM     12  C   UNL     1       7.595   5.053  12.824  0.00  0.00    +0.000 A 
ATOM     13  C   UNL     1       8.642   6.054  12.428  0.00  0.00    +0.000 C 
ATOM     14  C   UNL     1       7.044   4.221  11.844  0.00  0.00    +0.000 A 
ATOM     15  C   UNL     1       6.092   3.257  12.185  0.00  0.00    +0.000 A 
ATOM     16  C   UNL     1       5.479   2.394  11.120  0.00  0.00    +0.000 C 
ATOM     17  C   UNL     1       5.682   3.143  13.523  0.00  0.00    +0.000 A 
ENDBRANCH   9  10
ENDBRANCH   8   9
ENDBRANCH   7   8
ENDBRANCH   1   7
BRANCH   1  18
ATOM     18  C   UNL     1       3.357   5.994  19.461  0.00  0.00    +0.000 C 
BRANCH  18  19
ATOM     19  C   UNL     1       2.511   7.247  19.234  0.00  0.00    +0.000 A 
ATOM     20  C   UNL     1       2.448   7.878  17.981  0.00  0.00    +0.000 A 
ATOM     21  C   UNL     1       1.740   9.068  17.819  0.00  0.00    +0.000 A 
ATOM     22  C   UNL     1       1.074   9.636  18.901  0.00  0.00    +0.000 A 
ATOM     23  C   UNL     1       1.076   8.988  20.133  0.00  0.00    +0.000 A 
ATOM     24  C   UNL     1       1.792   7.803  20.301  0.00  0.00    +0.000 A 
ENDBRANCH  18  19
BRANCH  18  25
ATOM     25  C   UNL     1       2.513   4.813  20.005  0.00  0.00    +0.000 A 
ATOM     26  C   UNL     1       1.409   4.265  19.334  0.00  0.00    +0.000 A 
ATOM     27  C   UNL     1       0.651   3.235  19.906  0.00  0.00    +0.000 A 
ATOM     28  C   UNL     1       0.988   2.717  21.155  0.00  0.00    +0.000 A 
ATOM     29  C   UNL     1       2.095   3.220  21.823  0.00  0.00    +0.000 A 
ATOM     30  C   UNL     1       2.856   4.246  21.250  0.00  0.00    +0.000 A 
ENDBRANCH  18  25
ENDBRANCH   1  18
TORSDOF 8
ENDMDL
MODEL 2
REMARK VINA RESULT:      -8.4      0.235      1.838
REMARK  Name = 
REMARK  11 active torsions:
REMARK  status: ('A' for Active; 'I' for Inactive)
REMARK    1  A    between atoms: C_1  and  C_2
REMARK    2  A    between atoms: N_4  and  C_5
REMARK    3  A    between atoms: C_5  and  C_6
REMARK    4  A    between atoms: C_5  and  C_17
REMARK    5  A    between atoms: C_6  and  O_7
REMARK    6  A    between atoms: O_7  and  C_8
REMARK    7  A    between atoms: C_8  and  C_9
REMARK    8  A    between atoms: C_11  and  C_12
REMARK    9  A    between atoms: C_14  and  C_15
REMARK   10  A    between atoms: C_17  and  C_18
REMARK   11  A    between atoms: C_17  and  C_24
REMARK                            x       y       z     vdW  Elec       q    Type
REMARK                         _______ _______ _______ _____ _____    ______ ____
ROOT
ATOM      1  C   UNL     1       4.444   5.607  18.276  0.00  0.00    +0.000 C 
ENDROOT
BRANCH   1   5
ATOM      2  C   UNL     1       7.580   7.649  17.585  0.00  0.00    +0.000 C 
ATOM      3  C   UNL     1       6.254   6.999  17.307  0.00  0.00    +0.000 C 
ATOM      4  O   UNL     1       5.659   7.149  16.244  0.00  0.00    +0.000 OA
ATOM      5  N   UNL     1       5.737   6.298  18.374  0.00  0.00    +0.000 N 
ATOM      6  H   UNL     1       6.351   6.030  19.136  0.00  0.00    +0.000 HD
ENDBRANCH   1   5
BRANCH   1   7
ATOM      7  C   UNL     1       4.632   4.100  17.916  0.00  0.00    +0.000 C 
BRANCH   7   8
ATOM      8  O   UNL     1       4.736   3.770  16.514  0.00  0.00    +0.000 OA
BRANCH   8   9
ATOM      9  C   UNL     1       6.123   3.790  16.114  0.00  0.00    +0.000 C 
BRANCH   9  10
ATOM     10  C   UNL     1       6.401   3.908  14.625  0.00  0.00    +0.000 A 
ATOM     11  C   UNL     1       5.669   3.210  13.659  0.00  0.00    +0.000 A 
ATOM     12  C   UNL     1       5.864   3.431  12.284  0.00  0.00    +0.000 A 
ATOM     13  C   UNL     1       5.060   2.700  11.247  0.00  0.00    +0.000 C 
ATOM     14  C   UNL     1       6.828   4.355  11.870  0.00  0.00    +0.000 A 
ATOM     15  C   UNL     1       7.570   5.076  12.809  0.00  0.00    +0.000 A 
ATOM     16  C   UNL     1       8.629   6.039  12.356  0.00  0.00    +0.000 C 
ATOM     17  C   UNL     1       7.347   4.850  14.178  0.00  0.00    +0.000 A 
ENDBRANCH   9  10
ENDBRANCH   8   9
ENDBRANCH   7   8
ENDBRANCH   1   7
BRANCH   1  18
ATOM     18  C   UNL     1       3.466   5.919  19.470  0.00  0.00    +0.000 C 
BRANCH  18  19
ATOM     19  C   UNL     1       2.670   7.203  19.231  0.00  0.00    +0.000 A 
ATOM     20  C   UNL     1       1.902   7.795  20.247  0.00  0.00    +0.000 A 
ATOM     21  C   UNL     1       1.116   8.916  19.982  0.00  0.00    +0.000 A 
ATOM     22  C   UNL     1       1.097   9.467  18.704  0.00  0.00    +0.000 A 
ATOM     23  C   UNL     1       1.902   8.928  17.705  0.00  0.00    +0.000 A 
ATOM     24  C   UNL     1       2.681   7.801  17.963  0.00  0.00    +0.000 A 
ENDBRANCH  18  19
BRANCH  18  25
ATOM     25  C   UNL     1       2.560   4.754  19.944  0.00  0.00    +0.000 A 
ATOM     26  C   UNL     1       1.516   4.212  19.178  0.00  0.00    +0.000 A 
ATOM     27  C   UNL     1       0.696   3.196  19.686  0.00  0.00    +0.000 A 
ATOM     28  C   UNL     1       0.909   2.686  20.965  0.00  0.00    +0.000 A 
ATOM     29  C   UNL     1       1.955   3.183  21.729  0.00  0.00    +0.000 A 
ATOM     30  C   UNL     1       2.779   4.194  21.220  0.00  0.00    +0.000 A 
ENDBRANCH  18  25
ENDBRANCH   1  18
TORSDOF 8
ENDMDL
MODEL 3
REMARK VINA RESULT:      -8.2      0.889      1.322
REMARK  Name = 
REMARK  11 active torsions:
REMARK  status: ('A' for Active; 'I' for Inactive)
REMARK    1  A    between atoms: C_1  and  C_2
REMARK    2  A    between atoms: N_4  and  C_5
REMARK    3  A    between atoms: C_5  and  C_6
REMARK    4  A    between atoms: C_5  and  C_17
REMARK    5  A    between atoms: C_6  and  O_7
REMARK    6  A    between atoms: O_7  and  C_8
REMARK    7  A    between atoms: C_8  and  C_9
REMARK    8  A    between atoms: C_11  and  C_12
REMARK    9  A    between atoms: C_14  and  C_15
REMARK   10  A    between atoms: C_17  and  C_18
REMARK   11  A    between atoms: C_17  and  C_24
REMARK                            x       y       z     vdW  Elec       q    Type
REMARK                         _______ _______ _______ _____ _____    ______ ____
ROOT
ATOM      1  C   UNL     1       4.171   5.818  18.175  0.00  0.00    +0.000 C 
ENDROOT
BRANCH   1   5
ATOM      2  C   UNL     1       7.873   6.119  19.006  0.00  0.00    +0.000 C 
ATOM      3  C   UNL     1       6.496   5.519  18.989  0.00  0.00    +0.000 C 
ATOM      4  O   UNL     1       6.250   4.424  19.487  0.00  0.00    +0.000 OA
ATOM      5  N   UNL     1       5.566   6.264  18.297  0.00  0.00    +0.000 N 
ATOM      6  H   UNL     1       5.762   7.238  18.096  0.00  0.00    +0.000 HD
ENDBRANCH   1   5
BRANCH   1   7
ATOM      7  C   UNL     1       4.087   4.370  17.600  0.00  0.00    +0.000 C 
BRANCH   7   8
ATOM      8  O   UNL     1       4.272   4.218  16.176  0.00  0.00    +0.000 OA
BRANCH   8   9
ATOM      9  C   UNL     1       5.634   3.826  15.905  0.00  0.00    +0.000 C 
BRANCH   9  10
ATOM     10  C   UNL     1       6.128   4.018  14.481  0.00  0.00    +0.000 A 
ATOM     11  C   UNL     1       7.087   4.976  14.133  0.00  0.00    +0.000 A 
ATOM     12  C   UNL     1       7.617   5.051  12.833  0.00  0.00    +0.000 A 
ATOM     13  C   UNL     1       8.665   6.062  12.466  0.00  0.00    +0.000 C 
ATOM     14  C   UNL     1       7.159   4.161  11.856  0.00  0.00    +0.000 A 
ATOM     15  C   UNL     1       6.209   3.186  12.172  0.00  0.00    +0.000 A 
ATOM     16  C   UNL     1       5.696   2.259  11.108  0.00  0.00    +0.000 C 
ATOM     17  C   UNL     1       5.705   3.120  13.482  0.00  0.00    +0.000 A 
ENDBRANCH   9  10
ENDBRANCH   8   9
ENDBRANCH   7   8
ENDBRANCH   1   7
BRANCH   1  18
ATOM     18  C   UNL     1       3.298   6.112  19.452  0.00  0.00    +0.000 C 
BRANCH  18  19
ATOM     19  C   UNL     1       2.419   7.350  19.266  0.00  0.00    +0.000 A 
ATOM     20  C   UNL     1       2.274   7.970  18.015  0.00  0.00    +0.000 A 
ATOM     21  C   UNL     1       1.538   9.148  17.887  0.00  0.00    +0.000 A 
ATOM     22  C   UNL     1       0.928   9.713  19.003  0.00  0.00    +0.000 A 
ATOM     23  C   UNL     1       1.012   9.074  20.237  0.00  0.00    +0.000 A 
ATOM     24  C   UNL     1       1.755   7.903  20.371  0.00  0.00    +0.000 A 
ENDBRANCH  18  19
BRANCH  18  25
ATOM     25  C   UNL     1       2.500   4.915  20.033  0.00  0.00    +0.000 A 
ATOM     26  C   UNL     1       2.732   4.363  21.302  0.00  0.00    +0.000 A 
ATOM     27  C   UNL     1       2.015   3.245  21.748  0.00  0.00    +0.000 A 
ATOM     28  C   UNL     1       1.039   2.662  20.942  0.00  0.00    +0.000 A 
ATOM     29  C   UNL     1       0.769   3.210  19.696  0.00  0.00    +0.000 A 
ATOM     30  C   UNL     1       1.481   4.331  19.253  0.00  0.00    +0.000 A 
ENDBRANCH  18  25
ENDBRANCH   1  18
TORSDOF 8
ENDMDL
MODEL 4
REMARK VINA RESULT:      -8.1      2.821      6.764
REMARK  Name = 
REMARK  11 active torsions:
REMARK  status: ('A' for Active; 'I' for Inactive)
REMARK    1  A    between atoms: C_1  and  C_2
REMARK    2  A    between atoms: N_4  and  C_5
REMARK    3  A    between atoms: C_5  and  C_6
REMARK    4  A    between atoms: C_5  and  C_17
REMARK    5  A    between atoms: C_6  and  O_7
REMARK    6  A    between atoms: O_7  and  C_8
REMARK    7  A    between atoms: C_8  and  C_9
REMARK    8  A    between atoms: C_11  and  C_12
REMARK    9  A    between atoms: C_14  and  C_15
REMARK   10  A    between atoms: C_17  and  C_18
REMARK   11  A    between atoms: C_17  and  C_24
REMARK                            x       y       z     vdW  Elec       q    Type
REMARK                         _______ _______ _______ _____ _____    ______ ____
ROOT
ATOM      1  C   UNL     1       5.571   5.938  17.167  0.00  0.00    +0.000 C 
ENDROOT
BRANCH   1   5
ATOM      2  C   UNL     1       6.938   4.885  13.775  0.00  0.00    +0.000 C 
ATOM      3  C   UNL     1       6.479   4.733  15.198  0.00  0.00    +0.000 C 
ATOM      4  O   UNL     1       6.416   3.641  15.755  0.00  0.00    +0.000 OA
ATOM      5  N   UNL     1       6.060   5.908  15.782  0.00  0.00    +0.000 N 
ATOM      6  H   UNL     1       6.328   6.793  15.365  0.00  0.00    +0.000 HD
ENDBRANCH   1   5
BRANCH   1   7
ATOM      7  C   UNL     1       6.138   7.170  17.942  0.00  0.00    +0.000 C 
BRANCH   7   8
ATOM      8  O   UNL     1       7.025   8.048  17.217  0.00  0.00    +0.000 OA
BRANCH   8   9
ATOM      9  C   UNL     1       8.208   8.297  18.005  0.00  0.00    +0.000 C 
BRANCH   9  10
ATOM     10  C   UNL     1       8.586   9.752  18.227  0.00  0.00    +0.000 A 
ATOM     11  C   UNL     1       8.002  10.804  17.513  0.00  0.00    +0.000 A 
ATOM     12  C   UNL     1       8.279  12.148  17.822  0.00  0.00    +0.000 A 
ATOM     13  C   UNL     1       7.633  13.278  17.073  0.00  0.00    +0.000 C 
ATOM     14  C   UNL     1       9.176  12.441  18.854  0.00  0.00    +0.000 A 
ATOM     15  C   UNL     1       9.769  11.414  19.593  0.00  0.00    +0.000 A 
ATOM     16  C   UNL     1      10.760  11.738  20.674  0.00  0.00    +0.000 C 
ATOM     17  C   UNL     1       9.466  10.080  19.276  0.00  0.00    +0.000 A 
ENDBRANCH   9  10
ENDBRANCH   8   9
ENDBRANCH   7   8
ENDBRANCH   1   7
BRANCH   1  18
ATOM     18  C   UNL     1       4.023   5.686  17.300  0.00  0.00    +0.000 C 
BRANCH  18  19
ATOM     19  C   UNL     1       3.720   4.283  17.826  0.00  0.00    +0.000 A 
ATOM     20  C   UNL     1       4.533   3.665  18.791  0.00  0.00    +0.000 A 
ATOM     21  C   UNL     1       4.287   2.352  19.192  0.00  0.00    +0.000 A 
ATOM     22  C   UNL     1       3.220   1.645  18.647  0.00  0.00    +0.000 A 
ATOM     23  C   UNL     1       2.369   2.266  17.737  0.00  0.00    +0.000 A 
ATOM     24  C   UNL     1       2.618   3.575  17.325  0.00  0.00    +0.000 A 
ENDBRANCH  18  19
BRANCH  18  25
ATOM     25  C   UNL     1       3.206   6.774  18.043  0.00  0.00    +0.000 A 
ATOM     26  C   UNL     1       2.809   6.674  19.386  0.00  0.00    +0.000 A 
ATOM     27  C   UNL     1       2.023   7.668  19.984  0.00  0.00    +0.000 A 
ATOM     28  C   UNL     1       1.629   8.792  19.260  0.00  0.00    +0.000 A 
ATOM     29  C   UNL     1       2.036   8.928  17.941  0.00  0.00    +0.000 A 
ATOM     30  C   UNL     1       2.826   7.939  17.344  0.00  0.00    +0.000 A 
ENDBRANCH  18  25
ENDBRANCH   1  18
TORSDOF 8
ENDMDL
MODEL 5
REMARK VINA RESULT:      -8.1      0.502      1.883
REMARK  Name = 
REMARK  11 active torsions:
REMARK  status: ('A' for Active; 'I' for Inactive)
REMARK    1  A    between atoms: C_1  and  C_2
REMARK    2  A    between atoms: N_4  and  C_5
REMARK    3  A    between atoms: C_5  and  C_6
REMARK    4  A    between atoms: C_5  and  C_17
REMARK    5  A    between atoms: C_6  and  O_7
REMARK    6  A    between atoms: O_7  and  C_8
REMARK    7  A    between atoms: C_8  and  C_9
REMARK    8  A    between atoms: C_11  and  C_12
REMARK    9  A    between atoms: C_14  and  C_15
REMARK   10  A    between atoms: C_17  and  C_18
REMARK   11  A    between atoms: C_17  and  C_24
REMARK                            x       y       z     vdW  Elec       q    Type
REMARK                         _______ _______ _______ _____ _____    ______ ____
ROOT
ATOM      1  C   UNL     1       4.296   5.894  18.327  0.00  0.00    +0.000 C 
ENDROOT
BRANCH   1   5
ATOM      2  C   UNL     1       8.041   6.511  18.610  0.00  0.00    +0.000 C 
ATOM      3  C   UNL     1       6.656   6.603  18.035  0.00  0.00    +0.000 C 
ATOM      4  O   UNL     1       6.394   7.302  17.060  0.00  0.00    +0.000 OA
ATOM      5  N   UNL     1       5.704   5.905  18.746  0.00  0.00    +0.000 N 
ATOM      6  H   UNL     1       6.000   5.188  19.399  0.00  0.00    +0.000 HD
ENDBRANCH   1   5
BRANCH   1   7
ATOM      7  C   UNL     1       3.993   4.683  17.390  0.00  0.00    +0.000 C 
BRANCH   7   8
ATOM      8  O   UNL     1       4.444   4.784  16.022  0.00  0.00    +0.000 OA
BRANCH   8   9
ATOM      9  C   UNL     1       5.621   3.967  15.841  0.00  0.00    +0.000 C 
BRANCH   9  10
ATOM     10  C   UNL     1       6.226   3.943  14.447  0.00  0.00    +0.000 A 
ATOM     11  C   UNL     1       5.832   3.027  13.466  0.00  0.00    +0.000 A 
ATOM     12  C   UNL     1       6.317   3.104  12.148  0.00  0.00    +0.000 A 
ATOM     13  C   UNL     1       5.875   2.136  11.088  0.00  0.00    +0.000 C 
ATOM     14  C   UNL     1       7.232   4.107  11.814  0.00  0.00    +0.000 A 
ATOM     15  C   UNL     1       7.639   5.043  12.768  0.00  0.00    +0.000 A 
ATOM     16  C   UNL     1       8.650   6.094  12.410  0.00  0.00    +0.000 C 
ATOM     17  C   UNL     1       7.129   4.956  14.074  0.00  0.00    +0.000 A 
ENDBRANCH   9  10
ENDBRANCH   8   9
ENDBRANCH   7   8
ENDBRANCH   1   7
BRANCH   1  18
ATOM     18  C   UNL     1       3.281   6.132  19.506  0.00  0.00    +0.000 C 
BRANCH  18  19
ATOM     19  C   UNL     1       2.414   7.370  19.269  0.00  0.00    +0.000 A 
ATOM     20  C   UNL     1       2.343   7.990  18.011  0.00  0.00    +0.000 A 
ATOM     21  C   UNL     1       1.616   9.167  17.839  0.00  0.00    +0.000 A 
ATOM     22  C   UNL     1       0.939   9.732  18.916  0.00  0.00    +0.000 A 
ATOM     23  C   UNL     1       0.951   9.094  20.153  0.00  0.00    +0.000 A 
ATOM     24  C   UNL     1       1.685   7.922  20.331  0.00  0.00    +0.000 A 
ENDBRANCH  18  19
BRANCH  18  25
ATOM     25  C   UNL     1       2.437   4.909  19.949  0.00  0.00    +0.000 A 
ATOM     26  C   UNL     1       2.483   4.351  21.236  0.00  0.00    +0.000 A 
ATOM     27  C   UNL     1       1.737   3.208  21.558  0.00  0.00    +0.000 A 
ATOM     28  C   UNL     1       0.917   2.607  20.605  0.00  0.00    +0.000 A 
ATOM     29  C   UNL     1       0.830   3.159  19.336  0.00  0.00    +0.000 A 
ATOM     30  C   UNL     1       1.570   4.303  19.015  0.00  0.00    +0.000 A 
ENDBRANCH  18  25
ENDBRANCH   1  18
TORSDOF 8
ENDMDL
MODEL 6
REMARK VINA RESULT:      -8.0      0.753      1.217
REMARK  Name = 
REMARK  11 active torsions:
REMARK  status: ('A' for Active; 'I' for Inactive)
REMARK    1  A    between atoms: C_1  and  C_2
REMARK    2  A    between atoms: N_4  and  C_5
REMARK    3  A    between atoms: C_5  and  C_6
REMARK    4  A    between atoms: C_5  and  C_17
REMARK    5  A    between atoms: C_6  and  O_7
REMARK    6  A    between atoms: O_7  and  C_8
REMARK    7  A    between atoms: C_8  and  C_9
REMARK    8  A    between atoms: C_11  and  C_12
REMARK    9  A    between atoms: C_14  and  C_15
REMARK   10  A    between atoms: C_17  and  C_18
REMARK   11  A    between atoms: C_17  and  C_24
REMARK                            x       y       z     vdW  Elec       q    Type
REMARK                         _______ _______ _______ _____ _____    ______ ____
ROOT
ATOM      1  C   UNL     1       4.444   6.125  17.973  0.00  0.00    +0.000 C 
ENDROOT
BRANCH   1   5
ATOM      2  C   UNL     1       8.173   6.565  18.590  0.00  0.00    +0.000 C 
ATOM      3  C   UNL     1       6.836   6.783  17.940  0.00  0.00    +0.000 C 
ATOM      4  O   UNL     1       6.662   7.616  17.056  0.00  0.00    +0.000 OA
ATOM      5  N   UNL     1       5.818   6.029  18.484  0.00  0.00    +0.000 N 
ATOM      6  H   UNL     1       6.048   5.220  19.050  0.00  0.00    +0.000 HD
ENDBRANCH   1   5
BRANCH   1   7
ATOM      7  C   UNL     1       4.209   5.138  16.787  0.00  0.00    +0.000 C 
BRANCH   7   8
ATOM      8  O   UNL     1       4.768   3.813  16.916  0.00  0.00    +0.000 OA
BRANCH   8   9
ATOM      9  C   UNL     1       6.134   3.817  16.448  0.00  0.00    +0.000 C 
BRANCH   9  10
ATOM     10  C   UNL     1       6.346   4.098  14.970  0.00  0.00    +0.000 A 
ATOM     11  C   UNL     1       7.346   4.955  14.497  0.00  0.00    +0.000 A 
ATOM     12  C   UNL     1       7.601   5.102  13.121  0.00  0.00    +0.000 A 
ATOM     13  C   UNL     1       8.692   6.002  12.615  0.00  0.00    +0.000 C 
ATOM     14  C   UNL     1       6.822   4.393  12.202  0.00  0.00    +0.000 A 
ATOM     15  C   UNL     1       5.821   3.522  12.642  0.00  0.00    +0.000 A 
ATOM     16  C   UNL     1       4.966   2.793  11.646  0.00  0.00    +0.000 C 
ATOM     17  C   UNL     1       5.595   3.379  14.021  0.00  0.00    +0.000 A 
ENDBRANCH   9  10
ENDBRANCH   8   9
ENDBRANCH   7   8
ENDBRANCH   1   7
BRANCH   1  18
ATOM     18  C   UNL     1       3.346   6.128  19.102  0.00  0.00    +0.000 C 
BRANCH  18  19
ATOM     19  C   UNL     1       2.514   7.411  19.081  0.00  0.00    +0.000 A 
ATOM     20  C   UNL     1       1.800   7.846  20.209  0.00  0.00    +0.000 A 
ATOM     21  C   UNL     1       0.978   8.971  20.140  0.00  0.00    +0.000 A 
ATOM     22  C   UNL     1       0.871   9.683  18.950  0.00  0.00    +0.000 A 
ATOM     23  C   UNL     1       1.622   9.300  17.842  0.00  0.00    +0.000 A 
ATOM     24  C   UNL     1       2.436   8.170  17.904  0.00  0.00    +0.000 A 
ENDBRANCH  18  19
BRANCH  18  25
ATOM     25  C   UNL     1       2.458   4.861  19.206  0.00  0.00    +0.000 A 
ATOM     26  C   UNL     1       1.624   4.403  18.174  0.00  0.00    +0.000 A 
ATOM     27  C   UNL     1       0.802   3.282  18.351  0.00  0.00    +0.000 A 
ATOM     28  C   UNL     1       0.806   2.584  19.557  0.00  0.00    +0.000 A 
ATOM     29  C   UNL     1       1.646   2.998  20.580  0.00  0.00    +0.000 A 
ATOM     30  C   UNL     1       2.472   4.114  20.402  0.00  0.00    +0.000 A 
ENDBRANCH  18  25
ENDBRANCH   1  18
TORSDOF 8
ENDMDL
MODEL 7
REMARK VINA RESULT:      -7.9      2.776      6.621
REMARK  Name = 
REMARK  11 active torsions:
REMARK  status: ('A' for Active; 'I' for Inactive)
REMARK    1  A    between atoms: C_1  and  C_2
REMARK    2  A    between atoms: N_4  and  C_5
REMARK    3  A    between atoms: C_5  and  C_6
REMARK    4  A    between atoms: C_5  and  C_17
REMARK    5  A    between atoms: C_6  and  O_7
REMARK    6  A    between atoms: O_7  and  C_8
REMARK    7  A    between atoms: C_8  and  C_9
REMARK    8  A    between atoms: C_11  and  C_12
REMARK    9  A    between atoms: C_14  and  C_15
REMARK   10  A    between atoms: C_17  and  C_18
REMARK   11  A    between atoms: C_17  and  C_24
REMARK                            x       y       z     vdW  Elec       q    Type
REMARK                         _______ _______ _______ _____ _____    ______ ____
ROOT
ATOM      1  C   UNL     1       5.570   6.007  17.641  0.00  0.00    +0.000 C 
ENDROOT
BRANCH   1   5
ATOM      2  C   UNL     1       6.970   4.657  14.370  0.00  0.00    +0.000 C 
ATOM      3  C   UNL     1       6.085   5.467  15.275  0.00  0.00    +0.000 C 
ATOM      4  O   UNL     1       5.264   6.271  14.844  0.00  0.00    +0.000 OA
ATOM      5  N   UNL     1       6.338   5.286  16.618  0.00  0.00    +0.000 N 
ATOM      6  H   UNL     1       6.863   4.472  16.918  0.00  0.00    +0.000 HD
ENDBRANCH   1   5
BRANCH   1   7
ATOM      7  C   UNL     1       6.025   7.496  17.749  0.00  0.00    +0.000 C 
BRANCH   7   8
ATOM      8  O   UNL     1       7.309   7.831  17.180  0.00  0.00    +0.000 OA
BRANCH   8   9
ATOM      9  C   UNL     1       8.231   8.174  18.236  0.00  0.00    +0.000 C 
BRANCH   9  10
ATOM     10  C   UNL     1       8.622   9.638  18.351  0.00  0.00    +0.000 A 
ATOM     11  C   UNL     1       8.013  10.647  17.597  0.00  0.00    +0.000 A 
ATOM     12  C   UNL     1       8.306  12.006  17.810  0.00  0.00    +0.000 A 
ATOM     13  C   UNL     1       7.634  13.090  17.019  0.00  0.00    +0.000 C 
ATOM     14  C   UNL     1       9.246  12.358  18.785  0.00  0.00    +0.000 A 
ATOM     15  C   UNL     1       9.866  11.375  19.562  0.00  0.00    +0.000 A 
ATOM     16  C   UNL     1      10.900  11.760  20.579  0.00  0.00    +0.000 C 
ATOM     17  C   UNL     1       9.545  10.025  19.341  0.00  0.00    +0.000 A 
ENDBRANCH   9  10
ENDBRANCH   8   9
ENDBRANCH   7   8
ENDBRANCH   1   7
BRANCH   1  18
ATOM     18  C   UNL     1       4.017   5.759  17.560  0.00  0.00    +0.000 C 
BRANCH  18  19
ATOM     19  C   UNL     1       3.640   4.356  18.037  0.00  0.00    +0.000 A 
ATOM     20  C   UNL     1       4.388   3.685  19.018  0.00  0.00    +0.000 A 
ATOM     21  C   UNL     1       4.078   2.373  19.374  0.00  0.00    +0.000 A 
ATOM     22  C   UNL     1       3.010   1.720  18.766  0.00  0.00    +0.000 A 
ATOM     23  C   UNL     1       2.222   2.395  17.838  0.00  0.00    +0.000 A 
ATOM     24  C   UNL     1       2.536   3.703  17.472  0.00  0.00    +0.000 A 
ENDBRANCH  18  19
BRANCH  18  25
ATOM     25  C   UNL     1       3.110   6.849  18.188  0.00  0.00    +0.000 A 
ATOM     26  C   UNL     1       2.692   8.005  17.510  0.00  0.00    +0.000 A 
ATOM     27  C   UNL     1       1.918   8.982  18.152  0.00  0.00    +0.000 A 
ATOM     28  C   UNL     1       1.530   8.817  19.481  0.00  0.00    +0.000 A 
ATOM     29  C   UNL     1       1.904   7.667  20.161  0.00  0.00    +0.000 A 
ATOM     30  C   UNL     1       2.672   6.689  19.519  0.00  0.00    +0.000 A 
ENDBRANCH  18  25
ENDBRANCH   1  18
TORSDOF 8
ENDMDL
MODEL 8
REMARK VINA RESULT:      -7.9      0.867      1.836
REMARK  Name = 
REMARK  11 active torsions:
REMARK  status: ('A' for Active; 'I' for Inactive)
REMARK    1  A    between atoms: C_1  and  C_2
REMARK    2  A    between atoms: N_4  and  C_5
REMARK    3  A    between atoms: C_5  and  C_6
REMARK    4  A    between atoms: C_5  and  C_17
REMARK    5  A    between atoms: C_6  and  O_7
REMARK    6  A    between atoms: O_7  and  C_8
REMARK    7  A    between atoms: C_8  and  C_9
REMARK    8  A    between atoms: C_11  and  C_12
REMARK    9  A    between atoms: C_14  and  C_15
REMARK   10  A    between atoms: C_17  and  C_18
REMARK   11  A    between atoms: C_17  and  C_24
REMARK                            x       y       z     vdW  Elec       q    Type
REMARK                         _______ _______ _______ _____ _____    ______ ____
ROOT
ATOM      1  C   UNL     1       4.548   6.304  17.950  0.00  0.00    +0.000 C 
ENDROOT
BRANCH   1   5
ATOM      2  C   UNL     1       8.270   6.760  18.600  0.00  0.00    +0.000 C 
ATOM      3  C   UNL     1       6.950   6.923  17.900  0.00  0.00    +0.000 C 
ATOM      4  O   UNL     1       6.808   7.658  16.927  0.00  0.00    +0.000 OA
ATOM      5  N   UNL     1       5.909   6.247  18.499  0.00  0.00    +0.000 N 
ATOM      6  H   UNL     1       6.115   5.501  19.155  0.00  0.00    +0.000 HD
ENDBRANCH   1   5
BRANCH   1   7
ATOM      7  C   UNL     1       4.408   5.400  16.684  0.00  0.00    +0.000 C 
BRANCH   7   8
ATOM      8  O   UNL     1       4.807   4.019  16.818  0.00  0.00    +0.000 OA
BRANCH   8   9
ATOM      9  C   UNL     1       6.174   3.867  16.382  0.00  0.00    +0.000 C 
BRANCH   9  10
ATOM     10  C   UNL     1       6.428   3.970  14.887  0.00  0.00    +0.000 A 
ATOM     11  C   UNL     1       5.662   3.284  13.939  0.00  0.00    +0.000 A 
ATOM     12  C   UNL     1       5.838   3.492  12.559  0.00  0.00    +0.000 A 
ATOM     13  C   UNL     1       4.998   2.775  11.541  0.00  0.00    +0.000 C 
ATOM     14  C   UNL     1       6.817   4.390  12.122  0.00  0.00    +0.000 A 
ATOM     15  C   UNL     1       7.593   5.099  13.044  0.00  0.00    +0.000 A 
ATOM     16  C   UNL     1       8.666   6.033  12.565  0.00  0.00    +0.000 C 
ATOM     17  C   UNL     1       7.389   4.886  14.417  0.00  0.00    +0.000 A 
ENDBRANCH   9  10
ENDBRANCH   8   9
ENDBRANCH   7   8
ENDBRANCH   1   7
BRANCH   1  18
ATOM     18  C   UNL     1       3.419   6.157  19.037  0.00  0.00    +0.000 C 
BRANCH  18  19
ATOM     19  C   UNL     1       2.480   7.364  19.046  0.00  0.00    +0.000 A 
ATOM     20  C   UNL     1       2.278   8.151  17.901  0.00  0.00    +0.000 A 
ATOM     21  C   UNL     1       1.486   9.297  17.956  0.00  0.00    +0.000 A 
ATOM     22  C   UNL     1       0.874   9.664  19.151  0.00  0.00    +0.000 A 
ATOM     23  C   UNL     1       1.015   8.859  20.278  0.00  0.00    +0.000 A 
ATOM     24  C   UNL     1       1.815   7.718  20.229  0.00  0.00    +0.000 A 
ENDBRANCH  18  19
BRANCH  18  25
ATOM     25  C   UNL     1       2.640   4.816  19.048  0.00  0.00    +0.000 A 
ATOM     26  C   UNL     1       1.569   4.525  18.189  0.00  0.00    +0.000 A 
ATOM     27  C   UNL     1       0.869   3.315  18.287  0.00  0.00    +0.000 A 
ATOM     28  C   UNL     1       1.234   2.361  19.235  0.00  0.00    +0.000 A 
ATOM     29  C   UNL     1       2.310   2.612  20.074  0.00  0.00    +0.000 A 
ATOM     30  C   UNL     1       3.013   3.818  19.972  0.00  0.00    +0.000 A 
ENDBRANCH  18  25
ENDBRANCH   1  18
TORSDOF 8
ENDMDL
MODEL 9
REMARK VINA RESULT:      -7.8      0.975      2.111
REMARK  Name = 
REMARK  11 active torsions:
REMARK  status: ('A' for Active; 'I' for Inactive)
REMARK    1  A    between atoms: C_1  and  C_2
REMARK    2  A    between atoms: N_4  and  C_5
REMARK    3  A    between atoms: C_5  and  C_6
REMARK    4  A    between atoms: C_5  and  C_17
REMARK    5  A    between atoms: C_6  and  O_7
REMARK    6  A    between atoms: O_7  and  C_8
REMARK    7  A    between atoms: C_8  and  C_9
REMARK    8  A    between atoms: C_11  and  C_12
REMARK    9  A    between atoms: C_14  and  C_15
REMARK   10  A    between atoms: C_17  and  C_18
REMARK   11  A    between atoms: C_17  and  C_24
REMARK                            x       y       z     vdW  Elec       q    Type
REMARK                         _______ _______ _______ _____ _____    ______ ____
ROOT
ATOM      1  C   UNL     1       4.659   6.184  18.306  0.00  0.00    +0.000 C 
ENDROOT
BRANCH   1   5
ATOM      2  C   UNL     1       8.264   5.444  19.274  0.00  0.00    +0.000 C 
ATOM      3  C   UNL     1       7.124   6.136  18.581  0.00  0.00    +0.000 C 
ATOM      4  O   UNL     1       7.289   7.119  17.865  0.00  0.00    +0.000 OA
ATOM      5  N   UNL     1       5.884   5.621  18.890  0.00  0.00    +0.000 N 
ATOM      6  H   UNL     1       5.819   4.698  19.303  0.00  0.00    +0.000 HD
ENDBRANCH   1   5
BRANCH   1   7
ATOM      7  C   UNL     1       4.430   5.661  16.853  0.00  0.00    +0.000 C 
BRANCH   7   8
ATOM      8  O   UNL     1       4.538   4.236  16.646  0.00  0.00    +0.000 OA
BRANCH   8   9
ATOM      9  C   UNL     1       5.898   3.901  16.295  0.00  0.00    +0.000 C 
BRANCH   9  10
ATOM     10  C   UNL     1       6.258   3.971  14.820  0.00  0.00    +0.000 A 
ATOM     11  C   UNL     1       5.559   3.265  13.834  0.00  0.00    +0.000 A 
ATOM     12  C   UNL     1       5.833   3.442  12.466  0.00  0.00    +0.000 A 
ATOM     13  C   UNL     1       5.066   2.704  11.407  0.00  0.00    +0.000 C 
ATOM     14  C   UNL     1       6.842   4.330  12.081  0.00  0.00    +0.000 A 
ATOM     15  C   UNL     1       7.553   5.057  13.039  0.00  0.00    +0.000 A 
ATOM     16  C   UNL     1       8.660   5.979  12.618  0.00  0.00    +0.000 C 
ATOM     17  C   UNL     1       7.252   4.875  14.399  0.00  0.00    +0.000 A 
ENDBRANCH   9  10
ENDBRANCH   8   9
ENDBRANCH   7   8
ENDBRANCH   1   7
BRANCH   1  18
ATOM     18  C   UNL     1       3.414   6.130  19.268  0.00  0.00    +0.000 C 
BRANCH  18  19
ATOM     19  C   UNL     1       2.555   7.391  19.157  0.00  0.00    +0.000 A 
ATOM     20  C   UNL     1       1.804   7.870  20.242  0.00  0.00    +0.000 A 
ATOM     21  C   UNL     1       0.961   8.970  20.092  0.00  0.00    +0.000 A 
ATOM     22  C   UNL     1       0.867   9.614  18.862  0.00  0.00    +0.000 A 
ATOM     23  C   UNL     1       1.653   9.188  17.795  0.00  0.00    +0.000 A 
ATOM     24  C   UNL     1       2.490   8.082  17.938  0.00  0.00    +0.000 A 
ENDBRANCH  18  19
BRANCH  18  25
ATOM     25  C   UNL     1       2.559   4.838  19.220  0.00  0.00    +0.000 A 
ATOM     26  C   UNL     1       1.603   4.569  18.228  0.00  0.00    +0.000 A 
ATOM     27  C   UNL     1       0.821   3.407  18.271  0.00  0.00    +0.000 A 
ATOM     28  C   UNL     1       0.987   2.479  19.298  0.00  0.00    +0.000 A 
ATOM     29  C   UNL     1       1.948   2.708  20.272  0.00  0.00    +0.000 A 
ATOM     30  C   UNL     1       2.734   3.865  20.226  0.00  0.00    +0.000 A 
ENDBRANCH  18  25
ENDBRANCH   1  18
TORSDOF 8
ENDMDL
