MODEL 1
REMARK VINA RESULT:      -6.2      0.000      0.000
REMARK  Name = 
REMARK  7 active torsions:
REMARK  status: ('A' for Active; 'I' for Inactive)
REMARK    1  A    between atoms: C_1  and  SE_2
REMARK    2  A    between atoms: SE_2  and  C_3
REMARK    3  A    between atoms: C_4  and  S_5
REMARK    4  A    between atoms: S_5  and  C_6
REMARK    5  A    between atoms: C_6  and  C_7
REMARK    6  A    between atoms: C_8  and  C_9
REMARK    7  A    between atoms: C_9  and  O_10
REMARK                            x       y       z     vdW  Elec       q    Type
REMARK                         _______ _______ _______ _____ _____    ______ ____
ROOT
ATOM      1  C   UNL     1       3.450   5.479  18.503  0.00  0.00    +0.000 A 
ATOM      2  C   UNL     1       4.821   5.369  18.151  0.00  0.00    +0.000 A 
ATOM      3  C   UNL     1       5.565   4.288  18.635  0.00  0.00    +0.000 A 
ATOM      4  N   UNL     1       4.999   3.369  19.453  0.00  0.00    +0.000 NA
ATOM      5  C   UNL     1       3.707   3.458  19.851  0.00  0.00    +0.000 A 
ATOM      6  C   UNL     1       3.209   2.517  20.764  0.00  0.00    +0.000 A 
ATOM      7  C   UNL     1       1.896   2.611  21.224  0.00  0.00    +0.000 A 
ATOM      8  C   UNL     1       1.069   3.638  20.765  0.00  0.00    +0.000 A 
ATOM      9  C   UNL     1       1.552   4.582  19.848  0.00  0.00    +0.000 A 
ATOM     10  C   UNL     1       2.885   4.513  19.383  0.00  0.00    +0.000 A 
ENDROOT
BRANCH   1  12
ATOM     11  C   UNL     1       2.138   7.796  19.672  0.00  0.00    +0.000 C 
ATOM     12 SE   UNL     1       2.410   7.015  17.900  0.00  0.00    +0.000 Se
ENDBRANCH   1  12
BRANCH   2  13
ATOM     13  S   UNL     1       5.707   6.666  17.246  0.00  0.00    +0.000 S 
BRANCH  13  14
ATOM     14  C   UNL     1       7.114   5.755  16.506  0.00  0.00    +0.000 C 
BRANCH  14  15
ATOM     15  C   UNL     1       6.805   4.944  15.327  0.00  0.00    +0.000 C 
ATOM     16  C   UNL     1       6.547   4.358  14.300  0.00  0.00    +0.000 C 
BRANCH  16  17
ATOM     17  C   UNL     1       6.128   3.649  13.080  0.00  0.00    +0.000 C 
BRANCH  17  18
ATOM     18  O   UNL     1       6.971   3.975  12.007  0.00  0.00    +0.000 OA
ATOM     19  H   UNL     1       7.248   4.921  12.135  0.00  0.00    +0.000 HD
ENDBRANCH  17  18
ENDBRANCH  16  17
ENDBRANCH  14  15
ENDBRANCH  13  14
ENDBRANCH   2  13
TORSDOF 6
ENDMDL
MODEL 2
REMARK VINA RESULT:      -6.2      2.731      3.316
REMARK  Name = 
REMARK  7 active torsions:
REMARK  status: ('A' for Active; 'I' for Inactive)
REMARK    1  A    between atoms: C_1  and  SE_2
REMARK    2  A    between atoms: SE_2  and  C_3
REMARK    3  A    between atoms: C_4  and  S_5
REMARK    4  A    between atoms: S_5  and  C_6
REMARK    5  A    between atoms: C_6  and  C_7
REMARK    6  A    between atoms: C_8  and  C_9
REMARK    7  A    between atoms: C_9  and  O_10
REMARK                            x       y       z     vdW  Elec       q    Type
REMARK                         _______ _______ _______ _____ _____    ______ ____
ROOT
ATOM      1  C   UNL     1       3.732   5.109  17.766  0.00  0.00    +0.000 A 
ATOM      2  C   UNL     1       4.196   4.182  16.795  0.00  0.00    +0.000 A 
ATOM      3  C   UNL     1       3.900   2.825  16.950  0.00  0.00    +0.000 A 
ATOM      4  N   UNL     1       3.203   2.387  18.026  0.00  0.00    +0.000 NA
ATOM      5  C   UNL     1       2.778   3.228  19.000  0.00  0.00    +0.000 A 
ATOM      6  C   UNL     1       2.133   2.697  20.126  0.00  0.00    +0.000 A 
ATOM      7  C   UNL     1       1.726   3.534  21.163  0.00  0.00    +0.000 A 
ATOM      8  C   UNL     1       1.947   4.910  21.076  0.00  0.00    +0.000 A 
ATOM      9  C   UNL     1       2.586   5.456  19.953  0.00  0.00    +0.000 A 
ATOM     10  C   UNL     1       3.022   4.621  18.899  0.00  0.00    +0.000 A 
ENDROOT
BRANCH   1  12
ATOM     11  C   UNL     1       2.366   7.676  17.760  0.00  0.00    +0.000 C 
ATOM     12 SE   UNL     1       4.194   6.997  17.609  0.00  0.00    +0.000 Se
ENDBRANCH   1  12
BRANCH   2  13
ATOM     13  S   UNL     1       5.316   4.654  15.449  0.00  0.00    +0.000 S 
BRANCH  13  14
ATOM     14  C   UNL     1       6.956   4.147  16.091  0.00  0.00    +0.000 C 
BRANCH  14  15
ATOM     15  C   UNL     1       7.364   4.754  17.360  0.00  0.00    +0.000 C 
ATOM     16  C   UNL     1       7.621   5.314  18.402  0.00  0.00    +0.000 C 
BRANCH  16  17
ATOM     17  C   UNL     1       8.000   6.061  19.612  0.00  0.00    +0.000 C 
BRANCH  17  18
ATOM     18  O   UNL     1       8.253   5.181  20.675  0.00  0.00    +0.000 OA
ATOM     19  H   UNL     1       7.420   4.658  20.820  0.00  0.00    +0.000 HD
ENDBRANCH  17  18
ENDBRANCH  16  17
ENDBRANCH  14  15
ENDBRANCH  13  14
ENDBRANCH   2  13
TORSDOF 6
ENDMDL
MODEL 3
REMARK VINA RESULT:      -6.2      1.460      1.602
REMARK  Name = 
REMARK  7 active torsions:
REMARK  status: ('A' for Active; 'I' for Inactive)
REMARK    1  A    between atoms: C_1  and  SE_2
REMARK    2  A    between atoms: SE_2  and  C_3
REMARK    3  A    between atoms: C_4  and  S_5
REMARK    4  A    between atoms: S_5  and  C_6
REMARK    5  A    between atoms: C_6  and  C_7
REMARK    6  A    between atoms: C_8  and  C_9
REMARK    7  A    between atoms: C_9  and  O_10
REMARK                            x       y       z     vdW  Elec       q    Type
REMARK                         _______ _______ _______ _____ _____    ______ ____
ROOT
ATOM      1  C   UNL     1       3.472   5.470  18.068  0.00  0.00    +0.000 A 
ATOM      2  C   UNL     1       4.271   4.897  17.043  0.00  0.00    +0.000 A 
ATOM      3  C   UNL     1       4.214   3.518  16.823  0.00  0.00    +0.000 A 
ATOM      4  N   UNL     1       3.431   2.726  17.594  0.00  0.00    +0.000 NA
ATOM      5  C   UNL     1       2.687   3.221  18.612  0.00  0.00    +0.000 A 
ATOM      6  C   UNL     1       1.962   2.335  19.422  0.00  0.00    +0.000 A 
ATOM      7  C   UNL     1       1.224   2.813  20.503  0.00  0.00    +0.000 A 
ATOM      8  C   UNL     1       1.193   4.182  20.774  0.00  0.00    +0.000 A 
ATOM      9  C   UNL     1       1.908   5.081  19.970  0.00  0.00    +0.000 A 
ATOM     10  C   UNL     1       2.676   4.613  18.880  0.00  0.00    +0.000 A 
ENDROOT
BRANCH   1  12
ATOM     11  C   UNL     1       1.871   7.859  17.637  0.00  0.00    +0.000 C 
ATOM     12 SE   UNL     1       3.589   7.381  18.441  0.00  0.00    +0.000 Se
ENDBRANCH   1  12
BRANCH   2  13
ATOM     13  S   UNL     1       5.504   5.850  16.116  0.00  0.00    +0.000 S 
BRANCH  13  14
ATOM     14  C   UNL     1       6.642   4.551  15.503  0.00  0.00    +0.000 C 
BRANCH  14  15
ATOM     15  C   UNL     1       6.334   4.000  14.181  0.00  0.00    +0.000 C 
ATOM     16  C   UNL     1       6.001   3.605  13.087  0.00  0.00    +0.000 C 
BRANCH  16  17
ATOM     17  C   UNL     1       5.544   3.043  11.806  0.00  0.00    +0.000 C 
BRANCH  17  18
ATOM     18  O   UNL     1       5.926   1.697  11.695  0.00  0.00    +0.000 OA
ATOM     19  H   UNL     1       6.205   1.401  12.601  0.00  0.00    +0.000 HD
ENDBRANCH  17  18
ENDBRANCH  16  17
ENDBRANCH  14  15
ENDBRANCH  13  14
ENDBRANCH   2  13
TORSDOF 6
ENDMDL
MODEL 4
REMARK VINA RESULT:      -6.2      2.929      3.583
REMARK  Name = 
REMARK  7 active torsions:
REMARK  status: ('A' for Active; 'I' for Inactive)
REMARK    1  A    between atoms: C_1  and  SE_2
REMARK    2  A    between atoms: SE_2  and  C_3
REMARK    3  A    between atoms: C_4  and  S_5
REMARK    4  A    between atoms: S_5  and  C_6
REMARK    5  A    between atoms: C_6  and  C_7
REMARK    6  A    between atoms: C_8  and  C_9
REMARK    7  A    between atoms: C_9  and  O_10
REMARK                            x       y       z     vdW  Elec       q    Type
REMARK                         _______ _______ _______ _____ _____    ______ ____
ROOT
ATOM      1  C   UNL     1       3.409   5.547  18.111  0.00  0.00    +0.000 A 
ATOM      2  C   UNL     1       4.208   5.043  17.051  0.00  0.00    +0.000 A 
ATOM      3  C   UNL     1       4.179   3.676  16.763  0.00  0.00    +0.000 A 
ATOM      4  N   UNL     1       3.422   2.829  17.501  0.00  0.00    +0.000 NA
ATOM      5  C   UNL     1       2.677   3.257  18.550  0.00  0.00    +0.000 A 
ATOM      6  C   UNL     1       1.980   2.315  19.320  0.00  0.00    +0.000 A 
ATOM      7  C   UNL     1       1.243   2.723  20.431  0.00  0.00    +0.000 A 
ATOM      8  C   UNL     1       1.185   4.076  20.771  0.00  0.00    +0.000 A 
ATOM      9  C   UNL     1       1.873   5.029  20.005  0.00  0.00    +0.000 A 
ATOM     10  C   UNL     1       2.639   4.633  18.886  0.00  0.00    +0.000 A 
ENDROOT
BRANCH   1  12
ATOM     11  C   UNL     1       1.813   7.943  17.704  0.00  0.00    +0.000 C 
ATOM     12 SE   UNL     1       3.488   7.439  18.578  0.00  0.00    +0.000 Se
ENDBRANCH   1  12
BRANCH   2  13
ATOM     13  S   UNL     1       5.411   6.067  16.162  0.00  0.00    +0.000 S 
BRANCH  13  14
ATOM     14  C   UNL     1       6.908   5.937  17.211  0.00  0.00    +0.000 C 
BRANCH  14  15
ATOM     15  C   UNL     1       7.553   7.203  17.569  0.00  0.00    +0.000 C 
ATOM     16  C   UNL     1       7.998   8.279  17.899  0.00  0.00    +0.000 C 
BRANCH  16  17
ATOM     17  C   UNL     1       8.522   9.621  18.197  0.00  0.00    +0.000 C 
BRANCH  17  18
ATOM     18  O   UNL     1       9.225   9.616  19.412  0.00  0.00    +0.000 OA
ATOM     19  H   UNL     1       8.736   9.007  20.026  0.00  0.00    +0.000 HD
ENDBRANCH  17  18
ENDBRANCH  16  17
ENDBRANCH  14  15
ENDBRANCH  13  14
ENDBRANCH   2  13
TORSDOF 6
ENDMDL
MODEL 5
REMARK VINA RESULT:      -6.2      2.894      3.646
REMARK  Name = 
REMARK  7 active torsions:
REMARK  status: ('A' for Active; 'I' for Inactive)
REMARK    1  A    between atoms: C_1  and  SE_2
REMARK    2  A    between atoms: SE_2  and  C_3
REMARK    3  A    between atoms: C_4  and  S_5
REMARK    4  A    between atoms: S_5  and  C_6
REMARK    5  A    between atoms: C_6  and  C_7
REMARK    6  A    between atoms: C_8  and  C_9
REMARK    7  A    between atoms: C_9  and  O_10
REMARK                            x       y       z     vdW  Elec       q    Type
REMARK                         _______ _______ _______ _____ _____    ______ ____
ROOT
ATOM      1  C   UNL     1       3.469   5.600  18.466  0.00  0.00    +0.000 A 
ATOM      2  C   UNL     1       4.808   5.515  18.001  0.00  0.00    +0.000 A 
ATOM      3  C   UNL     1       5.606   4.442  18.409  0.00  0.00    +0.000 A 
ATOM      4  N   UNL     1       5.124   3.507  19.262  0.00  0.00    +0.000 NA
ATOM      5  C   UNL     1       3.868   3.571  19.767  0.00  0.00    +0.000 A 
ATOM      6  C   UNL     1       3.462   2.614  20.707  0.00  0.00    +0.000 A 
ATOM      7  C   UNL     1       2.191   2.682  21.276  0.00  0.00    +0.000 A 
ATOM      8  C   UNL     1       1.312   3.699  20.898  0.00  0.00    +0.000 A 
ATOM      9  C   UNL     1       1.703   4.660  19.954  0.00  0.00    +0.000 A 
ATOM     10  C   UNL     1       2.994   4.617  19.380  0.00  0.00    +0.000 A 
ENDROOT
BRANCH   1  12
ATOM     11  C   UNL     1       2.171   7.849  19.775  0.00  0.00    +0.000 C 
ATOM     12 SE   UNL     1       2.360   7.125  17.968  0.00  0.00    +0.000 Se
ENDBRANCH   1  12
BRANCH   2  13
ATOM     13  S   UNL     1       5.595   6.835  17.039  0.00  0.00    +0.000 S 
BRANCH  13  14
ATOM     14  C   UNL     1       7.290   6.886  17.734  0.00  0.00    +0.000 C 
BRANCH  14  15
ATOM     15  C   UNL     1       7.882   8.217  17.885  0.00  0.00    +0.000 C 
ATOM     16  C   UNL     1       8.395   9.291  18.102  0.00  0.00    +0.000 C 
BRANCH  16  17
ATOM     17  C   UNL     1       8.919  10.635  18.392  0.00  0.00    +0.000 C 
BRANCH  17  18
ATOM     18  O   UNL     1      10.167  10.821  17.777  0.00  0.00    +0.000 OA
ATOM     19  H   UNL     1      10.739  10.055  18.049  0.00  0.00    +0.000 HD
ENDBRANCH  17  18
ENDBRANCH  16  17
ENDBRANCH  14  15
ENDBRANCH  13  14
ENDBRANCH   2  13
TORSDOF 6
ENDMDL
MODEL 6
REMARK VINA RESULT:      -6.1      3.112      4.259
REMARK  Name = 
REMARK  7 active torsions:
REMARK  status: ('A' for Active; 'I' for Inactive)
REMARK    1  A    between atoms: C_1  and  SE_2
REMARK    2  A    between atoms: SE_2  and  C_3
REMARK    3  A    between atoms: C_4  and  S_5
REMARK    4  A    between atoms: S_5  and  C_6
REMARK    5  A    between atoms: C_6  and  C_7
REMARK    6  A    between atoms: C_8  and  C_9
REMARK    7  A    between atoms: C_9  and  O_10
REMARK                            x       y       z     vdW  Elec       q    Type
REMARK                         _______ _______ _______ _____ _____    ______ ____
ROOT
ATOM      1  C   UNL     1       3.797   4.553  18.257  0.00  0.00    +0.000 A 
ATOM      2  C   UNL     1       4.428   5.063  17.091  0.00  0.00    +0.000 A 
ATOM      3  C   UNL     1       4.335   6.428  16.806  0.00  0.00    +0.000 A 
ATOM      4  N   UNL     1       3.628   7.257  17.611  0.00  0.00    +0.000 NA
ATOM      5  C   UNL     1       2.974   6.809  18.710  0.00  0.00    +0.000 A 
ATOM      6  C   UNL     1       2.195   7.707  19.454  0.00  0.00    +0.000 A 
ATOM      7  C   UNL     1       1.475   7.263  20.562  0.00  0.00    +0.000 A 
ATOM      8  C   UNL     1       1.540   5.922  20.943  0.00  0.00    +0.000 A 
ATOM      9  C   UNL     1       2.319   5.013  20.211  0.00  0.00    +0.000 A 
ATOM     10  C   UNL     1       3.042   5.441  19.075  0.00  0.00    +0.000 A 
ENDROOT
BRANCH   1  12
ATOM     11  C   UNL     1       2.016   2.261  18.080  0.00  0.00    +0.000 C 
ATOM     12 SE   UNL     1       3.852   2.641  18.638  0.00  0.00    +0.000 Se
ENDBRANCH   1  12
BRANCH   2  13
ATOM     13  S   UNL     1       5.202   3.992  15.850  0.00  0.00    +0.000 S 
BRANCH  13  14
ATOM     14  C   UNL     1       6.985   4.362  16.051  0.00  0.00    +0.000 C 
BRANCH  14  15
ATOM     15  C   UNL     1       7.388   4.890  17.356  0.00  0.00    +0.000 C 
ATOM     16  C   UNL     1       7.676   5.412  18.410  0.00  0.00    +0.000 C 
BRANCH  16  17
ATOM     17  C   UNL     1       8.124   6.072  19.646  0.00  0.00    +0.000 C 
BRANCH  17  18
ATOM     18  O   UNL     1       8.092   5.173  20.723  0.00  0.00    +0.000 OA
ATOM     19  H   UNL     1       8.992   4.754  20.776  0.00  0.00    +0.000 HD
ENDBRANCH  17  18
ENDBRANCH  16  17
ENDBRANCH  14  15
ENDBRANCH  13  14
ENDBRANCH   2  13
TORSDOF 6
ENDMDL
MODEL 7
REMARK VINA RESULT:      -5.9      1.873      2.655
REMARK  Name = 
REMARK  7 active torsions:
REMARK  status: ('A' for Active; 'I' for Inactive)
REMARK    1  A    between atoms: C_1  and  SE_2
REMARK    2  A    between atoms: SE_2  and  C_3
REMARK    3  A    between atoms: C_4  and  S_5
REMARK    4  A    between atoms: S_5  and  C_6
REMARK    5  A    between atoms: C_6  and  C_7
REMARK    6  A    between atoms: C_8  and  C_9
REMARK    7  A    between atoms: C_9  and  O_10
REMARK                            x       y       z     vdW  Elec       q    Type
REMARK                         _______ _______ _______ _____ _____    ______ ____
ROOT
ATOM      1  C   UNL     1       4.376   5.015  17.881  0.00  0.00    +0.000 A 
ATOM      2  C   UNL     1       4.671   4.007  16.926  0.00  0.00    +0.000 A 
ATOM      3  C   UNL     1       3.816   2.907  16.808  0.00  0.00    +0.000 A 
ATOM      4  N   UNL     1       2.733   2.783  17.613  0.00  0.00    +0.000 NA
ATOM      5  C   UNL     1       2.436   3.697  18.568  0.00  0.00    +0.000 A 
ATOM      6  C   UNL     1       1.346   3.466  19.418  0.00  0.00    +0.000 A 
ATOM      7  C   UNL     1       1.047   4.368  20.438  0.00  0.00    +0.000 A 
ATOM      8  C   UNL     1       1.825   5.514  20.606  0.00  0.00    +0.000 A 
ATOM      9  C   UNL     1       2.915   5.762  19.759  0.00  0.00    +0.000 A 
ATOM     10  C   UNL     1       3.245   4.850  18.730  0.00  0.00    +0.000 A 
ENDROOT
BRANCH   1  12
ATOM     11  C   UNL     1       6.850   5.599  19.294  0.00  0.00    +0.000 C 
ATOM     12 SE   UNL     1       5.593   6.522  18.114  0.00  0.00    +0.000 Se
ENDBRANCH   1  12
BRANCH   2  13
ATOM     13  S   UNL     1       6.211   3.985  15.969  0.00  0.00    +0.000 S 
BRANCH  13  14
ATOM     14  C   UNL     1       5.684   4.639  14.341  0.00  0.00    +0.000 C 
BRANCH  14  15
ATOM     15  C   UNL     1       5.677   3.678  13.235  0.00  0.00    +0.000 C 
ATOM     16  C   UNL     1       5.768   2.870  12.339  0.00  0.00    +0.000 C 
BRANCH  16  17
ATOM     17  C   UNL     1       5.892   1.971  11.181  0.00  0.00    +0.000 C 
BRANCH  17  18
ATOM     18  O   UNL     1       7.111   1.277  11.224  0.00  0.00    +0.000 OA
ATOM     19  H   UNL     1       7.139   0.693  10.420  0.00  0.00    +0.000 HD
ENDBRANCH  17  18
ENDBRANCH  16  17
ENDBRANCH  14  15
ENDBRANCH  13  14
ENDBRANCH   2  13
TORSDOF 6
ENDMDL
MODEL 8
REMARK VINA RESULT:      -5.9      2.343      3.400
REMARK  Name = 
REMARK  7 active torsions:
REMARK  status: ('A' for Active; 'I' for Inactive)
REMARK    1  A    between atoms: C_1  and  SE_2
REMARK    2  A    between atoms: SE_2  and  C_3
REMARK    3  A    between atoms: C_4  and  S_5
REMARK    4  A    between atoms: S_5  and  C_6
REMARK    5  A    between atoms: C_6  and  C_7
REMARK    6  A    between atoms: C_8  and  C_9
REMARK    7  A    between atoms: C_9  and  O_10
REMARK                            x       y       z     vdW  Elec       q    Type
REMARK                         _______ _______ _______ _____ _____    ______ ____
ROOT
ATOM      1  C   UNL     1       4.180   4.793  18.551  0.00  0.00    +0.000 A 
ATOM      2  C   UNL     1       4.900   5.181  17.391  0.00  0.00    +0.000 A 
ATOM      3  C   UNL     1       4.738   6.475  16.887  0.00  0.00    +0.000 A 
ATOM      4  N   UNL     1       3.882   7.345  17.477  0.00  0.00    +0.000 NA
ATOM      5  C   UNL     1       3.142   7.005  18.559  0.00  0.00    +0.000 A 
ATOM      6  C   UNL     1       2.217   7.926  19.070  0.00  0.00    +0.000 A 
ATOM      7  C   UNL     1       1.410   7.586  20.154  0.00  0.00    +0.000 A 
ATOM      8  C   UNL     1       1.531   6.327  20.745  0.00  0.00    +0.000 A 
ATOM      9  C   UNL     1       2.456   5.396  20.248  0.00  0.00    +0.000 A 
ATOM     10  C   UNL     1       3.271   5.718  19.139  0.00  0.00    +0.000 A 
ENDROOT
BRANCH   1  12
ATOM     11  C   UNL     1       2.967   2.195  18.069  0.00  0.00    +0.000 C 
ATOM     12 SE   UNL     1       4.336   2.971  19.230  0.00  0.00    +0.000 Se
ENDBRANCH   1  12
BRANCH   2  13
ATOM     13  S   UNL     1       5.891   4.015  16.418  0.00  0.00    +0.000 S 
BRANCH  13  14
ATOM     14  C   UNL     1       5.954   4.814  14.770  0.00  0.00    +0.000 C 
BRANCH  14  15
ATOM     15  C   UNL     1       5.721   3.934  13.622  0.00  0.00    +0.000 C 
ATOM     16  C   UNL     1       5.601   3.257  12.626  0.00  0.00    +0.000 C 
BRANCH  16  17
ATOM     17  C   UNL     1       5.374   2.501  11.385  0.00  0.00    +0.000 C 
BRANCH  17  18
ATOM     18  O   UNL     1       6.110   1.306  11.394  0.00  0.00    +0.000 OA
ATOM     19  H   UNL     1       6.917   1.469  11.951  0.00  0.00    +0.000 HD
ENDBRANCH  17  18
ENDBRANCH  16  17
ENDBRANCH  14  15
ENDBRANCH  13  14
ENDBRANCH   2  13
TORSDOF 6
ENDMDL
MODEL 9
REMARK VINA RESULT:      -5.9      3.268      4.893
REMARK  Name = 
REMARK  7 active torsions:
REMARK  status: ('A' for Active; 'I' for Inactive)
REMARK    1  A    between atoms: C_1  and  SE_2
REMARK    2  A    between atoms: SE_2  and  C_3
REMARK    3  A    between atoms: C_4  and  S_5
REMARK    4  A    between atoms: S_5  and  C_6
REMARK    5  A    between atoms: C_6  and  C_7
REMARK    6  A    between atoms: C_8  and  C_9
REMARK    7  A    between atoms: C_9  and  O_10
REMARK                            x       y       z     vdW  Elec       q    Type
REMARK                         _______ _______ _______ _____ _____    ______ ____
ROOT
ATOM      1  C   UNL     1       2.520   5.897  19.688  0.00  0.00    +0.000 A 
ATOM      2  C   UNL     1       3.137   5.629  18.438  0.00  0.00    +0.000 A 
ATOM      3  C   UNL     1       3.230   6.651  17.488  0.00  0.00    +0.000 A 
ATOM      4  N   UNL     1       2.713   7.877  17.740  0.00  0.00    +0.000 NA
ATOM      5  C   UNL     1       2.077   8.167  18.901  0.00  0.00    +0.000 A 
ATOM      6  C   UNL     1       1.495   9.433  19.062  0.00  0.00    +0.000 A 
ATOM      7  C   UNL     1       0.796   9.742  20.227  0.00  0.00    +0.000 A 
ATOM      8  C   UNL     1       0.685   8.793  21.246  0.00  0.00    +0.000 A 
ATOM      9  C   UNL     1       1.267   7.525  21.101  0.00  0.00    +0.000 A 
ATOM     10  C   UNL     1       1.965   7.188  19.919  0.00  0.00    +0.000 A 
ENDROOT
BRANCH   1  12
ATOM     11  C   UNL     1       0.748   3.643  20.171  0.00  0.00    +0.000 C 
ATOM     12 SE   UNL     1       2.315   4.469  21.000  0.00  0.00    +0.000 Se
ENDBRANCH   1  12
BRANCH   2  13
ATOM     13  S   UNL     1       3.654   3.964  17.939  0.00  0.00    +0.000 S 
BRANCH  13  14
ATOM     14  C   UNL     1       5.205   4.281  17.017  0.00  0.00    +0.000 C 
BRANCH  14  15
ATOM     15  C   UNL     1       6.321   4.815  17.801  0.00  0.00    +0.000 C 
ATOM     16  C   UNL     1       7.179   5.269  18.524  0.00  0.00    +0.000 C 
BRANCH  16  17
ATOM     17  C   UNL     1       8.203   5.918  19.358  0.00  0.00    +0.000 C 
BRANCH  17  18
ATOM     18  O   UNL     1       8.132   5.450  20.679  0.00  0.00    +0.000 OA
ATOM     19  H   UNL     1       9.067   5.328  20.992  0.00  0.00    +0.000 HD
ENDBRANCH  17  18
ENDBRANCH  16  17
ENDBRANCH  14  15
ENDBRANCH  13  14
ENDBRANCH   2  13
TORSDOF 6
ENDMDL
