MODEL 1
REMARK VINA RESULT:      -8.4      0.000      0.000
REMARK  Name = 
REMARK  7 active torsions:
REMARK  status: ('A' for Active; 'I' for Inactive)
REMARK    1  A    between atoms: N_1  and  S_2
REMARK    2  A    between atoms: S_2  and  C_5
REMARK    3  A    between atoms: C_8  and  C_9
REMARK    4  A    between atoms: C_9  and  N_10
REMARK    5  A    between atoms: N_16  and  C_17
REMARK    6  A    between atoms: C_21  and  C_22
REMARK    7  A    between atoms: C_22  and  N_23
REMARK                            x       y       z     vdW  Elec       q    Type
REMARK                         _______ _______ _______ _____ _____    ______ ____
ROOT
ATOM      1  N   UNL     1      -0.603  11.197  19.677  0.00  0.00    +0.000 N 
ATOM      2  C   UNL     1       0.241  10.103  19.963  0.00  0.00    +0.000 A 
ATOM      3  C   UNL     1       0.387   9.768  21.290  0.00  0.00    +0.000 A 
ATOM      4  C   UNL     1       1.231   8.729  21.563  0.00  0.00    +0.000 A 
ATOM      5  N   UNL     1       1.833   8.005  20.610  0.00  0.00    +0.000 NA
ATOM      6  C   UNL     1       1.595   8.334  19.334  0.00  0.00    +0.000 A 
ATOM      7  N   UNL     1       2.086   7.545  18.282  0.00  0.00    +0.000 N 
ATOM      8  N   UNL     1       0.835   9.394  18.981  0.00  0.00    +0.000 NA
ATOM      9  H   UNL     1      -1.570  10.906  19.798  0.00  0.00    +0.000 HD
ATOM     10  H   UNL     1       1.677   7.874  17.421  0.00  0.00    +0.000 HD
ENDROOT
BRANCH   7  11
ATOM     11  C   UNL     1       2.644   6.252  18.257  0.00  0.00    +0.000 A 
ATOM     12  C   UNL     1       1.952   5.119  17.824  0.00  0.00    +0.000 A 
ATOM     13  C   UNL     1       2.553   3.857  17.800  0.00  0.00    +0.000 A 
ATOM     14  C   UNL     1       3.864   3.694  18.237  0.00  0.00    +0.000 A 
ATOM     15  C   UNL     1       4.587   4.786  18.725  0.00  0.00    +0.000 A 
ATOM     16  C   UNL     1       3.961   6.056  18.735  0.00  0.00    +0.000 A 
BRANCH  15  17
ATOM     17  C   UNL     1       5.966   4.586  19.325  0.00  0.00    +0.000 C 
BRANCH  17  18
ATOM     18  N   UNL     1       7.163   4.755  18.500  0.00  0.00    +0.000 NA
ATOM     19  C   UNL     1       7.895   6.017  18.642  0.00  0.00    +0.000 C 
ATOM     20  C   UNL     1       7.424   7.126  17.689  0.00  0.00    +0.000 C 
ATOM     21  O   UNL     1       7.430   6.686  16.324  0.00  0.00    +0.000 OA
ATOM     22  C   UNL     1       6.614   5.519  16.157  0.00  0.00    +0.000 C 
ATOM     23  C   UNL     1       7.056   4.381  17.086  0.00  0.00    +0.000 C 
ENDBRANCH  17  18
ENDBRANCH  15  17
ENDBRANCH   7  11
BRANCH   1  24
ATOM     24  C   UNL     1      -0.375  11.823  18.386  0.00  0.00    +0.000 C 
BRANCH  24  28
ATOM     25  C   UNL     1       2.140  15.336  18.636  0.00  0.00    +0.000 A 
ATOM     26  C   UNL     1       2.712  14.108  18.291  0.00  0.00    +0.000 A 
ATOM     27  C   UNL     1       1.907  12.962  18.236  0.00  0.00    +0.000 A 
ATOM     28  C   UNL     1       0.532  13.033  18.534  0.00  0.00    +0.000 A 
ATOM     29  C   UNL     1      -0.014  14.272  18.901  0.00  0.00    +0.000 A 
ATOM     30  C   UNL     1       0.783  15.418  18.955  0.00  0.00    +0.000 A 
BRANCH  25  31
ATOM     31  S   UNL     1       3.120  16.804  18.646  0.00  0.00    +0.000 S 
ATOM     32  O   UNL     1       4.508  16.424  18.801  0.00  0.00    +0.000 OA
ATOM     33  O   UNL     1       2.491  17.803  19.475  0.00  0.00    +0.000 OA
BRANCH  31  34
ATOM     34  N   UNL     1       2.959  17.359  17.074  0.00  0.00    +0.000 NA
ATOM     35  H   UNL     1       3.835  17.208  16.565  0.00  0.00    +0.000 HD
ATOM     36  H   UNL     1       2.666  18.339  17.082  0.00  0.00    +0.000 HD
ENDBRANCH  31  34
ENDBRANCH  25  31
ENDBRANCH  24  28
ENDBRANCH   1  24
TORSDOF 7
ENDMDL
MODEL 2
REMARK VINA RESULT:      -8.1      3.835      4.725
REMARK  Name = 
REMARK  7 active torsions:
REMARK  status: ('A' for Active; 'I' for Inactive)
REMARK    1  A    between atoms: N_1  and  S_2
REMARK    2  A    between atoms: S_2  and  C_5
REMARK    3  A    between atoms: C_8  and  C_9
REMARK    4  A    between atoms: C_9  and  N_10
REMARK    5  A    between atoms: N_16  and  C_17
REMARK    6  A    between atoms: C_21  and  C_22
REMARK    7  A    between atoms: C_22  and  N_23
REMARK                            x       y       z     vdW  Elec       q    Type
REMARK                         _______ _______ _______ _____ _____    ______ ____
ROOT
ATOM      1  N   UNL     1       0.852  11.081  20.501  0.00  0.00    +0.000 N 
ATOM      2  C   UNL     1       1.236   9.940  19.765  0.00  0.00    +0.000 A 
ATOM      3  C   UNL     1       1.443  10.118  18.416  0.00  0.00    +0.000 A 
ATOM      4  C   UNL     1       1.782   9.003  17.702  0.00  0.00    +0.000 A 
ATOM      5  N   UNL     1       1.989   7.806  18.269  0.00  0.00    +0.000 NA
ATOM      6  C   UNL     1       1.842   7.712  19.597  0.00  0.00    +0.000 A 
ATOM      7  N   UNL     1       2.165   6.526  20.275  0.00  0.00    +0.000 N 
ATOM      8  N   UNL     1       1.435   8.747  20.364  0.00  0.00    +0.000 NA
ATOM      9  H   UNL     1       1.664  11.683  20.619  0.00  0.00    +0.000 HD
ATOM     10  H   UNL     1       2.129   6.708  21.266  0.00  0.00    +0.000 HD
ENDROOT
BRANCH   7  11
ATOM     11  C   UNL     1       2.873   5.377  19.875  0.00  0.00    +0.000 A 
ATOM     12  C   UNL     1       2.307   4.101  19.816  0.00  0.00    +0.000 A 
ATOM     13  C   UNL     1       3.045   2.990  19.395  0.00  0.00    +0.000 A 
ATOM     14  C   UNL     1       4.384   3.127  19.043  0.00  0.00    +0.000 A 
ATOM     15  C   UNL     1       5.013   4.373  19.130  0.00  0.00    +0.000 A 
ATOM     16  C   UNL     1       4.246   5.485  19.552  0.00  0.00    +0.000 A 
BRANCH  15  17
ATOM     17  C   UNL     1       6.503   4.497  18.876  0.00  0.00    +0.000 C 
BRANCH  17  18
ATOM     18  N   UNL     1       6.997   4.954  17.576  0.00  0.00    +0.000 NA
ATOM     19  C   UNL     1       7.319   6.379  17.452  0.00  0.00    +0.000 C 
ATOM     20  C   UNL     1       6.141   7.251  16.995  0.00  0.00    +0.000 C 
ATOM     21  O   UNL     1       5.555   6.755  15.784  0.00  0.00    +0.000 OA
ATOM     22  C   UNL     1       5.125   5.396  15.940  0.00  0.00    +0.000 C 
ATOM     23  C   UNL     1       6.277   4.486  16.387  0.00  0.00    +0.000 C 
ENDBRANCH  17  18
ENDBRANCH  15  17
ENDBRANCH   7  11
BRANCH   1  24
ATOM     24  C   UNL     1       0.190  10.798  21.763  0.00  0.00    +0.000 C 
BRANCH  24  28
ATOM     25  C   UNL     1      -3.646  12.783  22.030  0.00  0.00    +0.000 A 
ATOM     26  C   UNL     1      -2.974  12.756  20.804  0.00  0.00    +0.000 A 
ATOM     27  C   UNL     1      -1.718  12.138  20.720  0.00  0.00    +0.000 A 
ATOM     28  C   UNL     1      -1.124  11.556  21.855  0.00  0.00    +0.000 A 
ATOM     29  C   UNL     1      -1.807  11.617  23.079  0.00  0.00    +0.000 A 
ATOM     30  C   UNL     1      -3.060  12.229  23.170  0.00  0.00    +0.000 A 
BRANCH  25  31
ATOM     31  S   UNL     1      -5.257  13.496  22.145  0.00  0.00    +0.000 S 
ATOM     32  O   UNL     1      -5.516  14.237  20.930  0.00  0.00    +0.000 OA
ATOM     33  O   UNL     1      -5.443  14.066  23.457  0.00  0.00    +0.000 OA
BRANCH  31  34
ATOM     34  N   UNL     1      -6.253  12.150  22.096  0.00  0.00    +0.000 NA
ATOM     35  H   UNL     1      -7.187  12.426  21.775  0.00  0.00    +0.000 HD
ATOM     36  H   UNL     1      -6.265  11.694  23.012  0.00  0.00    +0.000 HD
ENDBRANCH  31  34
ENDBRANCH  25  31
ENDBRANCH  24  28
ENDBRANCH   1  24
TORSDOF 7
ENDMDL
MODEL 3
REMARK VINA RESULT:      -8.1      4.752     10.135
REMARK  Name = 
REMARK  7 active torsions:
REMARK  status: ('A' for Active; 'I' for Inactive)
REMARK    1  A    between atoms: N_1  and  S_2
REMARK    2  A    between atoms: S_2  and  C_5
REMARK    3  A    between atoms: C_8  and  C_9
REMARK    4  A    between atoms: C_9  and  N_10
REMARK    5  A    between atoms: N_16  and  C_17
REMARK    6  A    between atoms: C_21  and  C_22
REMARK    7  A    between atoms: C_22  and  N_23
REMARK                            x       y       z     vdW  Elec       q    Type
REMARK                         _______ _______ _______ _____ _____    ______ ____
ROOT
ATOM      1  N   UNL     1       5.738   3.892  18.895  0.00  0.00    +0.000 N 
ATOM      2  C   UNL     1       4.438   4.415  19.054  0.00  0.00    +0.000 A 
ATOM      3  C   UNL     1       3.440   3.509  19.337  0.00  0.00    +0.000 A 
ATOM      4  C   UNL     1       2.177   4.017  19.457  0.00  0.00    +0.000 A 
ATOM      5  N   UNL     1       1.906   5.328  19.391  0.00  0.00    +0.000 NA
ATOM      6  C   UNL     1       2.929   6.167  19.185  0.00  0.00    +0.000 A 
ATOM      7  N   UNL     1       2.743   7.557  19.231  0.00  0.00    +0.000 N 
ATOM      8  N   UNL     1       4.195   5.740  18.980  0.00  0.00    +0.000 NA
ATOM      9  H   UNL     1       6.106   3.644  19.811  0.00  0.00    +0.000 HD
ATOM     10  H   UNL     1       3.648   8.000  19.202  0.00  0.00    +0.000 HD
ENDROOT
BRANCH   7  11
ATOM     11  C   UNL     1       1.673   8.347  19.694  0.00  0.00    +0.000 A 
ATOM     12  C   UNL     1       1.292   8.424  21.036  0.00  0.00    +0.000 A 
ATOM     13  C   UNL     1       0.234   9.237  21.453  0.00  0.00    +0.000 A 
ATOM     14  C   UNL     1      -0.490   9.979  20.525  0.00  0.00    +0.000 A 
ATOM     15  C   UNL     1      -0.182   9.903  19.163  0.00  0.00    +0.000 A 
ATOM     16  C   UNL     1       0.898   9.078  18.764  0.00  0.00    +0.000 A 
BRANCH  15  17
ATOM     17  C   UNL     1      -1.053  10.606  18.139  0.00  0.00    +0.000 C 
BRANCH  17  18
ATOM     18  N   UNL     1      -2.267   9.963  17.635  0.00  0.00    +0.000 NA
ATOM     19  C   UNL     1      -2.361   9.766  16.186  0.00  0.00    +0.000 C 
ATOM     20  C   UNL     1      -3.006  10.939  15.432  0.00  0.00    +0.000 C 
ATOM     21  O   UNL     1      -4.286  11.279  15.983  0.00  0.00    +0.000 OA
ATOM     22  C   UNL     1      -4.179  11.594  17.377  0.00  0.00    +0.000 C 
ATOM     23  C   UNL     1      -3.546  10.442  18.170  0.00  0.00    +0.000 C 
ENDBRANCH  17  18
ENDBRANCH  15  17
ENDBRANCH   7  11
BRANCH   1  24
ATOM     24  C   UNL     1       6.650   4.742  18.149  0.00  0.00    +0.000 C 
BRANCH  24  28
ATOM     25  C   UNL     1       6.187   4.013  13.908  0.00  0.00    +0.000 A 
ATOM     26  C   UNL     1       7.163   4.914  14.345  0.00  0.00    +0.000 A 
ATOM     27  C   UNL     1       7.298   5.174  15.716  0.00  0.00    +0.000 A 
ATOM     28  C   UNL     1       6.456   4.547  16.655  0.00  0.00    +0.000 A 
ATOM     29  C   UNL     1       5.468   3.666  16.190  0.00  0.00    +0.000 A 
ATOM     30  C   UNL     1       5.330   3.400  14.825  0.00  0.00    +0.000 A 
BRANCH  25  31
ATOM     31  S   UNL     1       6.043   3.619  12.194  0.00  0.00    +0.000 S 
ATOM     32  O   UNL     1       7.093   4.310  11.478  0.00  0.00    +0.000 OA
ATOM     33  O   UNL     1       4.658   3.685  11.795  0.00  0.00    +0.000 OA
BRANCH  31  34
ATOM     34  N   UNL     1       6.442   1.993  12.160  0.00  0.00    +0.000 NA
ATOM     35  H   UNL     1       5.608   1.430  12.354  0.00  0.00    +0.000 HD
ATOM     36  H   UNL     1       7.207   1.811  12.815  0.00  0.00    +0.000 HD
ENDBRANCH  31  34
ENDBRANCH  25  31
ENDBRANCH  24  28
ENDBRANCH   1  24
TORSDOF 7
ENDMDL
MODEL 4
REMARK VINA RESULT:      -8.0      3.818      4.783
REMARK  Name = 
REMARK  7 active torsions:
REMARK  status: ('A' for Active; 'I' for Inactive)
REMARK    1  A    between atoms: N_1  and  S_2
REMARK    2  A    between atoms: S_2  and  C_5
REMARK    3  A    between atoms: C_8  and  C_9
REMARK    4  A    between atoms: C_9  and  N_10
REMARK    5  A    between atoms: N_16  and  C_17
REMARK    6  A    between atoms: C_21  and  C_22
REMARK    7  A    between atoms: C_22  and  N_23
REMARK                            x       y       z     vdW  Elec       q    Type
REMARK                         _______ _______ _______ _____ _____    ______ ____
ROOT
ATOM      1  N   UNL     1       0.861  11.676  20.528  0.00  0.00    +0.000 N 
ATOM      2  C   UNL     1       1.120  10.449  19.882  0.00  0.00    +0.000 A 
ATOM      3  C   UNL     1       1.423  10.512  18.540  0.00  0.00    +0.000 A 
ATOM      4  C   UNL     1       1.640   9.318  17.911  0.00  0.00    +0.000 A 
ATOM      5  N   UNL     1       1.646   8.143  18.555  0.00  0.00    +0.000 NA
ATOM      6  C   UNL     1       1.416   8.153  19.874  0.00  0.00    +0.000 A 
ATOM      7  N   UNL     1       1.532   6.980  20.635  0.00  0.00    +0.000 N 
ATOM      8  N   UNL     1       1.117   9.280  20.556  0.00  0.00    +0.000 NA
ATOM      9  H   UNL     1       1.741  12.168  20.663  0.00  0.00    +0.000 HD
ATOM     10  H   UNL     1       1.467   7.227  21.611  0.00  0.00    +0.000 HD
ENDROOT
BRANCH   7  11
ATOM     11  C   UNL     1       2.092   5.721  20.344  0.00  0.00    +0.000 A 
ATOM     12  C   UNL     1       1.428   4.511  20.556  0.00  0.00    +0.000 A 
ATOM     13  C   UNL     1       2.017   3.284  20.234  0.00  0.00    +0.000 A 
ATOM     14  C   UNL     1       3.306   3.239  19.711  0.00  0.00    +0.000 A 
ATOM     15  C   UNL     1       4.034   4.418  19.523  0.00  0.00    +0.000 A 
ATOM     16  C   UNL     1       3.415   5.649  19.849  0.00  0.00    +0.000 A 
BRANCH  15  17
ATOM     17  C   UNL     1       5.483   4.361  19.079  0.00  0.00    +0.000 C 
BRANCH  17  18
ATOM     18  N   UNL     1       5.825   4.427  17.658  0.00  0.00    +0.000 NA
ATOM     19  C   UNL     1       7.175   4.889  17.321  0.00  0.00    +0.000 C 
ATOM     20  C   UNL     1       7.289   6.409  17.132  0.00  0.00    +0.000 C 
ATOM     21  O   UNL     1       6.334   6.895  16.179  0.00  0.00    +0.000 OA
ATOM     22  C   UNL     1       4.998   6.551  16.570  0.00  0.00    +0.000 C 
ATOM     23  C   UNL     1       4.837   5.036  16.762  0.00  0.00    +0.000 C 
ENDBRANCH  17  18
ENDBRANCH  15  17
ENDBRANCH   7  11
BRANCH   1  24
ATOM     24  C   UNL     1       0.098  11.567  21.760  0.00  0.00    +0.000 C 
BRANCH  24  28
ATOM     25  C   UNL     1      -4.018  12.781  21.199  0.00  0.00    +0.000 A 
ATOM     26  C   UNL     1      -3.199  12.600  20.080  0.00  0.00    +0.000 A 
ATOM     27  C   UNL     1      -1.858  12.234  20.258  0.00  0.00    +0.000 A 
ATOM     28  C   UNL     1      -1.325  12.057  21.549  0.00  0.00    +0.000 A 
ATOM     29  C   UNL     1      -2.160  12.268  22.657  0.00  0.00    +0.000 A 
ATOM     30  C   UNL     1      -3.498  12.631  22.487  0.00  0.00    +0.000 A 
BRANCH  25  31
ATOM     31  S   UNL     1      -5.726  13.176  20.998  0.00  0.00    +0.000 S 
ATOM     32  O   UNL     1      -6.082  12.967  19.611  0.00  0.00    +0.000 OA
ATOM     33  O   UNL     1      -6.029  14.399  21.701  0.00  0.00    +0.000 OA
BRANCH  31  34
ATOM     34  N   UNL     1      -6.485  11.961  21.866  0.00  0.00    +0.000 NA
ATOM     35  H   UNL     1      -6.862  11.261  21.219  0.00  0.00    +0.000 HD
ATOM     36  H   UNL     1      -7.199  12.366  22.476  0.00  0.00    +0.000 HD
ENDBRANCH  31  34
ENDBRANCH  25  31
ENDBRANCH  24  28
ENDBRANCH   1  24
TORSDOF 7
ENDMDL
MODEL 5
REMARK VINA RESULT:      -7.9      2.185      3.299
REMARK  Name = 
REMARK  7 active torsions:
REMARK  status: ('A' for Active; 'I' for Inactive)
REMARK    1  A    between atoms: N_1  and  S_2
REMARK    2  A    between atoms: S_2  and  C_5
REMARK    3  A    between atoms: C_8  and  C_9
REMARK    4  A    between atoms: C_9  and  N_10
REMARK    5  A    between atoms: N_16  and  C_17
REMARK    6  A    between atoms: C_21  and  C_22
REMARK    7  A    between atoms: C_22  and  N_23
REMARK                            x       y       z     vdW  Elec       q    Type
REMARK                         _______ _______ _______ _____ _____    ______ ____
ROOT
ATOM      1  N   UNL     1      -0.937  11.219  19.553  0.00  0.00    +0.000 N 
ATOM      2  C   UNL     1       0.033  10.216  19.762  0.00  0.00    +0.000 A 
ATOM      3  C   UNL     1       0.166   9.746  21.050  0.00  0.00    +0.000 A 
ATOM      4  C   UNL     1       1.129   8.798  21.253  0.00  0.00    +0.000 A 
ATOM      5  N   UNL     1       1.863   8.276  20.260  0.00  0.00    +0.000 NA
ATOM      6  C   UNL     1       1.638   8.722  19.018  0.00  0.00    +0.000 A 
ATOM      7  N   UNL     1       2.274   8.133  17.914  0.00  0.00    +0.000 N 
ATOM      8  N   UNL     1       0.758   9.710  18.743  0.00  0.00    +0.000 NA
ATOM      9  H   UNL     1      -1.860  10.793  19.584  0.00  0.00    +0.000 HD
ATOM     10  H   UNL     1       1.862   8.507  17.073  0.00  0.00    +0.000 HD
ENDROOT
BRANCH   7  11
ATOM     11  C   UNL     1       3.001   6.935  17.776  0.00  0.00    +0.000 A 
ATOM     12  C   UNL     1       4.387   6.884  17.617  0.00  0.00    +0.000 A 
ATOM     13  C   UNL     1       5.069   5.669  17.502  0.00  0.00    +0.000 A 
ATOM     14  C   UNL     1       4.369   4.466  17.519  0.00  0.00    +0.000 A 
ATOM     15  C   UNL     1       2.975   4.461  17.628  0.00  0.00    +0.000 A 
ATOM     16  C   UNL     1       2.306   5.703  17.749  0.00  0.00    +0.000 A 
BRANCH  15  17
ATOM     17  C   UNL     1       2.203   3.161  17.512  0.00  0.00    +0.000 C 
BRANCH  17  18
ATOM     18  N   UNL     1       1.873   2.386  18.709  0.00  0.00    +0.000 NA
ATOM     19  C   UNL     1       0.745   2.860  19.516  0.00  0.00    +0.000 C 
ATOM     20  C   UNL     1       1.135   3.861  20.614  0.00  0.00    +0.000 C 
ATOM     21  O   UNL     1       2.178   3.345  21.452  0.00  0.00    +0.000 OA
ATOM     22  C   UNL     1       3.333   2.995  20.677  0.00  0.00    +0.000 C 
ATOM     23  C   UNL     1       2.989   1.987  19.572  0.00  0.00    +0.000 C 
ENDBRANCH  17  18
ENDBRANCH  15  17
ENDBRANCH   7  11
BRANCH   1  24
ATOM     24  C   UNL     1      -0.739  12.018  18.356  0.00  0.00    +0.000 C 
BRANCH  24  28
ATOM     25  C   UNL     1       1.856  15.419  19.006  0.00  0.00    +0.000 A 
ATOM     26  C   UNL     1       2.394  14.236  18.492  0.00  0.00    +0.000 A 
ATOM     27  C   UNL     1       1.563  13.123  18.306  0.00  0.00    +0.000 A 
ATOM     28  C   UNL     1       0.196  13.180  18.640  0.00  0.00    +0.000 A 
ATOM     29  C   UNL     1      -0.316  14.371  19.178  0.00  0.00    +0.000 A 
ATOM     30  C   UNL     1       0.507  15.485  19.363  0.00  0.00    +0.000 A 
BRANCH  25  31
ATOM     31  S   UNL     1       2.868  16.854  19.186  0.00  0.00    +0.000 S 
ATOM     32  O   UNL     1       3.608  17.047  17.958  0.00  0.00    +0.000 OA
ATOM     33  O   UNL     1       3.504  16.841  20.481  0.00  0.00    +0.000 OA
BRANCH  31  34
ATOM     34  N   UNL     1       1.739  18.089  19.254  0.00  0.00    +0.000 NA
ATOM     35  H   UNL     1       2.215  18.993  19.174  0.00  0.00    +0.000 HD
ATOM     36  H   UNL     1       1.184  18.004  20.109  0.00  0.00    +0.000 HD
ENDBRANCH  31  34
ENDBRANCH  25  31
ENDBRANCH  24  28
ENDBRANCH   1  24
TORSDOF 7
ENDMDL
MODEL 6
REMARK VINA RESULT:      -7.9      3.689      4.717
REMARK  Name = 
REMARK  7 active torsions:
REMARK  status: ('A' for Active; 'I' for Inactive)
REMARK    1  A    between atoms: N_1  and  S_2
REMARK    2  A    between atoms: S_2  and  C_5
REMARK    3  A    between atoms: C_8  and  C_9
REMARK    4  A    between atoms: C_9  and  N_10
REMARK    5  A    between atoms: N_16  and  C_17
REMARK    6  A    between atoms: C_21  and  C_22
REMARK    7  A    between atoms: C_22  and  N_23
REMARK                            x       y       z     vdW  Elec       q    Type
REMARK                         _______ _______ _______ _____ _____    ______ ____
ROOT
ATOM      1  N   UNL     1       0.811  11.366  20.813  0.00  0.00    +0.000 N 
ATOM      2  C   UNL     1       1.208  10.413  19.852  0.00  0.00    +0.000 A 
ATOM      3  C   UNL     1       1.478  10.889  18.589  0.00  0.00    +0.000 A 
ATOM      4  C   UNL     1       1.830   9.956  17.653  0.00  0.00    +0.000 A 
ATOM      5  N   UNL     1       1.991   8.657  17.939  0.00  0.00    +0.000 NA
ATOM      6  C   UNL     1       1.784   8.267  19.203  0.00  0.00    +0.000 A 
ATOM      7  N   UNL     1       2.056   6.950  19.605  0.00  0.00    +0.000 N 
ATOM      8  N   UNL     1       1.360   9.111  20.169  0.00  0.00    +0.000 NA
ATOM      9  H   UNL     1       1.626  11.904  21.098  0.00  0.00    +0.000 HD
ATOM     10  H   UNL     1       1.978   6.902  20.609  0.00  0.00    +0.000 HD
ENDROOT
BRANCH   7  11
ATOM     11  C   UNL     1       2.762   5.903  18.981  0.00  0.00    +0.000 A 
ATOM     12  C   UNL     1       2.202   5.057  18.022  0.00  0.00    +0.000 A 
ATOM     13  C   UNL     1       2.946   4.040  17.415  0.00  0.00    +0.000 A 
ATOM     14  C   UNL     1       4.274   3.831  17.776  0.00  0.00    +0.000 A 
ATOM     15  C   UNL     1       4.870   4.619  18.765  0.00  0.00    +0.000 A 
ATOM     16  C   UNL     1       4.100   5.645  19.361  0.00  0.00    +0.000 A 
BRANCH  15  17
ATOM     17  C   UNL     1       6.272   4.305  19.252  0.00  0.00    +0.000 C 
BRANCH  17  18
ATOM     18  N   UNL     1       7.438   4.780  18.507  0.00  0.00    +0.000 NA
ATOM     19  C   UNL     1       7.842   6.172  18.723  0.00  0.00    +0.000 C 
ATOM     20  C   UNL     1       7.176   7.175  17.768  0.00  0.00    +0.000 C 
ATOM     21  O   UNL     1       7.360   6.799  16.396  0.00  0.00    +0.000 OA
ATOM     22  C   UNL     1       6.853   5.480  16.152  0.00  0.00    +0.000 C 
ATOM     23  C   UNL     1       7.500   4.444  17.081  0.00  0.00    +0.000 C 
ENDBRANCH  17  18
ENDBRANCH  15  17
ENDBRANCH   7  11
BRANCH   1  24
ATOM     24  C   UNL     1       0.088  10.822  21.950  0.00  0.00    +0.000 C 
BRANCH  24  28
ATOM     25  C   UNL     1      -3.726  12.839  22.284  0.00  0.00    +0.000 A 
ATOM     26  C   UNL     1      -3.171  12.233  23.416  0.00  0.00    +0.000 A 
ATOM     27  C   UNL     1      -1.949  11.555  23.306  0.00  0.00    +0.000 A 
ATOM     28  C   UNL     1      -1.282  11.468  22.069  0.00  0.00    +0.000 A 
ATOM     29  C   UNL     1      -1.871  12.064  20.943  0.00  0.00    +0.000 A 
ATOM     30  C   UNL     1      -3.087  12.743  21.046  0.00  0.00    +0.000 A 
BRANCH  25  31
ATOM     31  S   UNL     1      -5.229  13.756  22.413  0.00  0.00    +0.000 S 
ATOM     32  O   UNL     1      -5.733  13.994  21.078  0.00  0.00    +0.000 OA
ATOM     33  O   UNL     1      -5.073  14.811  23.383  0.00  0.00    +0.000 OA
BRANCH  31  34
ATOM     34  N   UNL     1      -6.270  12.649  23.118  0.00  0.00    +0.000 NA
ATOM     35  H   UNL     1      -6.120  12.635  24.132  0.00  0.00    +0.000 HD
ATOM     36  H   UNL     1      -6.146  11.731  22.684  0.00  0.00    +0.000 HD
ENDBRANCH  31  34
ENDBRANCH  25  31
ENDBRANCH  24  28
ENDBRANCH   1  24
TORSDOF 7
ENDMDL
MODEL 7
REMARK VINA RESULT:      -7.9      3.571      4.491
REMARK  Name = 
REMARK  7 active torsions:
REMARK  status: ('A' for Active; 'I' for Inactive)
REMARK    1  A    between atoms: N_1  and  S_2
REMARK    2  A    between atoms: S_2  and  C_5
REMARK    3  A    between atoms: C_8  and  C_9
REMARK    4  A    between atoms: C_9  and  N_10
REMARK    5  A    between atoms: N_16  and  C_17
REMARK    6  A    between atoms: C_21  and  C_22
REMARK    7  A    between atoms: C_22  and  N_23
REMARK                            x       y       z     vdW  Elec       q    Type
REMARK                         _______ _______ _______ _____ _____    ______ ____
ROOT
ATOM      1  N   UNL     1       0.575  11.118  20.699  0.00  0.00    +0.000 N 
ATOM      2  C   UNL     1       1.063  10.049  19.919  0.00  0.00    +0.000 A 
ATOM      3  C   UNL     1       1.346  10.327  18.601  0.00  0.00    +0.000 A 
ATOM      4  C   UNL     1       1.787   9.279  17.841  0.00  0.00    +0.000 A 
ATOM      5  N   UNL     1       2.019   8.058  18.343  0.00  0.00    +0.000 NA
ATOM      6  C   UNL     1       1.793   7.868  19.649  0.00  0.00    +0.000 A 
ATOM      7  N   UNL     1       2.134   6.656  20.271  0.00  0.00    +0.000 N 
ATOM      8  N   UNL     1       1.285   8.829  20.452  0.00  0.00    +0.000 NA
ATOM      9  H   UNL     1       1.345  11.749  20.909  0.00  0.00    +0.000 HD
ATOM     10  H   UNL     1       2.025   6.769  21.267  0.00  0.00    +0.000 HD
ENDROOT
BRANCH   7  11
ATOM     11  C   UNL     1       2.924   5.571  19.846  0.00  0.00    +0.000 A 
ATOM     12  C   UNL     1       2.459   4.256  19.775  0.00  0.00    +0.000 A 
ATOM     13  C   UNL     1       3.275   3.211  19.330  0.00  0.00    +0.000 A 
ATOM     14  C   UNL     1       4.595   3.458  18.964  0.00  0.00    +0.000 A 
ATOM     15  C   UNL     1       5.126   4.748  19.060  0.00  0.00    +0.000 A 
ATOM     16  C   UNL     1       4.280   5.791  19.508  0.00  0.00    +0.000 A 
BRANCH  15  17
ATOM     17  C   UNL     1       6.598   4.992  18.791  0.00  0.00    +0.000 C 
BRANCH  17  18
ATOM     18  N   UNL     1       7.039   5.488  17.486  0.00  0.00    +0.000 NA
ATOM     19  C   UNL     1       6.422   6.726  17.003  0.00  0.00    +0.000 C 
ATOM     20  C   UNL     1       5.146   6.510  16.175  0.00  0.00    +0.000 C 
ATOM     21  O   UNL     1       5.369   5.597  15.092  0.00  0.00    +0.000 OA
ATOM     22  C   UNL     1       5.858   4.338  15.573  0.00  0.00    +0.000 C 
ATOM     23  C   UNL     1       7.140   4.508  16.400  0.00  0.00    +0.000 C 
ENDBRANCH  17  18
ENDBRANCH  15  17
ENDBRANCH   7  11
BRANCH   1  24
ATOM     24  C   UNL     1      -0.151  10.720  21.893  0.00  0.00    +0.000 C 
BRANCH  24  28
ATOM     25  C   UNL     1      -2.688  13.960  23.232  0.00  0.00    +0.000 A 
ATOM     26  C   UNL     1      -1.541  14.252  22.487  0.00  0.00    +0.000 A 
ATOM     27  C   UNL     1      -0.701  13.208  22.075  0.00  0.00    +0.000 A 
ATOM     28  C   UNL     1      -0.994  11.872  22.411  0.00  0.00    +0.000 A 
ATOM     29  C   UNL     1      -2.138  11.607  23.180  0.00  0.00    +0.000 A 
ATOM     30  C   UNL     1      -2.980  12.643  23.592  0.00  0.00    +0.000 A 
BRANCH  25  31
ATOM     31  S   UNL     1      -3.795  15.252  23.703  0.00  0.00    +0.000 S 
ATOM     32  O   UNL     1      -5.150  14.781  23.518  0.00  0.00    +0.000 OA
ATOM     33  O   UNL     1      -3.330  16.509  23.170  0.00  0.00    +0.000 OA
BRANCH  31  34
ATOM     34  N   UNL     1      -3.553  15.351  25.358  0.00  0.00    +0.000 NA
ATOM     35  H   UNL     1      -4.324  15.872  25.787  0.00  0.00    +0.000 HD
ATOM     36  H   UNL     1      -2.637  15.763  25.550  0.00  0.00    +0.000 HD
ENDBRANCH  31  34
ENDBRANCH  25  31
ENDBRANCH  24  28
ENDBRANCH   1  24
TORSDOF 7
ENDMDL
MODEL 8
REMARK VINA RESULT:      -7.8      6.503     11.648
REMARK  Name = 
REMARK  7 active torsions:
REMARK  status: ('A' for Active; 'I' for Inactive)
REMARK    1  A    between atoms: N_1  and  S_2
REMARK    2  A    between atoms: S_2  and  C_5
REMARK    3  A    between atoms: C_8  and  C_9
REMARK    4  A    between atoms: C_9  and  N_10
REMARK    5  A    between atoms: N_16  and  C_17
REMARK    6  A    between atoms: C_21  and  C_22
REMARK    7  A    between atoms: C_22  and  N_23
REMARK                            x       y       z     vdW  Elec       q    Type
REMARK                         _______ _______ _______ _____ _____    ______ ____
ROOT
ATOM      1  N   UNL     1       8.947   8.959  19.014  0.00  0.00    +0.000 N 
ATOM      2  C   UNL     1       9.195  10.323  19.274  0.00  0.00    +0.000 A 
ATOM      3  C   UNL     1       9.428  10.666  20.587  0.00  0.00    +0.000 A 
ATOM      4  C   UNL     1       9.634  11.994  20.838  0.00  0.00    +0.000 A 
ATOM      5  N   UNL     1       9.695  12.921  19.872  0.00  0.00    +0.000 NA
ATOM      6  C   UNL     1       9.532  12.514  18.607  0.00  0.00    +0.000 A 
ATOM      7  N   UNL     1       9.709  13.403  17.535  0.00  0.00    +0.000 N 
ATOM      8  N   UNL     1       9.248  11.234  18.281  0.00  0.00    +0.000 NA
ATOM      9  H   UNL     1       9.824   8.448  19.081  0.00  0.00    +0.000 HD
ATOM     10  H   UNL     1       9.690  12.873  16.677  0.00  0.00    +0.000 HD
ENDROOT
BRANCH   7  11
ATOM     11  C   UNL     1      10.276  14.690  17.465  0.00  0.00    +0.000 A 
ATOM     12  C   UNL     1      11.612  14.930  17.139  0.00  0.00    +0.000 A 
ATOM     13  C   UNL     1      12.129  16.227  17.063  0.00  0.00    +0.000 A 
ATOM     14  C   UNL     1      11.317  17.323  17.339  0.00  0.00    +0.000 A 
ATOM     15  C   UNL     1       9.984  17.138  17.717  0.00  0.00    +0.000 A 
ATOM     16  C   UNL     1       9.481  15.817  17.781  0.00  0.00    +0.000 A 
BRANCH  15  17
ATOM     17  C   UNL     1       9.138  18.322  18.147  0.00  0.00    +0.000 C 
BRANCH  17  18
ATOM     18  N   UNL     1       8.964  18.630  19.567  0.00  0.00    +0.000 NA
ATOM     19  C   UNL     1      10.140  18.481  20.428  0.00  0.00    +0.000 C 
ATOM     20  C   UNL     1      10.296  17.080  21.040  0.00  0.00    +0.000 C 
ATOM     21  O   UNL     1       9.107  16.670  21.729  0.00  0.00    +0.000 OA
ATOM     22  C   UNL     1       7.971  16.697  20.855  0.00  0.00    +0.000 C 
ATOM     23  C   UNL     1       7.773  18.084  20.227  0.00  0.00    +0.000 C 
ENDBRANCH  17  18
ENDBRANCH  15  17
ENDBRANCH   7  11
BRANCH   1  24
ATOM     24  C   UNL     1       8.250   8.693  17.767  0.00  0.00    +0.000 C 
BRANCH  24  28
ATOM     25  C   UNL     1       5.734   5.200  18.214  0.00  0.00    +0.000 A 
ATOM     26  C   UNL     1       6.932   5.277  18.931  0.00  0.00    +0.000 A 
ATOM     27  C   UNL     1       7.764   6.394  18.768  0.00  0.00    +0.000 A 
ATOM     28  C   UNL     1       7.411   7.432  17.884  0.00  0.00    +0.000 A 
ATOM     29  C   UNL     1       6.216   7.320  17.158  0.00  0.00    +0.000 A 
ATOM     30  C   UNL     1       5.382   6.211  17.317  0.00  0.00    +0.000 A 
BRANCH  25  31
ATOM     31  S   UNL     1       4.640   3.837  18.454  0.00  0.00    +0.000 S 
ATOM     32  O   UNL     1       5.111   3.067  19.584  0.00  0.00    +0.000 OA
ATOM     33  O   UNL     1       4.328   3.234  17.180  0.00  0.00    +0.000 OA
BRANCH  31  34
ATOM     34  N   UNL     1       3.228   4.587  18.951  0.00  0.00    +0.000 NA
ATOM     35  H   UNL     1       3.235   5.567  18.650  0.00  0.00    +0.000 HD
ATOM     36  H   UNL     1       3.118   4.482  19.963  0.00  0.00    +0.000 HD
ENDBRANCH  31  34
ENDBRANCH  25  31
ENDBRANCH  24  28
ENDBRANCH   1  24
TORSDOF 7
ENDMDL
MODEL 9
REMARK VINA RESULT:      -7.8      2.874      8.845
REMARK  Name = 
REMARK  7 active torsions:
REMARK  status: ('A' for Active; 'I' for Inactive)
REMARK    1  A    between atoms: N_1  and  S_2
REMARK    2  A    between atoms: S_2  and  C_5
REMARK    3  A    between atoms: C_8  and  C_9
REMARK    4  A    between atoms: C_9  and  N_10
REMARK    5  A    between atoms: N_16  and  C_17
REMARK    6  A    between atoms: C_21  and  C_22
REMARK    7  A    between atoms: C_22  and  N_23
REMARK                            x       y       z     vdW  Elec       q    Type
REMARK                         _______ _______ _______ _____ _____    ______ ____
ROOT
ATOM      1  N   UNL     1       1.686   6.966  20.861  0.00  0.00    +0.000 N 
ATOM      2  C   UNL     1       1.243   8.300  20.974  0.00  0.00    +0.000 A 
ATOM      3  C   UNL     1       0.856   8.716  22.229  0.00  0.00    +0.000 A 
ATOM      4  C   UNL     1       0.396   9.999  22.327  0.00  0.00    +0.000 A 
ATOM      5  N   UNL     1       0.387  10.854  21.295  0.00  0.00    +0.000 NA
ATOM      6  C   UNL     1       0.844  10.413  20.116  0.00  0.00    +0.000 A 
ATOM      7  N   UNL     1       0.985  11.285  19.025  0.00  0.00    +0.000 N 
ATOM      8  N   UNL     1       1.244   9.138  19.917  0.00  0.00    +0.000 NA
ATOM      9  H   UNL     1       2.617   6.895  21.265  0.00  0.00    +0.000 HD
ATOM     10  H   UNL     1       1.477  10.799  18.292  0.00  0.00    +0.000 HD
ENDROOT
BRANCH   7  11
ATOM     11  C   UNL     1       0.955  12.690  18.935  0.00  0.00    +0.000 A 
ATOM     12  C   UNL     1      -0.211  13.426  18.712  0.00  0.00    +0.000 A 
ATOM     13  C   UNL     1      -0.196  14.823  18.647  0.00  0.00    +0.000 A 
ATOM     14  C   UNL     1       1.001  15.520  18.780  0.00  0.00    +0.000 A 
ATOM     15  C   UNL     1       2.204  14.831  18.958  0.00  0.00    +0.000 A 
ATOM     16  C   UNL     1       2.165  13.417  19.027  0.00  0.00    +0.000 A 
BRANCH  15  17
ATOM     17  C   UNL     1       3.523  15.580  18.969  0.00  0.00    +0.000 C 
BRANCH  17  18
ATOM     18  N   UNL     1       4.771  14.879  19.272  0.00  0.00    +0.000 NA
ATOM     19  C   UNL     1       5.278  14.987  20.643  0.00  0.00    +0.000 C 
ATOM     20  C   UNL     1       6.220  16.178  20.872  0.00  0.00    +0.000 C 
ATOM     21  O   UNL     1       7.301  16.185  19.928  0.00  0.00    +0.000 OA
ATOM     22  C   UNL     1       6.808  16.204  18.582  0.00  0.00    +0.000 C 
ATOM     23  C   UNL     1       5.867  15.022  18.308  0.00  0.00    +0.000 C 
ENDBRANCH  17  18
ENDBRANCH  15  17
ENDBRANCH   7  11
BRANCH   1  24
ATOM     24  C   UNL     1       1.626   6.416  19.517  0.00  0.00    +0.000 C 
BRANCH  24  28
ATOM     25  C   UNL     1       5.679   6.016  18.054  0.00  0.00    +0.000 A 
ATOM     26  C   UNL     1       4.784   6.846  17.372  0.00  0.00    +0.000 A 
ATOM     27  C   UNL     1       3.463   6.957  17.826  0.00  0.00    +0.000 A 
ATOM     28  C   UNL     1       3.025   6.235  18.953  0.00  0.00    +0.000 A 
ATOM     29  C   UNL     1       3.935   5.390  19.606  0.00  0.00    +0.000 A 
ATOM     30  C   UNL     1       5.254   5.277  19.160  0.00  0.00    +0.000 A 
BRANCH  25  31
ATOM     31  S   UNL     1       7.365   5.913  17.541  0.00  0.00    +0.000 S 
ATOM     32  O   UNL     1       8.150   6.795  18.376  0.00  0.00    +0.000 OA
ATOM     33  O   UNL     1       7.437   5.939  16.101  0.00  0.00    +0.000 OA
BRANCH  31  34
ATOM     34  N   UNL     1       7.784   4.352  17.982  0.00  0.00    +0.000 NA
ATOM     35  H   UNL     1       7.036   3.944  18.552  0.00  0.00    +0.000 HD
ATOM     36  H   UNL     1       8.689   4.358  18.458  0.00  0.00    +0.000 HD
ENDBRANCH  31  34
ENDBRANCH  25  31
ENDBRANCH  24  28
ENDBRANCH   1  24
TORSDOF 7
ENDMDL
