MODEL 1
REMARK VINA RESULT:     -10.3      0.000      0.000
REMARK  Name = 
REMARK  6 active torsions:
REMARK  status: ('A' for Active; 'I' for Inactive)
REMARK    1  A    between atoms: C_1  and  C_2
REMARK    2  A    between atoms: C_4  and  C_5
REMARK    3  A    between atoms: C_5  and  O_6
REMARK    4  A    between atoms: O_6  and  C_7
REMARK    5  A    between atoms: C_10  and  C_11
REMARK    6  A    between atoms: N_13  and  C_14
REMARK                            x       y       z     vdW  Elec       q    Type
REMARK                         _______ _______ _______ _____ _____    ______ ____
ROOT
ATOM      1  C   UNL     1       0.511  10.276  18.910  0.00  0.00    +0.000 A 
ATOM      2  C   UNL     1       1.322   9.667  17.954  0.00  0.00    +0.000 A 
ATOM      3  C   UNL     1       1.972   8.462  18.245  0.00  0.00    +0.000 A 
ATOM      4  C   UNL     1       1.834   7.857  19.502  0.00  0.00    +0.000 A 
ATOM      5  C   UNL     1       1.052   8.493  20.472  0.00  0.00    +0.000 A 
ATOM      6  C   UNL     1       0.396   9.695  20.173  0.00  0.00    +0.000 A 
ENDROOT
BRANCH   4   7
ATOM      7  C   UNL     1       2.543   6.554  19.732  0.00  0.00    +0.000 C 
ATOM      8  O   UNL     1       2.262   5.873  20.713  0.00  0.00    +0.000 OA
ATOM      9  N   UNL     1       3.522   6.179  18.826  0.00  0.00    +0.000 N 
ATOM     10  H   UNL     1       3.768   6.796  18.064  0.00  0.00    +0.000 HD
BRANCH   9  11
ATOM     11  C   UNL     1       4.311   4.956  19.007  0.00  0.00    +0.000 C 
ATOM     12  C   UNL     1       5.818   5.301  19.048  0.00  0.00    +0.000 C 
ATOM     13  C   UNL     1       6.352   5.716  17.677  0.00  0.00    +0.000 C 
ATOM     14  C   UNL     1       6.117   4.631  16.632  0.00  0.00    +0.000 C 
ATOM     15  C   UNL     1       4.645   4.246  16.551  0.00  0.00    +0.000 C 
ATOM     16  C   UNL     1       4.072   3.869  17.923  0.00  0.00    +0.000 C 
ATOM     17  N   UNL     1       4.572   2.570  18.358  0.00  0.00    +0.000 N 
ATOM     18  C   UNL     1       3.595   1.610  18.419  0.00  0.00    +0.000 C 
ATOM     19  O   UNL     1       3.773   0.451  18.749  0.00  0.00    +0.000 OA
ATOM     20  N   UNL     1       2.424   2.170  18.051  0.00  0.00    +0.000 N 
ATOM     21  C   UNL     1       2.587   3.488  17.749  0.00  0.00    +0.000 C 
ATOM     22  O   UNL     1       1.703   4.225  17.332  0.00  0.00    +0.000 OA
ATOM     23  H   UNL     1       5.526   2.353  18.625  0.00  0.00    +0.000 HD
ATOM     24  H   UNL     1       1.559   1.661  17.983  0.00  0.00    +0.000 HD
ENDBRANCH   9  11
ENDBRANCH   4   7
BRANCH   1  25
ATOM     25  O   UNL     1      -0.171  11.451  18.725  0.00  0.00    +0.000 OA
BRANCH  25  26
ATOM     26  C   UNL     1      -1.491  11.473  19.287  0.00  0.00    +0.000 C 
BRANCH  26  30
ATOM     27  C   UNL     1      -2.979  10.121  14.682  0.00  0.00    +0.000 C 
ATOM     28  C   UNL     1      -3.268  10.720  16.025  0.00  0.00    +0.000 A 
ATOM     29  C   UNL     1      -2.265  10.848  16.974  0.00  0.00    +0.000 A 
ATOM     30  C   UNL     1      -2.567  11.408  18.222  0.00  0.00    +0.000 A 
ATOM     31  C   UNL     1      -3.905  11.796  18.494  0.00  0.00    +0.000 A 
ATOM     32  C   UNL     1      -4.351  12.317  19.736  0.00  0.00    +0.000 A 
ATOM     33  C   UNL     1      -5.681  12.687  19.937  0.00  0.00    +0.000 A 
ATOM     34  C   UNL     1      -6.592  12.535  18.906  0.00  0.00    +0.000 A 
ATOM     35  C   UNL     1      -6.169  12.011  17.683  0.00  0.00    +0.000 A 
ATOM     36  C   UNL     1      -4.851  11.634  17.455  0.00  0.00    +0.000 A 
ATOM     37  N   UNL     1      -4.539  11.117  16.255  0.00  0.00    +0.000 NA
ENDBRANCH  26  30
ENDBRANCH  25  26
ENDBRANCH   1  25
TORSDOF 5
ENDMDL
MODEL 2
REMARK VINA RESULT:      -9.9      2.010      3.309
REMARK  Name = 
REMARK  6 active torsions:
REMARK  status: ('A' for Active; 'I' for Inactive)
REMARK    1  A    between atoms: C_1  and  C_2
REMARK    2  A    between atoms: C_4  and  C_5
REMARK    3  A    between atoms: C_5  and  O_6
REMARK    4  A    between atoms: O_6  and  C_7
REMARK    5  A    between atoms: C_10  and  C_11
REMARK    6  A    between atoms: N_13  and  C_14
REMARK                            x       y       z     vdW  Elec       q    Type
REMARK                         _______ _______ _______ _____ _____    ______ ____
ROOT
ATOM      1  C   UNL     1       0.830   9.888  19.846  0.00  0.00    +0.000 A 
ATOM      2  C   UNL     1       1.295   9.725  18.542  0.00  0.00    +0.000 A 
ATOM      3  C   UNL     1       1.933   8.538  18.165  0.00  0.00    +0.000 A 
ATOM      4  C   UNL     1       2.131   7.503  19.089  0.00  0.00    +0.000 A 
ATOM      5  C   UNL     1       1.699   7.688  20.407  0.00  0.00    +0.000 A 
ATOM      6  C   UNL     1       1.052   8.875  20.779  0.00  0.00    +0.000 A 
ENDROOT
BRANCH   4   7
ATOM      7  C   UNL     1       2.801   6.250  18.605  0.00  0.00    +0.000 C 
ATOM      8  O   UNL     1       2.166   5.203  18.548  0.00  0.00    +0.000 OA
ATOM      9  N   UNL     1       4.142   6.323  18.261  0.00  0.00    +0.000 N 
ATOM     10  H   UNL     1       4.647   7.191  18.380  0.00  0.00    +0.000 HD
BRANCH   9  11
ATOM     11  C   UNL     1       4.895   5.137  17.841  0.00  0.00    +0.000 C 
ATOM     12  C   UNL     1       5.601   4.500  19.061  0.00  0.00    +0.000 C 
ATOM     13  C   UNL     1       6.772   5.349  19.557  0.00  0.00    +0.000 C 
ATOM     14  C   UNL     1       7.797   5.588  18.455  0.00  0.00    +0.000 C 
ATOM     15  C   UNL     1       7.155   6.212  17.221  0.00  0.00    +0.000 C 
ATOM     16  C   UNL     1       5.947   5.403  16.730  0.00  0.00    +0.000 C 
ATOM     17  N   UNL     1       6.374   4.160  16.099  0.00  0.00    +0.000 N 
ATOM     18  C   UNL     1       6.114   4.122  14.754  0.00  0.00    +0.000 C 
ATOM     19  O   UNL     1       6.386   3.193  14.014  0.00  0.00    +0.000 OA
ATOM     20  N   UNL     1       5.518   5.280  14.402  0.00  0.00    +0.000 N 
ATOM     21  C   UNL     1       5.364   6.097  15.481  0.00  0.00    +0.000 C 
ATOM     22  O   UNL     1       4.906   7.230  15.442  0.00  0.00    +0.000 OA
ATOM     23  H   UNL     1       6.799   3.365  16.564  0.00  0.00    +0.000 HD
ATOM     24  H   UNL     1       5.257   5.510  13.458  0.00  0.00    +0.000 HD
ENDBRANCH   9  11
ENDBRANCH   4   7
BRANCH   1  25
ATOM     25  O   UNL     1       0.191  11.006  20.315  0.00  0.00    +0.000 OA
BRANCH  25  26
ATOM     26  C   UNL     1      -0.288  11.896  19.297  0.00  0.00    +0.000 C 
BRANCH  26  30
ATOM     27  C   UNL     1      -4.690  13.271  21.293  0.00  0.00    +0.000 C 
ATOM     28  C   UNL     1      -3.896  12.633  20.194  0.00  0.00    +0.000 A 
ATOM     29  C   UNL     1      -2.516  12.531  20.283  0.00  0.00    +0.000 A 
ATOM     30  C   UNL     1      -1.801  11.934  19.236  0.00  0.00    +0.000 A 
ATOM     31  C   UNL     1      -2.510  11.483  18.092  0.00  0.00    +0.000 A 
ATOM     32  C   UNL     1      -1.898  10.918  16.942  0.00  0.00    +0.000 A 
ATOM     33  C   UNL     1      -2.653  10.486  15.852  0.00  0.00    +0.000 A 
ATOM     34  C   UNL     1      -4.032  10.617  15.884  0.00  0.00    +0.000 A 
ATOM     35  C   UNL     1      -4.644  11.183  17.005  0.00  0.00    +0.000 A 
ATOM     36  C   UNL     1      -3.917  11.623  18.103  0.00  0.00    +0.000 A 
ATOM     37  N   UNL     1      -4.589  12.177  19.127  0.00  0.00    +0.000 NA
ENDBRANCH  26  30
ENDBRANCH  25  26
ENDBRANCH   1  25
TORSDOF 5
ENDMDL
MODEL 3
REMARK VINA RESULT:      -9.5      2.032      2.651
REMARK  Name = 
REMARK  6 active torsions:
REMARK  status: ('A' for Active; 'I' for Inactive)
REMARK    1  A    between atoms: C_1  and  C_2
REMARK    2  A    between atoms: C_4  and  C_5
REMARK    3  A    between atoms: C_5  and  O_6
REMARK    4  A    between atoms: O_6  and  C_7
REMARK    5  A    between atoms: C_10  and  C_11
REMARK    6  A    between atoms: N_13  and  C_14
REMARK                            x       y       z     vdW  Elec       q    Type
REMARK                         _______ _______ _______ _____ _____    ______ ____
ROOT
ATOM      1  C   UNL     1       0.786   9.895  19.757  0.00  0.00    +0.000 A 
ATOM      2  C   UNL     1       1.264   9.720  18.460  0.00  0.00    +0.000 A 
ATOM      3  C   UNL     1       1.912   8.532  18.102  0.00  0.00    +0.000 A 
ATOM      4  C   UNL     1       2.109   7.510  19.041  0.00  0.00    +0.000 A 
ATOM      5  C   UNL     1       1.664   7.707  20.352  0.00  0.00    +0.000 A 
ATOM      6  C   UNL     1       1.007   8.894  20.704  0.00  0.00    +0.000 A 
ENDROOT
BRANCH   4   7
ATOM      7  C   UNL     1       2.792   6.256  18.577  0.00  0.00    +0.000 C 
ATOM      8  O   UNL     1       2.168   5.200  18.542  0.00  0.00    +0.000 OA
ATOM      9  N   UNL     1       4.130   6.338  18.226  0.00  0.00    +0.000 N 
ATOM     10  H   UNL     1       4.625   7.213  18.326  0.00  0.00    +0.000 HD
BRANCH   9  11
ATOM     11  C   UNL     1       4.895   5.153  17.824  0.00  0.00    +0.000 C 
ATOM     12  C   UNL     1       5.598   4.537  19.056  0.00  0.00    +0.000 C 
ATOM     13  C   UNL     1       6.760   5.401  19.549  0.00  0.00    +0.000 C 
ATOM     14  C   UNL     1       7.790   5.635  18.450  0.00  0.00    +0.000 C 
ATOM     15  C   UNL     1       7.150   6.238  17.205  0.00  0.00    +0.000 C 
ATOM     16  C   UNL     1       5.952   5.414  16.717  0.00  0.00    +0.000 C 
ATOM     17  N   UNL     1       6.393   4.166  16.103  0.00  0.00    +0.000 N 
ATOM     18  C   UNL     1       6.141   4.110  14.757  0.00  0.00    +0.000 C 
ATOM     19  O   UNL     1       6.425   3.174  14.031  0.00  0.00    +0.000 OA
ATOM     20  N   UNL     1       5.538   5.260  14.388  0.00  0.00    +0.000 N 
ATOM     21  C   UNL     1       5.371   6.088  15.456  0.00  0.00    +0.000 C 
ATOM     22  O   UNL     1       4.904   7.217  15.400  0.00  0.00    +0.000 OA
ATOM     23  H   UNL     1       6.821   3.381  16.581  0.00  0.00    +0.000 HD
ATOM     24  H   UNL     1       5.281   5.476  13.440  0.00  0.00    +0.000 HD
ENDBRANCH   9  11
ENDBRANCH   4   7
BRANCH   1  25
ATOM     25  O   UNL     1       0.136  11.014  20.208  0.00  0.00    +0.000 OA
BRANCH  25  26
ATOM     26  C   UNL     1      -0.163  11.984  19.195  0.00  0.00    +0.000 C 
BRANCH  26  30
ATOM     27  C   UNL     1      -3.570  10.747  15.714  0.00  0.00    +0.000 C 
ATOM     28  C   UNL     1      -3.223  11.278  17.072  0.00  0.00    +0.000 A 
ATOM     29  C   UNL     1      -1.900  11.416  17.462  0.00  0.00    +0.000 A 
ATOM     30  C   UNL     1      -1.607  11.910  18.739  0.00  0.00    +0.000 A 
ATOM     31  C   UNL     1      -2.679  12.221  19.617  0.00  0.00    +0.000 A 
ATOM     32  C   UNL     1      -2.516  12.670  20.953  0.00  0.00    +0.000 A 
ATOM     33  C   UNL     1      -3.612  12.965  21.762  0.00  0.00    +0.000 A 
ATOM     34  C   UNL     1      -4.893  12.812  21.256  0.00  0.00    +0.000 A 
ATOM     35  C   UNL     1      -5.066  12.359  19.947  0.00  0.00    +0.000 A 
ATOM     36  C   UNL     1      -3.992  12.055  19.120  0.00  0.00    +0.000 A 
ATOM     37  N   UNL     1      -4.255  11.602  17.882  0.00  0.00    +0.000 NA
ENDBRANCH  26  30
ENDBRANCH  25  26
ENDBRANCH   1  25
TORSDOF 5
ENDMDL
MODEL 4
REMARK VINA RESULT:      -9.5      4.437     11.427
REMARK  Name = 
REMARK  6 active torsions:
REMARK  status: ('A' for Active; 'I' for Inactive)
REMARK    1  A    between atoms: C_1  and  C_2
REMARK    2  A    between atoms: C_4  and  C_5
REMARK    3  A    between atoms: C_5  and  O_6
REMARK    4  A    between atoms: O_6  and  C_7
REMARK    5  A    between atoms: C_10  and  C_11
REMARK    6  A    between atoms: N_13  and  C_14
REMARK                            x       y       z     vdW  Elec       q    Type
REMARK                         _______ _______ _______ _____ _____    ______ ____
ROOT
ATOM      1  C   UNL     1       0.624   8.981  21.233  0.00  0.00    +0.000 A 
ATOM      2  C   UNL     1       0.252   9.702  20.099  0.00  0.00    +0.000 A 
ATOM      3  C   UNL     1      -0.533  10.854  20.223  0.00  0.00    +0.000 A 
ATOM      4  C   UNL     1      -0.972  11.293  21.480  0.00  0.00    +0.000 A 
ATOM      5  C   UNL     1      -0.630  10.543  22.611  0.00  0.00    +0.000 A 
ATOM      6  C   UNL     1       0.164   9.395  22.483  0.00  0.00    +0.000 A 
ENDROOT
BRANCH   4   7
ATOM      7  C   UNL     1      -1.790  12.550  21.535  0.00  0.00    +0.000 C 
ATOM      8  O   UNL     1      -2.251  13.022  20.501  0.00  0.00    +0.000 OA
ATOM      9  N   UNL     1      -1.973  13.152  22.769  0.00  0.00    +0.000 N 
ATOM     10  H   UNL     1      -1.526  12.767  23.590  0.00  0.00    +0.000 HD
BRANCH   9  11
ATOM     11  C   UNL     1      -2.702  14.417  22.909  0.00  0.00    +0.000 C 
ATOM     12  C   UNL     1      -1.703  15.592  23.032  0.00  0.00    +0.000 C 
ATOM     13  C   UNL     1      -0.980  15.595  24.379  0.00  0.00    +0.000 C 
ATOM     14  C   UNL     1      -1.964  15.653  25.542  0.00  0.00    +0.000 C 
ATOM     15  C   UNL     1      -2.979  14.518  25.470  0.00  0.00    +0.000 C 
ATOM     16  C   UNL     1      -3.686  14.464  24.110  0.00  0.00    +0.000 C 
ATOM     17  N   UNL     1      -4.636  15.562  23.971  0.00  0.00    +0.000 N 
ATOM     18  C   UNL     1      -5.940  15.143  23.927  0.00  0.00    +0.000 C 
ATOM     19  O   UNL     1      -6.907  15.876  23.822  0.00  0.00    +0.000 OA
ATOM     20  N   UNL     1      -5.959  13.797  24.023  0.00  0.00    +0.000 N 
ATOM     21  C   UNL     1      -4.696  13.298  24.125  0.00  0.00    +0.000 C 
ATOM     22  O   UNL     1      -4.421  12.116  24.282  0.00  0.00    +0.000 OA
ATOM     23  H   UNL     1      -4.407  16.546  23.887  0.00  0.00    +0.000 HD
ATOM     24  H   UNL     1      -6.803  13.251  24.048  0.00  0.00    +0.000 HD
ENDBRANCH   9  11
ENDBRANCH   4   7
BRANCH   1  25
ATOM     25  O   UNL     1       1.391   7.845  21.222  0.00  0.00    +0.000 OA
BRANCH  25  26
ATOM     26  C   UNL     1       2.064   7.586  19.982  0.00  0.00    +0.000 C 
BRANCH  26  30
ATOM     27  C   UNL     1       1.367   2.786  21.294  0.00  0.00    +0.000 C 
ATOM     28  C   UNL     1       2.009   3.822  20.422  0.00  0.00    +0.000 A 
ATOM     29  C   UNL     1       1.774   5.172  20.635  0.00  0.00    +0.000 A 
ATOM     30  C   UNL     1       2.384   6.117  19.800  0.00  0.00    +0.000 A 
ATOM     31  C   UNL     1       3.200   5.661  18.731  0.00  0.00    +0.000 A 
ATOM     32  C   UNL     1       3.823   6.512  17.781  0.00  0.00    +0.000 A 
ATOM     33  C   UNL     1       4.620   6.001  16.756  0.00  0.00    +0.000 A 
ATOM     34  C   UNL     1       4.803   4.632  16.655  0.00  0.00    +0.000 A 
ATOM     35  C   UNL     1       4.185   3.784  17.576  0.00  0.00    +0.000 A 
ATOM     36  C   UNL     1       3.385   4.265  18.605  0.00  0.00    +0.000 A 
ATOM     37  N   UNL     1       2.810   3.373  19.431  0.00  0.00    +0.000 NA
ENDBRANCH  26  30
ENDBRANCH  25  26
ENDBRANCH   1  25
TORSDOF 5
ENDMDL
MODEL 5
REMARK VINA RESULT:      -9.4      1.247      2.310
REMARK  Name = 
REMARK  6 active torsions:
REMARK  status: ('A' for Active; 'I' for Inactive)
REMARK    1  A    between atoms: C_1  and  C_2
REMARK    2  A    between atoms: C_4  and  C_5
REMARK    3  A    between atoms: C_5  and  O_6
REMARK    4  A    between atoms: O_6  and  C_7
REMARK    5  A    between atoms: C_10  and  C_11
REMARK    6  A    between atoms: N_13  and  C_14
REMARK                            x       y       z     vdW  Elec       q    Type
REMARK                         _______ _______ _______ _____ _____    ______ ____
ROOT
ATOM      1  C   UNL     1       0.539  10.441  19.155  0.00  0.00    +0.000 A 
ATOM      2  C   UNL     1       1.294   9.838  18.150  0.00  0.00    +0.000 A 
ATOM      3  C   UNL     1       1.929   8.613  18.385  0.00  0.00    +0.000 A 
ATOM      4  C   UNL     1       1.834   7.981  19.633  0.00  0.00    +0.000 A 
ATOM      5  C   UNL     1       1.109   8.611  20.651  0.00  0.00    +0.000 A 
ATOM      6  C   UNL     1       0.467   9.832  20.409  0.00  0.00    +0.000 A 
ENDROOT
BRANCH   4   7
ATOM      7  C   UNL     1       2.523   6.658  19.801  0.00  0.00    +0.000 C 
ATOM      8  O   UNL     1       2.175   5.901  20.702  0.00  0.00    +0.000 OA
ATOM      9  N   UNL     1       3.560   6.352  18.935  0.00  0.00    +0.000 N 
ATOM     10  H   UNL     1       3.857   7.027  18.245  0.00  0.00    +0.000 HD
BRANCH   9  11
ATOM     11  C   UNL     1       4.332   5.112  19.067  0.00  0.00    +0.000 C 
ATOM     12  C   UNL     1       5.845   5.434  19.106  0.00  0.00    +0.000 C 
ATOM     13  C   UNL     1       6.373   5.888  17.745  0.00  0.00    +0.000 C 
ATOM     14  C   UNL     1       6.112   4.842  16.666  0.00  0.00    +0.000 C 
ATOM     15  C   UNL     1       4.634   4.482  16.585  0.00  0.00    +0.000 C 
ATOM     16  C   UNL     1       4.067   4.066  17.949  0.00  0.00    +0.000 C 
ATOM     17  N   UNL     1       4.552   2.746  18.335  0.00  0.00    +0.000 N 
ATOM     18  C   UNL     1       3.563   1.799  18.373  0.00  0.00    +0.000 C 
ATOM     19  O   UNL     1       3.726   0.627  18.661  0.00  0.00    +0.000 OA
ATOM     20  N   UNL     1       2.396   2.387  18.035  0.00  0.00    +0.000 N 
ATOM     21  C   UNL     1       2.576   3.712  17.776  0.00  0.00    +0.000 C 
ATOM     22  O   UNL     1       1.699   4.476  17.393  0.00  0.00    +0.000 OA
ATOM     23  H   UNL     1       5.506   2.506  18.585  0.00  0.00    +0.000 HD
ATOM     24  H   UNL     1       1.524   1.894  17.957  0.00  0.00    +0.000 HD
ENDBRANCH   9  11
ENDBRANCH   4   7
BRANCH   1  25
ATOM     25  O   UNL     1      -0.123  11.634  19.028  0.00  0.00    +0.000 OA
BRANCH  25  26
ATOM     26  C   UNL     1      -1.416  11.540  18.415  0.00  0.00    +0.000 C 
BRANCH  26  30
ATOM     27  C   UNL     1      -2.910  13.382  22.845  0.00  0.00    +0.000 C 
ATOM     28  C   UNL     1      -3.222  12.854  21.477  0.00  0.00    +0.000 A 
ATOM     29  C   UNL     1      -2.208  12.421  20.637  0.00  0.00    +0.000 A 
ATOM     30  C   UNL     1      -2.530  11.937  19.362  0.00  0.00    +0.000 A 
ATOM     31  C   UNL     1      -3.889  11.939  18.952  0.00  0.00    +0.000 A 
ATOM     32  C   UNL     1      -4.338  11.534  17.668  0.00  0.00    +0.000 A 
ATOM     33  C   UNL     1      -5.691  11.553  17.328  0.00  0.00    +0.000 A 
ATOM     34  C   UNL     1      -6.620  11.985  18.260  0.00  0.00    +0.000 A 
ATOM     35  C   UNL     1      -6.189  12.399  19.522  0.00  0.00    +0.000 A 
ATOM     36  C   UNL     1      -4.849  12.392  19.887  0.00  0.00    +0.000 A 
ATOM     37  N   UNL     1      -4.524  12.830  21.115  0.00  0.00    +0.000 NA
ENDBRANCH  26  30
ENDBRANCH  25  26
ENDBRANCH   1  25
TORSDOF 5
ENDMDL
MODEL 6
REMARK VINA RESULT:      -9.2      3.478     11.227
REMARK  Name = 
REMARK  6 active torsions:
REMARK  status: ('A' for Active; 'I' for Inactive)
REMARK    1  A    between atoms: C_1  and  C_2
REMARK    2  A    between atoms: C_4  and  C_5
REMARK    3  A    between atoms: C_5  and  O_6
REMARK    4  A    between atoms: O_6  and  C_7
REMARK    5  A    between atoms: C_10  and  C_11
REMARK    6  A    between atoms: N_13  and  C_14
REMARK                            x       y       z     vdW  Elec       q    Type
REMARK                         _______ _______ _______ _____ _____    ______ ____
ROOT
ATOM      1  C   UNL     1       0.695   8.659  21.221  0.00  0.00    +0.000 A 
ATOM      2  C   UNL     1       0.415   9.651  20.283  0.00  0.00    +0.000 A 
ATOM      3  C   UNL     1      -0.222  10.833  20.677  0.00  0.00    +0.000 A 
ATOM      4  C   UNL     1      -0.604  11.034  22.011  0.00  0.00    +0.000 A 
ATOM      5  C   UNL     1      -0.358  10.017  22.940  0.00  0.00    +0.000 A 
ATOM      6  C   UNL     1       0.289   8.839  22.544  0.00  0.00    +0.000 A 
ENDROOT
BRANCH   4   7
ATOM      7  C   UNL     1      -1.262  12.337  22.362  0.00  0.00    +0.000 C 
ATOM      8  O   UNL     1      -0.585  13.357  22.444  0.00  0.00    +0.000 OA
ATOM      9  N   UNL     1      -2.625  12.330  22.609  0.00  0.00    +0.000 N 
ATOM     10  H   UNL     1      -3.137  11.459  22.591  0.00  0.00    +0.000 HD
BRANCH   9  11
ATOM     11  C   UNL     1      -3.339  13.543  23.022  0.00  0.00    +0.000 C 
ATOM     12  C   UNL     1      -3.697  13.458  24.524  0.00  0.00    +0.000 C 
ATOM     13  C   UNL     1      -4.803  12.439  24.798  0.00  0.00    +0.000 C 
ATOM     14  C   UNL     1      -6.064  12.753  24.001  0.00  0.00    +0.000 C 
ATOM     15  C   UNL     1      -5.770  12.853  22.509  0.00  0.00    +0.000 C 
ATOM     16  C   UNL     1      -4.631  13.837  22.211  0.00  0.00    +0.000 C 
ATOM     17  N   UNL     1      -5.069  15.215  22.399  0.00  0.00    +0.000 N 
ATOM     18  C   UNL     1      -5.110  15.931  21.231  0.00  0.00    +0.000 C 
ATOM     19  O   UNL     1      -5.451  17.096  21.136  0.00  0.00    +0.000 OA
ATOM     20  N   UNL     1      -4.716  15.125  20.223  0.00  0.00    +0.000 N 
ATOM     21  C   UNL     1      -4.404  13.882  20.686  0.00  0.00    +0.000 C 
ATOM     22  O   UNL     1      -4.073  12.936  19.983  0.00  0.00    +0.000 OA
ATOM     23  H   UNL     1      -5.306  15.654  23.282  0.00  0.00    +0.000 HD
ATOM     24  H   UNL     1      -4.692  15.408  19.258  0.00  0.00    +0.000 HD
ENDBRANCH   9  11
ENDBRANCH   4   7
BRANCH   1  25
ATOM     25  O   UNL     1       1.317   7.469  20.942  0.00  0.00    +0.000 OA
BRANCH  25  26
ATOM     26  C   UNL     1       2.157   7.490  19.779  0.00  0.00    +0.000 C 
BRANCH  26  30
ATOM     27  C   UNL     1       1.582   2.506  20.073  0.00  0.00    +0.000 C 
ATOM     28  C   UNL     1       2.222   3.714  19.457  0.00  0.00    +0.000 A 
ATOM     29  C   UNL     1       1.929   4.987  19.923  0.00  0.00    +0.000 A 
ATOM     30  C   UNL     1       2.539   6.096  19.324  0.00  0.00    +0.000 A 
ATOM     31  C   UNL     1       3.415   5.887  18.227  0.00  0.00    +0.000 A 
ATOM     32  C   UNL     1       4.046   6.928  17.497  0.00  0.00    +0.000 A 
ATOM     33  C   UNL     1       4.904   6.655  16.431  0.00  0.00    +0.000 A 
ATOM     34  C   UNL     1       5.141   5.340  16.068  0.00  0.00    +0.000 A 
ATOM     35  C   UNL     1       4.516   4.307  16.770  0.00  0.00    +0.000 A 
ATOM     36  C   UNL     1       3.656   4.550  17.835  0.00  0.00    +0.000 A 
ATOM     37  N   UNL     1       3.080   3.495  18.437  0.00  0.00    +0.000 NA
ENDBRANCH  26  30
ENDBRANCH  25  26
ENDBRANCH   1  25
TORSDOF 5
ENDMDL
MODEL 7
REMARK VINA RESULT:      -9.2      3.199      4.692
REMARK  Name = 
REMARK  6 active torsions:
REMARK  status: ('A' for Active; 'I' for Inactive)
REMARK    1  A    between atoms: C_1  and  C_2
REMARK    2  A    between atoms: C_4  and  C_5
REMARK    3  A    between atoms: C_5  and  O_6
REMARK    4  A    between atoms: O_6  and  C_7
REMARK    5  A    between atoms: C_10  and  C_11
REMARK    6  A    between atoms: N_13  and  C_14
REMARK                            x       y       z     vdW  Elec       q    Type
REMARK                         _______ _______ _______ _____ _____    ______ ____
ROOT
ATOM      1  C   UNL     1       0.606  10.532  19.218  0.00  0.00    +0.000 A 
ATOM      2  C   UNL     1       0.563   9.828  20.420  0.00  0.00    +0.000 A 
ATOM      3  C   UNL     1       1.202   8.588  20.534  0.00  0.00    +0.000 A 
ATOM      4  C   UNL     1       1.878   8.025  19.443  0.00  0.00    +0.000 A 
ATOM      5  C   UNL     1       1.884   8.716  18.227  0.00  0.00    +0.000 A 
ATOM      6  C   UNL     1       1.251   9.961  18.119  0.00  0.00    +0.000 A 
ENDROOT
BRANCH   4   7
ATOM      7  C   UNL     1       2.559   6.703  19.649  0.00  0.00    +0.000 C 
ATOM      8  O   UNL     1       2.190   5.963  20.556  0.00  0.00    +0.000 OA
ATOM      9  N   UNL     1       3.612   6.377  18.809  0.00  0.00    +0.000 N 
ATOM     10  H   UNL     1       3.926   7.039  18.114  0.00  0.00    +0.000 HD
BRANCH   9  11
ATOM     11  C   UNL     1       4.377   5.137  18.979  0.00  0.00    +0.000 C 
ATOM     12  C   UNL     1       5.891   5.451  19.007  0.00  0.00    +0.000 C 
ATOM     13  C   UNL     1       6.421   5.859  17.632  0.00  0.00    +0.000 C 
ATOM     14  C   UNL     1       6.153   4.783  16.586  0.00  0.00    +0.000 C 
ATOM     15  C   UNL     1       4.672   4.429  16.518  0.00  0.00    +0.000 C 
ATOM     16  C   UNL     1       4.104   4.060  17.894  0.00  0.00    +0.000 C 
ATOM     17  N   UNL     1       4.581   2.749  18.321  0.00  0.00    +0.000 N 
ATOM     18  C   UNL     1       3.586   1.809  18.388  0.00  0.00    +0.000 C 
ATOM     19  O   UNL     1       3.743   0.646  18.712  0.00  0.00    +0.000 OA
ATOM     20  N   UNL     1       2.423   2.394  18.033  0.00  0.00    +0.000 N 
ATOM     21  C   UNL     1       2.610   3.710  17.734  0.00  0.00    +0.000 C 
ATOM     22  O   UNL     1       1.738   4.467  17.328  0.00  0.00    +0.000 OA
ATOM     23  H   UNL     1       5.533   2.511  18.577  0.00  0.00    +0.000 HD
ATOM     24  H   UNL     1       1.547   1.904  17.971  0.00  0.00    +0.000 HD
ENDBRANCH   9  11
ENDBRANCH   4   7
BRANCH   1  25
ATOM     25  O   UNL     1       0.019  11.751  19.002  0.00  0.00    +0.000 OA
BRANCH  25  26
ATOM     26  C   UNL     1       0.313  12.743  19.995  0.00  0.00    +0.000 C 
BRANCH  26  30
ATOM     27  C   UNL     1      -1.458  17.357  19.086  0.00  0.00    +0.000 C 
ATOM     28  C   UNL     1      -0.363  16.337  18.999  0.00  0.00    +0.000 A 
ATOM     29  C   UNL     1      -0.552  15.052  19.484  0.00  0.00    +0.000 A 
ATOM     30  C   UNL     1       0.492  14.122  19.393  0.00  0.00    +0.000 A 
ATOM     31  C   UNL     1       1.732  14.535  18.838  0.00  0.00    +0.000 A 
ATOM     32  C   UNL     1       2.882  13.709  18.746  0.00  0.00    +0.000 A 
ATOM     33  C   UNL     1       4.070  14.174  18.182  0.00  0.00    +0.000 A 
ATOM     34  C   UNL     1       4.135  15.473  17.708  0.00  0.00    +0.000 A 
ATOM     35  C   UNL     1       3.014  16.300  17.805  0.00  0.00    +0.000 A 
ATOM     36  C   UNL     1       1.819  15.864  18.363  0.00  0.00    +0.000 A 
ATOM     37  N   UNL     1       0.799  16.736  18.436  0.00  0.00    +0.000 NA
ENDBRANCH  26  30
ENDBRANCH  25  26
ENDBRANCH   1  25
TORSDOF 5
ENDMDL
MODEL 8
REMARK VINA RESULT:      -9.2      3.387     11.279
REMARK  Name = 
REMARK  6 active torsions:
REMARK  status: ('A' for Active; 'I' for Inactive)
REMARK    1  A    between atoms: C_1  and  C_2
REMARK    2  A    between atoms: C_4  and  C_5
REMARK    3  A    between atoms: C_5  and  O_6
REMARK    4  A    between atoms: O_6  and  C_7
REMARK    5  A    between atoms: C_10  and  C_11
REMARK    6  A    between atoms: N_13  and  C_14
REMARK                            x       y       z     vdW  Elec       q    Type
REMARK                         _______ _______ _______ _____ _____    ______ ____
ROOT
ATOM      1  C   UNL     1       0.696   8.978  21.627  0.00  0.00    +0.000 A 
ATOM      2  C   UNL     1      -0.028   9.270  22.781  0.00  0.00    +0.000 A 
ATOM      3  C   UNL     1      -0.770  10.454  22.867  0.00  0.00    +0.000 A 
ATOM      4  C   UNL     1      -0.784  11.372  21.807  0.00  0.00    +0.000 A 
ATOM      5  C   UNL     1      -0.022  11.093  20.667  0.00  0.00    +0.000 A 
ATOM      6  C   UNL     1       0.711   9.902  20.581  0.00  0.00    +0.000 A 
ENDROOT
BRANCH   4   7
ATOM      7  C   UNL     1      -1.622  12.608  21.963  0.00  0.00    +0.000 C 
ATOM      8  O   UNL     1      -1.141  13.705  21.700  0.00  0.00    +0.000 OA
ATOM      9  N   UNL     1      -2.917  12.459  22.433  0.00  0.00    +0.000 N 
ATOM     10  H   UNL     1      -3.256  11.545  22.697  0.00  0.00    +0.000 HD
BRANCH   9  11
ATOM     11  C   UNL     1      -3.784  13.616  22.679  0.00  0.00    +0.000 C 
ATOM     12  C   UNL     1      -4.122  13.711  24.185  0.00  0.00    +0.000 C 
ATOM     13  C   UNL     1      -5.082  12.608  24.631  0.00  0.00    +0.000 C 
ATOM     14  C   UNL     1      -6.377  12.632  23.826  0.00  0.00    +0.000 C 
ATOM     15  C   UNL     1      -6.103  12.545  22.329  0.00  0.00    +0.000 C 
ATOM     16  C   UNL     1      -5.106  13.614  21.863  0.00  0.00    +0.000 C 
ATOM     17  N   UNL     1      -5.723  14.936  21.856  0.00  0.00    +0.000 N 
ATOM     18  C   UNL     1      -5.863  15.457  20.596  0.00  0.00    +0.000 C 
ATOM     19  O   UNL     1      -6.356  16.541  20.339  0.00  0.00    +0.000 OA
ATOM     20  N   UNL     1      -5.369  14.569  19.709  0.00  0.00    +0.000 N 
ATOM     21  C   UNL     1      -4.893  13.461  20.343  0.00  0.00    +0.000 C 
ATOM     22  O   UNL     1      -4.441  12.472  19.781  0.00  0.00    +0.000 OA
ATOM     23  H   UNL     1      -6.013  15.467  22.670  0.00  0.00    +0.000 HD
ATOM     24  H   UNL     1      -5.386  14.705  18.713  0.00  0.00    +0.000 HD
ENDBRANCH   9  11
ENDBRANCH   4   7
BRANCH   1  25
ATOM     25  O   UNL     1       1.450   7.848  21.440  0.00  0.00    +0.000 OA
BRANCH  25  26
ATOM     26  C   UNL     1       1.839   7.605  20.081  0.00  0.00    +0.000 C 
BRANCH  26  30
ATOM     27  C   UNL     1       1.460   2.726  21.224  0.00  0.00    +0.000 C 
ATOM     28  C   UNL     1       2.039   3.833  20.396  0.00  0.00    +0.000 A 
ATOM     29  C   UNL     1       1.709   5.155  20.650  0.00  0.00    +0.000 A 
ATOM     30  C   UNL     1       2.263   6.168  19.856  0.00  0.00    +0.000 A 
ATOM     31  C   UNL     1       3.122   5.805  18.785  0.00  0.00    +0.000 A 
ATOM     32  C   UNL     1       3.697   6.729  17.872  0.00  0.00    +0.000 A 
ATOM     33  C   UNL     1       4.540   6.309  16.844  0.00  0.00    +0.000 A 
ATOM     34  C   UNL     1       4.819   4.960  16.701  0.00  0.00    +0.000 A 
ATOM     35  C   UNL     1       4.249   4.040  17.584  0.00  0.00    +0.000 A 
ATOM     36  C   UNL     1       3.404   4.430  18.616  0.00  0.00    +0.000 A 
ATOM     37  N   UNL     1       2.883   3.474  19.403  0.00  0.00    +0.000 NA
ENDBRANCH  26  30
ENDBRANCH  25  26
ENDBRANCH   1  25
TORSDOF 5
ENDMDL
MODEL 9
REMARK VINA RESULT:      -9.2      1.967      3.518
REMARK  Name = 
REMARK  6 active torsions:
REMARK  status: ('A' for Active; 'I' for Inactive)
REMARK    1  A    between atoms: C_1  and  C_2
REMARK    2  A    between atoms: C_4  and  C_5
REMARK    3  A    between atoms: C_5  and  O_6
REMARK    4  A    between atoms: O_6  and  C_7
REMARK    5  A    between atoms: C_10  and  C_11
REMARK    6  A    between atoms: N_13  and  C_14
REMARK                            x       y       z     vdW  Elec       q    Type
REMARK                         _______ _______ _______ _____ _____    ______ ____
ROOT
ATOM      1  C   UNL     1       0.290   9.849  20.050  0.00  0.00    +0.000 A 
ATOM      2  C   UNL     1       0.675  10.116  18.737  0.00  0.00    +0.000 A 
ATOM      3  C   UNL     1       1.571   9.266  18.079  0.00  0.00    +0.000 A 
ATOM      4  C   UNL     1       2.109   8.146  18.728  0.00  0.00    +0.000 A 
ATOM      5  C   UNL     1       1.751   7.906  20.060  0.00  0.00    +0.000 A 
ATOM      6  C   UNL     1       0.847   8.754  20.712  0.00  0.00    +0.000 A 
ENDROOT
BRANCH   4   7
ATOM      7  C   UNL     1       3.045   7.269  17.950  0.00  0.00    +0.000 C 
ATOM      8  O   UNL     1       3.815   7.770  17.137  0.00  0.00    +0.000 OA
ATOM      9  N   UNL     1       2.982   5.901  18.164  0.00  0.00    +0.000 N 
ATOM     10  H   UNL     1       2.292   5.521  18.797  0.00  0.00    +0.000 HD
BRANCH   9  11
ATOM     11  C   UNL     1       3.812   4.963  17.401  0.00  0.00    +0.000 C 
ATOM     12  C   UNL     1       2.940   3.805  16.862  0.00  0.00    +0.000 C 
ATOM     13  C   UNL     1       2.488   2.857  17.974  0.00  0.00    +0.000 C 
ATOM     14  C   UNL     1       3.676   2.276  18.732  0.00  0.00    +0.000 C 
ATOM     15  C   UNL     1       4.576   3.376  19.284  0.00  0.00    +0.000 C 
ATOM     16  C   UNL     1       5.007   4.368  18.196  0.00  0.00    +0.000 C 
ATOM     17  N   UNL     1       5.988   3.766  17.300  0.00  0.00    +0.000 N 
ATOM     18  C   UNL     1       7.228   4.344  17.394  0.00  0.00    +0.000 C 
ATOM     19  O   UNL     1       8.207   4.008  16.752  0.00  0.00    +0.000 OA
ATOM     20  N   UNL     1       7.169   5.332  18.312  0.00  0.00    +0.000 N 
ATOM     21  C   UNL     1       5.916   5.437  18.835  0.00  0.00    +0.000 C 
ATOM     22  O   UNL     1       5.593   6.210  19.727  0.00  0.00    +0.000 OA
ATOM     23  H   UNL     1       5.818   3.015  16.640  0.00  0.00    +0.000 HD
ATOM     24  H   UNL     1       7.962   5.887  18.586  0.00  0.00    +0.000 HD
ENDBRANCH   9  11
ENDBRANCH   4   7
BRANCH   1  25
ATOM     25  O   UNL     1      -0.581  10.613  20.782  0.00  0.00    +0.000 OA
BRANCH  25  26
ATOM     26  C   UNL     1      -0.910  11.879  20.192  0.00  0.00    +0.000 C 
BRANCH  26  30
ATOM     27  C   UNL     1      -5.496  13.383  21.594  0.00  0.00    +0.000 C 
ATOM     28  C   UNL     1      -4.574  12.769  20.584  0.00  0.00    +0.000 A 
ATOM     29  C   UNL     1      -3.231  12.581  20.873  0.00  0.00    +0.000 A 
ATOM     30  C   UNL     1      -2.393  12.009  19.907  0.00  0.00    +0.000 A 
ATOM     31  C   UNL     1      -2.938  11.672  18.640  0.00  0.00    +0.000 A 
ATOM     32  C   UNL     1      -2.184  11.145  17.559  0.00  0.00    +0.000 A 
ATOM     33  C   UNL     1      -2.782  10.826  16.340  0.00  0.00    +0.000 A 
ATOM     34  C   UNL     1      -4.141  11.036  16.173  0.00  0.00    +0.000 A 
ATOM     35  C   UNL     1      -4.891  11.566  17.225  0.00  0.00    +0.000 A 
ATOM     36  C   UNL     1      -4.321  11.893  18.449  0.00  0.00    +0.000 A 
ATOM     37  N   UNL     1      -5.116  12.421  19.396  0.00  0.00    +0.000 NA
ENDBRANCH  26  30
ENDBRANCH  25  26
ENDBRANCH   1  25
TORSDOF 5
ENDMDL
