MODEL 1
REMARK VINA RESULT:      -7.8      0.000      0.000
REMARK  Name = 
REMARK  5 active torsions:
REMARK  status: ('A' for Active; 'I' for Inactive)
REMARK    1  A    between atoms: C_1  and  N_2
REMARK    2  A    between atoms: C_5  and  C_6
REMARK    3  A    between atoms: C_5  and  C_7
REMARK    4  A    between atoms: C_13  and  C_14
REMARK    5  A    between atoms: C_19  and  C_20
REMARK                            x       y       z     vdW  Elec       q    Type
REMARK                         _______ _______ _______ _____ _____    ______ ____
ROOT
ATOM      1  C   UNL     1       0.437   8.370  21.403  0.00  0.00    +0.000 C 
ATOM      2  N   UNL     1       0.800   9.142  20.217  0.00  0.00    +0.000 N 
ATOM      3  C   UNL     1       0.233  10.387  20.050  0.00  0.00    +0.000 C 
ATOM      4  N   UNL     1      -0.828  10.843  20.671  0.00  0.00    +0.000 NA
ATOM      5  C   UNL     1      -1.057  12.209  20.108  0.00  0.00    +0.000 C 
ATOM      6  C   UNL     1      -1.143  13.199  21.268  0.00  0.00    +0.000 C 
ATOM      7  C   UNL     1      -2.369  12.189  19.318  0.00  0.00    +0.000 C 
ATOM      8  C   UNL     1       0.140  12.509  19.182  0.00  0.00    +0.000 C 
ATOM      9  N   UNL     1       0.866  11.266  19.226  0.00  0.00    +0.000 N 
ATOM     10  C   UNL     1       1.635   8.558  19.292  0.00  0.00    +0.000 A 
ATOM     11  N   UNL     1       1.799   8.993  18.050  0.00  0.00    +0.000 NA
ATOM     12  N   UNL     1       2.605   8.195  17.274  0.00  0.00    +0.000 NA
ATOM     13  C   UNL     1       3.107   7.185  17.947  0.00  0.00    +0.000 A 
ATOM     14  S   UNL     1       2.603   7.149  19.592  0.00  0.00    +0.000 S 
ATOM     15  H   UNL     1       1.200  10.878  18.346  0.00  0.00    +0.000 HD
ENDROOT
BRANCH  13  16
ATOM     16  C   UNL     1       3.966   6.128  17.389  0.00  0.00    +0.000 A 
ATOM     17  C   UNL     1       5.257   6.486  16.935  0.00  0.00    +0.000 A 
ATOM     18  C   UNL     1       6.146   5.544  16.415  0.00  0.00    +0.000 A 
ATOM     19  C   UNL     1       5.773   4.214  16.353  0.00  0.00    +0.000 A 
ATOM     20  C   UNL     1       4.513   3.831  16.806  0.00  0.00    +0.000 A 
ATOM     21  C   UNL     1       3.587   4.770  17.324  0.00  0.00    +0.000 A 
BRANCH  21  22
ATOM     22  C   UNL     1       2.249   4.196  17.743  0.00  0.00    +0.000 C 
ATOM     23  F   UNL     1       1.133   4.830  17.312  0.00  0.00    +0.000 F 
ATOM     24  F   UNL     1       2.109   2.910  17.297  0.00  0.00    +0.000 F 
ATOM     25  F   UNL     1       2.138   4.112  19.102  0.00  0.00    +0.000 F 
ENDBRANCH  21  22
ENDBRANCH  13  16
TORSDOF 2
ENDMDL
MODEL 2
REMARK VINA RESULT:      -7.4      2.037      2.661
REMARK  Name = 
REMARK  5 active torsions:
REMARK  status: ('A' for Active; 'I' for Inactive)
REMARK    1  A    between atoms: C_1  and  N_2
REMARK    2  A    between atoms: C_5  and  C_6
REMARK    3  A    between atoms: C_5  and  C_7
REMARK    4  A    between atoms: C_13  and  C_14
REMARK    5  A    between atoms: C_19  and  C_20
REMARK                            x       y       z     vdW  Elec       q    Type
REMARK                         _______ _______ _______ _____ _____    ______ ____
ROOT
ATOM      1  C   UNL     1       0.525   9.623  21.428  0.00  0.00    +0.000 C 
ATOM      2  N   UNL     1       1.099   9.980  20.133  0.00  0.00    +0.000 N 
ATOM      3  C   UNL     1       1.039  11.298  19.734  0.00  0.00    +0.000 C 
ATOM      4  N   UNL     1       0.261  12.225  20.238  0.00  0.00    +0.000 NA
ATOM      5  C   UNL     1       0.541  13.454  19.436  0.00  0.00    +0.000 C 
ATOM      6  C   UNL     1       0.891  14.588  20.399  0.00  0.00    +0.000 C 
ATOM      7  C   UNL     1      -0.716  13.800  18.631  0.00  0.00    +0.000 C 
ATOM      8  C   UNL     1       1.718  13.110  18.500  0.00  0.00    +0.000 C 
ATOM      9  N   UNL     1       1.920  11.712  18.782  0.00  0.00    +0.000 N 
ATOM     10  C   UNL     1       1.607   8.971  19.346  0.00  0.00    +0.000 A 
ATOM     11  N   UNL     1       1.866   9.088  18.051  0.00  0.00    +0.000 NA
ATOM     12  N   UNL     1       2.272   7.922  17.449  0.00  0.00    +0.000 NA
ATOM     13  C   UNL     1       2.384   6.930  18.303  0.00  0.00    +0.000 A 
ATOM     14  S   UNL     1       1.980   7.375  19.916  0.00  0.00    +0.000 S 
ATOM     15  H   UNL     1       2.041  11.080  17.993  0.00  0.00    +0.000 HD
ENDROOT
BRANCH  13  16
ATOM     16  C   UNL     1       2.751   5.546  17.963  0.00  0.00    +0.000 A 
ATOM     17  C   UNL     1       1.830   4.516  18.269  0.00  0.00    +0.000 A 
ATOM     18  C   UNL     1       2.086   3.179  17.959  0.00  0.00    +0.000 A 
ATOM     19  C   UNL     1       3.262   2.840  17.316  0.00  0.00    +0.000 A 
ATOM     20  C   UNL     1       4.180   3.835  16.990  0.00  0.00    +0.000 A 
ATOM     21  C   UNL     1       3.952   5.197  17.308  0.00  0.00    +0.000 A 
BRANCH  21  22
ATOM     22  C   UNL     1       5.063   6.149  16.914  0.00  0.00    +0.000 C 
ATOM     23  F   UNL     1       5.469   7.051  17.837  0.00  0.00    +0.000 F 
ATOM     24  F   UNL     1       6.197   5.462  16.581  0.00  0.00    +0.000 F 
ATOM     25  F   UNL     1       4.743   6.866  15.797  0.00  0.00    +0.000 F 
ENDBRANCH  21  22
ENDBRANCH  13  16
TORSDOF 2
ENDMDL
MODEL 3
REMARK VINA RESULT:      -7.4      2.068      2.697
REMARK  Name = 
REMARK  5 active torsions:
REMARK  status: ('A' for Active; 'I' for Inactive)
REMARK    1  A    between atoms: C_1  and  N_2
REMARK    2  A    between atoms: C_5  and  C_6
REMARK    3  A    between atoms: C_5  and  C_7
REMARK    4  A    between atoms: C_13  and  C_14
REMARK    5  A    between atoms: C_19  and  C_20
REMARK                            x       y       z     vdW  Elec       q    Type
REMARK                         _______ _______ _______ _____ _____    ______ ____
ROOT
ATOM      1  C   UNL     1       0.439   9.293  21.601  0.00  0.00    +0.000 C 
ATOM      2  N   UNL     1       1.059   9.562  20.306  0.00  0.00    +0.000 N 
ATOM      3  C   UNL     1       1.044  10.856  19.831  0.00  0.00    +0.000 C 
ATOM      4  N   UNL     1       0.276  11.828  20.259  0.00  0.00    +0.000 NA
ATOM      5  C   UNL     1       0.611  13.003  19.399  0.00  0.00    +0.000 C 
ATOM      6  C   UNL     1       0.962  14.180  20.307  0.00  0.00    +0.000 C 
ATOM      7  C   UNL     1      -0.613  13.333  18.538  0.00  0.00    +0.000 C 
ATOM      8  C   UNL     1       1.805  12.578  18.520  0.00  0.00    +0.000 C 
ATOM      9  N   UNL     1       1.963  11.194  18.885  0.00  0.00    +0.000 N 
ATOM     10  C   UNL     1       1.563   8.498  19.592  0.00  0.00    +0.000 A 
ATOM     11  N   UNL     1       1.863   8.535  18.301  0.00  0.00    +0.000 NA
ATOM     12  N   UNL     1       2.256   7.326  17.778  0.00  0.00    +0.000 NA
ATOM     13  C   UNL     1       2.317   6.382  18.689  0.00  0.00    +0.000 A 
ATOM     14  S   UNL     1       1.878   6.928  20.261  0.00  0.00    +0.000 S 
ATOM     15  H   UNL     1       2.090  10.515  18.137  0.00  0.00    +0.000 HD
ENDROOT
BRANCH  13  16
ATOM     16  C   UNL     1       2.658   4.973  18.438  0.00  0.00    +0.000 A 
ATOM     17  C   UNL     1       1.600   4.042  18.308  0.00  0.00    +0.000 A 
ATOM     18  C   UNL     1       1.831   2.691  18.045  0.00  0.00    +0.000 A 
ATOM     19  C   UNL     1       3.128   2.239  17.885  0.00  0.00    +0.000 A 
ATOM     20  C   UNL     1       4.188   3.135  17.993  0.00  0.00    +0.000 A 
ATOM     21  C   UNL     1       3.981   4.508  18.275  0.00  0.00    +0.000 A 
BRANCH  21  22
ATOM     22  C   UNL     1       5.240   5.342  18.392  0.00  0.00    +0.000 C 
ATOM     23  F   UNL     1       5.312   6.474  17.653  0.00  0.00    +0.000 F 
ATOM     24  F   UNL     1       5.429   5.760  19.681  0.00  0.00    +0.000 F 
ATOM     25  F   UNL     1       6.357   4.618  18.088  0.00  0.00    +0.000 F 
ENDBRANCH  21  22
ENDBRANCH  13  16
TORSDOF 2
ENDMDL
MODEL 4
REMARK VINA RESULT:      -6.9      1.664      2.150
REMARK  Name = 
REMARK  5 active torsions:
REMARK  status: ('A' for Active; 'I' for Inactive)
REMARK    1  A    between atoms: C_1  and  N_2
REMARK    2  A    between atoms: C_5  and  C_6
REMARK    3  A    between atoms: C_5  and  C_7
REMARK    4  A    between atoms: C_13  and  C_14
REMARK    5  A    between atoms: C_19  and  C_20
REMARK                            x       y       z     vdW  Elec       q    Type
REMARK                         _______ _______ _______ _____ _____    ______ ____
ROOT
ATOM      1  C   UNL     1       2.065  11.009  17.820  0.00  0.00    +0.000 C 
ATOM      2  N   UNL     1       1.401  10.258  18.883  0.00  0.00    +0.000 N 
ATOM      3  C   UNL     1       0.469  10.912  19.660  0.00  0.00    +0.000 C 
ATOM      4  N   UNL     1       0.320  12.211  19.760  0.00  0.00    +0.000 NA
ATOM      5  C   UNL     1      -0.782  12.406  20.751  0.00  0.00    +0.000 C 
ATOM      6  C   UNL     1      -1.843  13.305  20.121  0.00  0.00    +0.000 C 
ATOM      7  C   UNL     1      -0.192  13.064  22.002  0.00  0.00    +0.000 C 
ATOM      8  C   UNL     1      -1.335  11.002  21.074  0.00  0.00    +0.000 C 
ATOM      9  N   UNL     1      -0.441  10.154  20.330  0.00  0.00    +0.000 N 
ATOM     10  C   UNL     1       1.792   8.956  19.101  0.00  0.00    +0.000 A 
ATOM     11  N   UNL     1       1.518   8.265  20.199  0.00  0.00    +0.000 NA
ATOM     12  N   UNL     1       2.095   7.018  20.240  0.00  0.00    +0.000 NA
ATOM     13  C   UNL     1       2.756   6.736  19.141  0.00  0.00    +0.000 A 
ATOM     14  S   UNL     1       2.718   8.007  17.982  0.00  0.00    +0.000 S 
ATOM     15  H   UNL     1      -0.066   9.331  20.797  0.00  0.00    +0.000 HD
ENDROOT
BRANCH  13  16
ATOM     16  C   UNL     1       3.522   5.504  18.897  0.00  0.00    +0.000 A 
ATOM     17  C   UNL     1       4.926   5.545  19.066  0.00  0.00    +0.000 A 
ATOM     18  C   UNL     1       5.727   4.417  18.880  0.00  0.00    +0.000 A 
ATOM     19  C   UNL     1       5.141   3.212  18.538  0.00  0.00    +0.000 A 
ATOM     20  C   UNL     1       3.759   3.139  18.379  0.00  0.00    +0.000 A 
ATOM     21  C   UNL     1       2.926   4.273  18.547  0.00  0.00    +0.000 A 
BRANCH  21  22
ATOM     22  C   UNL     1       1.450   4.033  18.306  0.00  0.00    +0.000 C 
ATOM     23  F   UNL     1       0.856   4.734  17.313  0.00  0.00    +0.000 F 
ATOM     24  F   UNL     1       1.214   2.723  17.992  0.00  0.00    +0.000 F 
ATOM     25  F   UNL     1       0.710   4.264  19.430  0.00  0.00    +0.000 F 
ENDBRANCH  21  22
ENDBRANCH  13  16
TORSDOF 2
ENDMDL
MODEL 5
REMARK VINA RESULT:      -6.9      3.418      8.203
REMARK  Name = 
REMARK  5 active torsions:
REMARK  status: ('A' for Active; 'I' for Inactive)
REMARK    1  A    between atoms: C_1  and  N_2
REMARK    2  A    between atoms: C_5  and  C_6
REMARK    3  A    between atoms: C_5  and  C_7
REMARK    4  A    between atoms: C_13  and  C_14
REMARK    5  A    between atoms: C_19  and  C_20
REMARK                            x       y       z     vdW  Elec       q    Type
REMARK                         _______ _______ _______ _____ _____    ______ ____
ROOT
ATOM      1  C   UNL     1       2.806   7.775  18.129  0.00  0.00    +0.000 C 
ATOM      2  N   UNL     1       2.196   7.248  19.347  0.00  0.00    +0.000 N 
ATOM      3  C   UNL     1       2.442   5.934  19.684  0.00  0.00    +0.000 C 
ATOM      4  N   UNL     1       2.912   5.006  18.887  0.00  0.00    +0.000 NA
ATOM      5  C   UNL     1       2.951   3.760  19.711  0.00  0.00    +0.000 C 
ATOM      6  C   UNL     1       4.360   3.177  19.638  0.00  0.00    +0.000 C 
ATOM      7  C   UNL     1       1.929   2.773  19.138  0.00  0.00    +0.000 C 
ATOM      8  C   UNL     1       2.572   4.173  21.149  0.00  0.00    +0.000 C 
ATOM      9  N   UNL     1       2.260   5.568  20.983  0.00  0.00    +0.000 N 
ATOM     10  C   UNL     1       1.350   8.068  20.059  0.00  0.00    +0.000 A 
ATOM     11  N   UNL     1       0.498   7.646  20.983  0.00  0.00    +0.000 NA
ATOM     12  N   UNL     1      -0.318   8.630  21.490  0.00  0.00    +0.000 NA
ATOM     13  C   UNL     1      -0.039   9.815  20.996  0.00  0.00    +0.000 A 
ATOM     14  S   UNL     1       1.249   9.789  19.856  0.00  0.00    +0.000 S 
ATOM     15  H   UNL     1       1.412   5.923  21.422  0.00  0.00    +0.000 HD
ENDROOT
BRANCH  13  16
ATOM     16  C   UNL     1      -0.762  11.059  21.302  0.00  0.00    +0.000 A 
ATOM     17  C   UNL     1      -0.659  11.588  22.611  0.00  0.00    +0.000 A 
ATOM     18  C   UNL     1      -1.291  12.776  22.981  0.00  0.00    +0.000 A 
ATOM     19  C   UNL     1      -2.029  13.478  22.044  0.00  0.00    +0.000 A 
ATOM     20  C   UNL     1      -2.135  12.988  20.745  0.00  0.00    +0.000 A 
ATOM     21  C   UNL     1      -1.516  11.777  20.349  0.00  0.00    +0.000 A 
BRANCH  21  22
ATOM     22  C   UNL     1      -1.757  11.367  18.910  0.00  0.00    +0.000 C 
ATOM     23  F   UNL     1      -1.947  10.052  18.658  0.00  0.00    +0.000 F 
ATOM     24  F   UNL     1      -2.872  11.980  18.409  0.00  0.00    +0.000 F 
ATOM     25  F   UNL     1      -0.738  11.768  18.093  0.00  0.00    +0.000 F 
ENDBRANCH  21  22
ENDBRANCH  13  16
TORSDOF 2
ENDMDL
MODEL 6
REMARK VINA RESULT:      -6.8      3.198      7.616
REMARK  Name = 
REMARK  5 active torsions:
REMARK  status: ('A' for Active; 'I' for Inactive)
REMARK    1  A    between atoms: C_1  and  N_2
REMARK    2  A    between atoms: C_5  and  C_6
REMARK    3  A    between atoms: C_5  and  C_7
REMARK    4  A    between atoms: C_13  and  C_14
REMARK    5  A    between atoms: C_19  and  C_20
REMARK                            x       y       z     vdW  Elec       q    Type
REMARK                         _______ _______ _______ _____ _____    ______ ____
ROOT
ATOM      1  C   UNL     1       3.382   6.571  17.420  0.00  0.00    +0.000 C 
ATOM      2  N   UNL     1       2.705   6.624  18.714  0.00  0.00    +0.000 N 
ATOM      3  C   UNL     1       2.655   5.474  19.472  0.00  0.00    +0.000 C 
ATOM      4  N   UNL     1       2.879   4.255  19.045  0.00  0.00    +0.000 NA
ATOM      5  C   UNL     1       2.658   3.374  20.231  0.00  0.00    +0.000 C 
ATOM      6  C   UNL     1       3.896   2.499  20.419  0.00  0.00    +0.000 C 
ATOM      7  C   UNL     1       1.422   2.509  19.963  0.00  0.00    +0.000 C 
ATOM      8  C   UNL     1       2.426   4.309  21.436  0.00  0.00    +0.000 C 
ATOM      9  N   UNL     1       2.434   5.606  20.809  0.00  0.00    +0.000 N 
ATOM     10  C   UNL     1       2.088   7.800  19.078  0.00  0.00    +0.000 A 
ATOM     11  N   UNL     1       1.190   7.907  20.048  0.00  0.00    +0.000 NA
ATOM     12  N   UNL     1       0.635   9.159  20.167  0.00  0.00    +0.000 NA
ATOM     13  C   UNL     1       1.160  10.022  19.328  0.00  0.00    +0.000 A 
ATOM     14  S   UNL     1       2.374   9.335  18.321  0.00  0.00    +0.000 S 
ATOM     15  H   UNL     1       1.702   6.265  21.068  0.00  0.00    +0.000 HD
ENDROOT
BRANCH  13  16
ATOM     16  C   UNL     1       0.747  11.426  19.177  0.00  0.00    +0.000 A 
ATOM     17  C   UNL     1       1.585  12.431  19.716  0.00  0.00    +0.000 A 
ATOM     18  C   UNL     1       1.284  13.788  19.597  0.00  0.00    +0.000 A 
ATOM     19  C   UNL     1       0.145  14.178  18.917  0.00  0.00    +0.000 A 
ATOM     20  C   UNL     1      -0.691  13.211  18.363  0.00  0.00    +0.000 A 
ATOM     21  C   UNL     1      -0.416  11.826  18.484  0.00  0.00    +0.000 A 
BRANCH  21  22
ATOM     22  C   UNL     1      -1.441  10.905  17.855  0.00  0.00    +0.000 C 
ATOM     23  F   UNL     1      -0.980   9.842  17.155  0.00  0.00    +0.000 F 
ATOM     24  F   UNL     1      -2.258  10.362  18.808  0.00  0.00    +0.000 F 
ATOM     25  F   UNL     1      -2.279  11.580  17.014  0.00  0.00    +0.000 F 
ENDBRANCH  21  22
ENDBRANCH  13  16
TORSDOF 2
ENDMDL
MODEL 7
REMARK VINA RESULT:      -6.8      2.013      2.650
REMARK  Name = 
REMARK  5 active torsions:
REMARK  status: ('A' for Active; 'I' for Inactive)
REMARK    1  A    between atoms: C_1  and  N_2
REMARK    2  A    between atoms: C_5  and  C_6
REMARK    3  A    between atoms: C_5  and  C_7
REMARK    4  A    between atoms: C_13  and  C_14
REMARK    5  A    between atoms: C_19  and  C_20
REMARK                            x       y       z     vdW  Elec       q    Type
REMARK                         _______ _______ _______ _____ _____    ______ ____
ROOT
ATOM      1  C   UNL     1       1.861  10.715  17.897  0.00  0.00    +0.000 C 
ATOM      2  N   UNL     1       1.245  10.140  19.091  0.00  0.00    +0.000 N 
ATOM      3  C   UNL     1       0.405  10.935  19.839  0.00  0.00    +0.000 C 
ATOM      4  N   UNL     1       0.322  12.243  19.783  0.00  0.00    +0.000 NA
ATOM      5  C   UNL     1      -0.692  12.619  20.813  0.00  0.00    +0.000 C 
ATOM      6  C   UNL     1      -1.756  13.490  20.147  0.00  0.00    +0.000 C 
ATOM      7  C   UNL     1       0.019  13.395  21.926  0.00  0.00    +0.000 C 
ATOM      8  C   UNL     1      -1.282  11.299  21.351  0.00  0.00    +0.000 C 
ATOM      9  N   UNL     1      -0.487  10.317  20.662  0.00  0.00    +0.000 N 
ATOM     10  C   UNL     1       1.592   8.856  19.447  0.00  0.00    +0.000 A 
ATOM     11  N   UNL     1       1.370   8.323  20.641  0.00  0.00    +0.000 NA
ATOM     12  N   UNL     1       1.892   7.062  20.802  0.00  0.00    +0.000 NA
ATOM     13  C   UNL     1       2.456   6.610  19.705  0.00  0.00    +0.000 A 
ATOM     14  S   UNL     1       2.388   7.726  18.398  0.00  0.00    +0.000 S 
ATOM     15  H   UNL     1      -0.115   9.540  21.204  0.00  0.00    +0.000 HD
ENDROOT
BRANCH  13  16
ATOM     16  C   UNL     1       3.144   5.317  19.569  0.00  0.00    +0.000 A 
ATOM     17  C   UNL     1       4.507   5.322  19.185  0.00  0.00    +0.000 A 
ATOM     18  C   UNL     1       5.243   4.144  19.057  0.00  0.00    +0.000 A 
ATOM     19  C   UNL     1       4.642   2.928  19.328  0.00  0.00    +0.000 A 
ATOM     20  C   UNL     1       3.306   2.894  19.722  0.00  0.00    +0.000 A 
ATOM     21  C   UNL     1       2.532   4.075  19.844  0.00  0.00    +0.000 A 
BRANCH  21  22
ATOM     22  C   UNL     1       1.088   3.863  20.250  0.00  0.00    +0.000 C 
ATOM     23  F   UNL     1       0.242   4.911  20.122  0.00  0.00    +0.000 F 
ATOM     24  F   UNL     1       0.516   2.865  19.511  0.00  0.00    +0.000 F 
ATOM     25  F   UNL     1       0.983   3.446  21.547  0.00  0.00    +0.000 F 
ENDBRANCH  21  22
ENDBRANCH  13  16
TORSDOF 2
ENDMDL
MODEL 8
REMARK VINA RESULT:      -6.7      2.564      3.074
REMARK  Name = 
REMARK  5 active torsions:
REMARK  status: ('A' for Active; 'I' for Inactive)
REMARK    1  A    between atoms: C_1  and  N_2
REMARK    2  A    between atoms: C_5  and  C_6
REMARK    3  A    between atoms: C_5  and  C_7
REMARK    4  A    between atoms: C_13  and  C_14
REMARK    5  A    between atoms: C_19  and  C_20
REMARK                            x       y       z     vdW  Elec       q    Type
REMARK                         _______ _______ _______ _____ _____    ______ ____
ROOT
ATOM      1  C   UNL     1       1.183   7.395  20.908  0.00  0.00    +0.000 C 
ATOM      2  N   UNL     1       1.519   8.292  19.806  0.00  0.00    +0.000 N 
ATOM      3  C   UNL     1       0.850   9.494  19.715  0.00  0.00    +0.000 C 
ATOM      4  N   UNL     1      -0.268   9.805  20.325  0.00  0.00    +0.000 NA
ATOM      5  C   UNL     1      -0.596  11.188  19.866  0.00  0.00    +0.000 C 
ATOM      6  C   UNL     1      -0.811  12.067  21.097  0.00  0.00    +0.000 C 
ATOM      7  C   UNL     1      -1.873  11.124  19.021  0.00  0.00    +0.000 C 
ATOM      8  C   UNL     1       0.601  11.666  19.019  0.00  0.00    +0.000 C 
ATOM      9  N   UNL     1       1.432  10.490  18.993  0.00  0.00    +0.000 N 
ATOM     10  C   UNL     1       2.435   7.862  18.872  0.00  0.00    +0.000 A 
ATOM     11  N   UNL     1       2.604   8.412  17.678  0.00  0.00    +0.000 NA
ATOM     12  N   UNL     1       3.505   7.754  16.875  0.00  0.00    +0.000 NA
ATOM     13  C   UNL     1       4.069   6.737  17.485  0.00  0.00    +0.000 A 
ATOM     14  S   UNL     1       3.512   6.520  19.099  0.00  0.00    +0.000 S 
ATOM     15  H   UNL     1       1.831  10.208  18.100  0.00  0.00    +0.000 HD
ENDROOT
BRANCH  13  16
ATOM     16  C   UNL     1       5.037   5.808  16.881  0.00  0.00    +0.000 A 
ATOM     17  C   UNL     1       4.540   4.644  16.247  0.00  0.00    +0.000 A 
ATOM     18  C   UNL     1       5.385   3.722  15.626  0.00  0.00    +0.000 A 
ATOM     19  C   UNL     1       6.749   3.950  15.608  0.00  0.00    +0.000 A 
ATOM     20  C   UNL     1       7.264   5.094  16.212  0.00  0.00    +0.000 A 
ATOM     21  C   UNL     1       6.430   6.037  16.861  0.00  0.00    +0.000 A 
BRANCH  21  22
ATOM     22  C   UNL     1       7.150   7.209  17.496  0.00  0.00    +0.000 C 
ATOM     23  F   UNL     1       6.436   8.339  17.713  0.00  0.00    +0.000 F 
ATOM     24  F   UNL     1       7.640   6.870  18.727  0.00  0.00    +0.000 F 
ATOM     25  F   UNL     1       8.244   7.584  16.771  0.00  0.00    +0.000 F 
ENDBRANCH  21  22
ENDBRANCH  13  16
TORSDOF 2
ENDMDL
MODEL 9
REMARK VINA RESULT:      -6.7      1.809      2.741
REMARK  Name = 
REMARK  5 active torsions:
REMARK  status: ('A' for Active; 'I' for Inactive)
REMARK    1  A    between atoms: C_1  and  N_2
REMARK    2  A    between atoms: C_5  and  C_6
REMARK    3  A    between atoms: C_5  and  C_7
REMARK    4  A    between atoms: C_13  and  C_14
REMARK    5  A    between atoms: C_19  and  C_20
REMARK                            x       y       z     vdW  Elec       q    Type
REMARK                         _______ _______ _______ _____ _____    ______ ____
ROOT
ATOM      1  C   UNL     1      -0.493  11.532  18.443  0.00  0.00    +0.000 C 
ATOM      2  N   UNL     1      -0.268  10.866  19.724  0.00  0.00    +0.000 N 
ATOM      3  C   UNL     1      -0.801  11.437  20.859  0.00  0.00    +0.000 C 
ATOM      4  N   UNL     1      -1.232  12.670  20.976  0.00  0.00    +0.000 NA
ATOM      5  C   UNL     1      -1.663  12.804  22.400  0.00  0.00    +0.000 C 
ATOM      6  C   UNL     1      -3.099  13.325  22.422  0.00  0.00    +0.000 C 
ATOM      7  C   UNL     1      -0.721  13.792  23.096  0.00  0.00    +0.000 C 
ATOM      8  C   UNL     1      -1.551  11.399  23.027  0.00  0.00    +0.000 C 
ATOM      9  N   UNL     1      -0.978  10.639  21.947  0.00  0.00    +0.000 N 
ATOM     10  C   UNL     1       0.524   9.740  19.742  0.00  0.00    +0.000 A 
ATOM     11  N   UNL     1       1.065   9.220  20.835  0.00  0.00    +0.000 NA
ATOM     12  N   UNL     1       1.901   8.155  20.600  0.00  0.00    +0.000 NA
ATOM     13  C   UNL     1       1.944   7.823  19.330  0.00  0.00    +0.000 A 
ATOM     14  S   UNL     1       0.957   8.821  18.334  0.00  0.00    +0.000 S 
ATOM     15  H   UNL     1      -0.203  10.015  22.163  0.00  0.00    +0.000 HD
ENDROOT
BRANCH  13  16
ATOM     16  C   UNL     1       2.780   6.759  18.753  0.00  0.00    +0.000 A 
ATOM     17  C   UNL     1       3.680   7.104  17.716  0.00  0.00    +0.000 A 
ATOM     18  C   UNL     1       4.527   6.164  17.129  0.00  0.00    +0.000 A 
ATOM     19  C   UNL     1       4.511   4.855  17.577  0.00  0.00    +0.000 A 
ATOM     20  C   UNL     1       3.646   4.491  18.606  0.00  0.00    +0.000 A 
ATOM     21  C   UNL     1       2.765   5.423  19.207  0.00  0.00    +0.000 A 
BRANCH  21  22
ATOM     22  C   UNL     1       1.866   4.859  20.289  0.00  0.00    +0.000 C 
ATOM     23  F   UNL     1       0.590   5.308  20.339  0.00  0.00    +0.000 F 
ATOM     24  F   UNL     1       1.750   3.502  20.167  0.00  0.00    +0.000 F 
ATOM     25  F   UNL     1       2.388   5.058  21.535  0.00  0.00    +0.000 F 
ENDBRANCH  21  22
ENDBRANCH  13  16
TORSDOF 2
ENDMDL
