MODEL 1
REMARK VINA RESULT:      -7.6      0.000      0.000
REMARK  Name = 
REMARK  12 active torsions:
REMARK  status: ('A' for Active; 'I' for Inactive)
REMARK    1  A    between atoms: C_1  and  C_2
REMARK    2  A    between atoms: C_2  and  O_3
REMARK    3  A    between atoms: O_3  and  C_4
REMARK    4  A    between atoms: C_7  and  N_8
REMARK    5  A    between atoms: N_8  and  C_9
REMARK    6  A    between atoms: N_8  and  S_19
REMARK    7  A    between atoms: C_9  and  C_10
REMARK    8  A    between atoms: N_12  and  C_13
REMARK    9  A    between atoms: C_13  and  C_14
REMARK   10  A    between atoms: S_19  and  C_22
REMARK   11  A    between atoms: C_23  and  C_24
REMARK   12  A    between atoms: C_27  and  C_28
REMARK                            x       y       z     vdW  Elec       q    Type
REMARK                         _______ _______ _______ _____ _____    ______ ____
ROOT
ATOM      1  N   UNL     1       4.104   4.932  18.222  0.00  0.00    +0.000 N 
ENDROOT
BRANCH   1   5
ATOM      2  C   UNL     1       1.898   8.472  19.010  0.00  0.00    +0.000 A 
ATOM      3  C   UNL     1       2.007   7.468  19.972  0.00  0.00    +0.000 A 
ATOM      4  C   UNL     1       2.755   6.317  19.730  0.00  0.00    +0.000 A 
ATOM      5  C   UNL     1       3.405   6.156  18.510  0.00  0.00    +0.000 A 
ATOM      6  C   UNL     1       3.287   7.152  17.532  0.00  0.00    +0.000 A 
ATOM      7  C   UNL     1       2.544   8.319  17.784  0.00  0.00    +0.000 A 
BRANCH   2   8
ATOM      8  O   UNL     1       1.075   9.494  19.377  0.00  0.00    +0.000 OA
BRANCH   8  10
ATOM      9  C   UNL     1      -1.111  10.331  19.071  0.00  0.00    +0.000 C 
ATOM     10  C   UNL     1       0.223  10.063  18.387  0.00  0.00    +0.000 C 
ENDBRANCH   8  10
ENDBRANCH   2   8
ENDBRANCH   1   5
BRANCH   1  11
ATOM     11  S   UNL     1       3.148   3.508  18.194  0.00  0.00    +0.000 S 
ATOM     12  O   UNL     1       1.879   3.814  17.566  0.00  0.00    +0.000 OA
ATOM     13  O   UNL     1       3.969   2.421  17.704  0.00  0.00    +0.000 OA
BRANCH  11  14
ATOM     14  C   UNL     1       2.714   2.995  19.785  0.00  0.00    +0.000 A 
ATOM     15  C   UNL     1       3.514   2.323  20.745  0.00  0.00    +0.000 A 
ATOM     16  C   UNL     1       4.902   1.807  20.705  0.00  0.00    +0.000 C 
ATOM     17  N   UNL     1       2.820   2.106  21.872  0.00  0.00    +0.000 NA
ATOM     18  O   UNL     1       1.542   2.544  21.625  0.00  0.00    +0.000 OA
ATOM     19  C   UNL     1       1.463   3.043  20.364  0.00  0.00    +0.000 A 
ATOM     20  C   UNL     1       0.107   3.441  19.939  0.00  0.00    +0.000 C 
ENDBRANCH  11  14
ENDBRANCH   1  11
BRANCH   1  21
ATOM     21  C   UNL     1       5.475   4.746  18.750  0.00  0.00    +0.000 C 
BRANCH  21  22
ATOM     22  C   UNL     1       6.627   4.728  17.755  0.00  0.00    +0.000 C 
ATOM     23  O   UNL     1       7.771   4.400  18.062  0.00  0.00    +0.000 OA
ATOM     24  N   UNL     1       6.287   5.152  16.478  0.00  0.00    +0.000 N 
ATOM     25  H   UNL     1       5.373   5.550  16.303  0.00  0.00    +0.000 HD
BRANCH  24  26
ATOM     26  C   UNL     1       7.304   5.424  15.485  0.00  0.00    +0.000 C 
BRANCH  26  27
ATOM     27  C   UNL     1       6.931   4.756  14.198  0.00  0.00    +0.000 A 
ATOM     28  C   UNL     1       5.899   3.865  13.970  0.00  0.00    +0.000 A 
ATOM     29  C   UNL     1       5.897   3.361  12.638  0.00  0.00    +0.000 A 
ATOM     30  C   UNL     1       6.915   3.895  11.883  0.00  0.00    +0.000 A 
ATOM     31  S   UNL     1       7.853   5.017  12.774  0.00  0.00    +0.000 S 
ENDBRANCH  26  27
ENDBRANCH  24  26
ENDBRANCH  21  22
ENDBRANCH   1  21
TORSDOF 9
ENDMDL
MODEL 2
REMARK VINA RESULT:      -7.5      0.961      1.941
REMARK  Name = 
REMARK  12 active torsions:
REMARK  status: ('A' for Active; 'I' for Inactive)
REMARK    1  A    between atoms: C_1  and  C_2
REMARK    2  A    between atoms: C_2  and  O_3
REMARK    3  A    between atoms: O_3  and  C_4
REMARK    4  A    between atoms: C_7  and  N_8
REMARK    5  A    between atoms: N_8  and  C_9
REMARK    6  A    between atoms: N_8  and  S_19
REMARK    7  A    between atoms: C_9  and  C_10
REMARK    8  A    between atoms: N_12  and  C_13
REMARK    9  A    between atoms: C_13  and  C_14
REMARK   10  A    between atoms: S_19  and  C_22
REMARK   11  A    between atoms: C_23  and  C_24
REMARK   12  A    between atoms: C_27  and  C_28
REMARK                            x       y       z     vdW  Elec       q    Type
REMARK                         _______ _______ _______ _____ _____    ______ ____
ROOT
ATOM      1  N   UNL     1       3.963   5.423  18.389  0.00  0.00    +0.000 N 
ENDROOT
BRANCH   1   5
ATOM      2  C   UNL     1       1.618   8.913  18.972  0.00  0.00    +0.000 A 
ATOM      3  C   UNL     1       2.224   8.655  17.742  0.00  0.00    +0.000 A 
ATOM      4  C   UNL     1       2.970   7.496  17.536  0.00  0.00    +0.000 A 
ATOM      5  C   UNL     1       3.122   6.575  18.569  0.00  0.00    +0.000 A 
ATOM      6  C   UNL     1       2.530   6.834  19.812  0.00  0.00    +0.000 A 
ATOM      7  C   UNL     1       1.765   7.997  20.012  0.00  0.00    +0.000 A 
BRANCH   2   8
ATOM      8  O   UNL     1       0.988  10.119  19.028  0.00  0.00    +0.000 OA
BRANCH   8  10
ATOM      9  C   UNL     1       1.316  12.145  20.194  0.00  0.00    +0.000 C 
ATOM     10  C   UNL     1       0.791  10.720  20.305  0.00  0.00    +0.000 C 
ENDBRANCH   8  10
ENDBRANCH   2   8
ENDBRANCH   1   5
BRANCH   1  11
ATOM     11  S   UNL     1       3.159   3.910  18.295  0.00  0.00    +0.000 S 
ATOM     12  O   UNL     1       1.848   4.117  17.715  0.00  0.00    +0.000 OA
ATOM     13  O   UNL     1       4.075   2.945  17.724  0.00  0.00    +0.000 OA
BRANCH  11  14
ATOM     14  C   UNL     1       2.825   3.264  19.862  0.00  0.00    +0.000 A 
ATOM     15  C   UNL     1       1.708   3.511  20.700  0.00  0.00    +0.000 A 
ATOM     16  C   UNL     1       0.531   4.400  20.561  0.00  0.00    +0.000 C 
ATOM     17  N   UNL     1       1.805   2.810  21.839  0.00  0.00    +0.000 NA
ATOM     18  O   UNL     1       3.024   2.178  21.797  0.00  0.00    +0.000 OA
ATOM     19  C   UNL     1       3.656   2.476  20.632  0.00  0.00    +0.000 A 
ATOM     20  C   UNL     1       5.028   1.946  20.519  0.00  0.00    +0.000 C 
ENDBRANCH  11  14
ENDBRANCH   1  11
BRANCH   1  21
ATOM     21  C   UNL     1       5.281   5.382  19.064  0.00  0.00    +0.000 C 
BRANCH  21  22
ATOM     22  C   UNL     1       6.529   5.505  18.201  0.00  0.00    +0.000 C 
ATOM     23  O   UNL     1       7.569   6.024  18.600  0.00  0.00    +0.000 OA
ATOM     24  N   UNL     1       6.382   5.019  16.909  0.00  0.00    +0.000 N 
ATOM     25  H   UNL     1       5.471   4.733  16.576  0.00  0.00    +0.000 HD
BRANCH  24  26
ATOM     26  C   UNL     1       7.383   5.276  15.896  0.00  0.00    +0.000 C 
BRANCH  26  27
ATOM     27  C   UNL     1       6.913   4.729  14.584  0.00  0.00    +0.000 A 
ATOM     28  C   UNL     1       5.807   3.937  14.341  0.00  0.00    +0.000 A 
ATOM     29  C   UNL     1       5.717   3.527  12.980  0.00  0.00    +0.000 A 
ATOM     30  C   UNL     1       6.745   4.033  12.220  0.00  0.00    +0.000 A 
ATOM     31  S   UNL     1       7.800   5.016  13.144  0.00  0.00    +0.000 S 
ENDBRANCH  26  27
ENDBRANCH  24  26
ENDBRANCH  21  22
ENDBRANCH   1  21
TORSDOF 9
ENDMDL
MODEL 3
REMARK VINA RESULT:      -7.4      0.904      1.685
REMARK  Name = 
REMARK  12 active torsions:
REMARK  status: ('A' for Active; 'I' for Inactive)
REMARK    1  A    between atoms: C_1  and  C_2
REMARK    2  A    between atoms: C_2  and  O_3
REMARK    3  A    between atoms: O_3  and  C_4
REMARK    4  A    between atoms: C_7  and  N_8
REMARK    5  A    between atoms: N_8  and  C_9
REMARK    6  A    between atoms: N_8  and  S_19
REMARK    7  A    between atoms: C_9  and  C_10
REMARK    8  A    between atoms: N_12  and  C_13
REMARK    9  A    between atoms: C_13  and  C_14
REMARK   10  A    between atoms: S_19  and  C_22
REMARK   11  A    between atoms: C_23  and  C_24
REMARK   12  A    between atoms: C_27  and  C_28
REMARK                            x       y       z     vdW  Elec       q    Type
REMARK                         _______ _______ _______ _____ _____    ______ ____
ROOT
ATOM      1  N   UNL     1       3.847   5.671  18.277  0.00  0.00    +0.000 N 
ENDROOT
BRANCH   1   5
ATOM      2  C   UNL     1       1.495   9.139  18.955  0.00  0.00    +0.000 A 
ATOM      3  C   UNL     1       1.728   8.221  19.979  0.00  0.00    +0.000 A 
ATOM      4  C   UNL     1       2.524   7.096  19.770  0.00  0.00    +0.000 A 
ATOM      5  C   UNL     1       3.099   6.875  18.522  0.00  0.00    +0.000 A 
ATOM      6  C   UNL     1       2.857   7.784  17.483  0.00  0.00    +0.000 A 
ATOM      7  C   UNL     1       2.065   8.925  17.701  0.00  0.00    +0.000 A 
BRANCH   2   8
ATOM      8  O   UNL     1       0.640  10.141  19.303  0.00  0.00    +0.000 OA
BRANCH   8  10
ATOM      9  C   UNL     1      -0.346  11.006  21.265  0.00  0.00    +0.000 C 
ATOM     10  C   UNL     1      -0.374   9.859  20.264  0.00  0.00    +0.000 C 
ENDBRANCH   8  10
ENDBRANCH   2   8
ENDBRANCH   1   5
BRANCH   1  11
ATOM     11  S   UNL     1       2.929   4.228  18.138  0.00  0.00    +0.000 S 
ATOM     12  O   UNL     1       1.594   4.570  17.693  0.00  0.00    +0.000 OA
ATOM     13  O   UNL     1       3.721   3.256  17.415  0.00  0.00    +0.000 OA
BRANCH  11  14
ATOM     14  C   UNL     1       2.679   3.477  19.673  0.00  0.00    +0.000 A 
ATOM     15  C   UNL     1       1.640   3.707  20.610  0.00  0.00    +0.000 A 
ATOM     16  C   UNL     1       0.501   4.654  20.628  0.00  0.00    +0.000 C 
ATOM     17  N   UNL     1       1.785   2.916  21.683  0.00  0.00    +0.000 NA
ATOM     18  O   UNL     1       2.965   2.237  21.502  0.00  0.00    +0.000 OA
ATOM     19  C   UNL     1       3.524   2.597  20.317  0.00  0.00    +0.000 A 
ATOM     20  C   UNL     1       4.857   2.018  20.061  0.00  0.00    +0.000 C 
ENDBRANCH  11  14
ENDBRANCH   1  11
BRANCH   1  21
ATOM     21  C   UNL     1       5.170   5.503  18.922  0.00  0.00    +0.000 C 
BRANCH  21  22
ATOM     22  C   UNL     1       6.335   5.048  18.054  0.00  0.00    +0.000 C 
ATOM     23  O   UNL     1       7.303   4.437  18.502  0.00  0.00    +0.000 OA
ATOM     24  N   UNL     1       6.233   5.416  16.720  0.00  0.00    +0.000 N 
ATOM     25  H   UNL     1       5.495   6.041  16.422  0.00  0.00    +0.000 HD
BRANCH  24  26
ATOM     26  C   UNL     1       7.355   5.275  15.818  0.00  0.00    +0.000 C 
BRANCH  26  27
ATOM     27  C   UNL     1       6.878   4.714  14.515  0.00  0.00    +0.000 A 
ATOM     28  C   UNL     1       5.767   3.924  14.286  0.00  0.00    +0.000 A 
ATOM     29  C   UNL     1       5.670   3.496  12.932  0.00  0.00    +0.000 A 
ATOM     30  C   UNL     1       6.699   3.987  12.161  0.00  0.00    +0.000 A 
ATOM     31  S   UNL     1       7.762   4.977  13.069  0.00  0.00    +0.000 S 
ENDBRANCH  26  27
ENDBRANCH  24  26
ENDBRANCH  21  22
ENDBRANCH   1  21
TORSDOF 9
ENDMDL
MODEL 4
REMARK VINA RESULT:      -7.3      0.767      1.167
REMARK  Name = 
REMARK  12 active torsions:
REMARK  status: ('A' for Active; 'I' for Inactive)
REMARK    1  A    between atoms: C_1  and  C_2
REMARK    2  A    between atoms: C_2  and  O_3
REMARK    3  A    between atoms: O_3  and  C_4
REMARK    4  A    between atoms: C_7  and  N_8
REMARK    5  A    between atoms: N_8  and  C_9
REMARK    6  A    between atoms: N_8  and  S_19
REMARK    7  A    between atoms: C_9  and  C_10
REMARK    8  A    between atoms: N_12  and  C_13
REMARK    9  A    between atoms: C_13  and  C_14
REMARK   10  A    between atoms: S_19  and  C_22
REMARK   11  A    between atoms: C_23  and  C_24
REMARK   12  A    between atoms: C_27  and  C_28
REMARK                            x       y       z     vdW  Elec       q    Type
REMARK                         _______ _______ _______ _____ _____    ______ ____
ROOT
ATOM      1  N   UNL     1       3.961   5.466  18.353  0.00  0.00    +0.000 N 
ENDROOT
BRANCH   1   5
ATOM      2  C   UNL     1       1.598   8.934  18.994  0.00  0.00    +0.000 A 
ATOM      3  C   UNL     1       2.230   8.714  17.770  0.00  0.00    +0.000 A 
ATOM      4  C   UNL     1       2.982   7.563  17.544  0.00  0.00    +0.000 A 
ATOM      5  C   UNL     1       3.114   6.611  18.551  0.00  0.00    +0.000 A 
ATOM      6  C   UNL     1       2.496   6.832  19.789  0.00  0.00    +0.000 A 
ATOM      7  C   UNL     1       1.726   7.987  20.009  0.00  0.00    +0.000 A 
BRANCH   2   8
ATOM      8  O   UNL     1       0.965  10.137  19.075  0.00  0.00    +0.000 OA
BRANCH   8  10
ATOM      9  C   UNL     1      -0.823  11.232  20.158  0.00  0.00    +0.000 C 
ATOM     10  C   UNL     1       0.545  10.595  20.356  0.00  0.00    +0.000 C 
ENDBRANCH   8  10
ENDBRANCH   2   8
ENDBRANCH   1   5
BRANCH   1  11
ATOM     11  S   UNL     1       3.168   3.947  18.275  0.00  0.00    +0.000 S 
ATOM     12  O   UNL     1       1.852   4.140  17.700  0.00  0.00    +0.000 OA
ATOM     13  O   UNL     1       4.088   2.985  17.706  0.00  0.00    +0.000 OA
BRANCH  11  14
ATOM     14  C   UNL     1       2.847   3.309  19.848  0.00  0.00    +0.000 A 
ATOM     15  C   UNL     1       3.662   2.460  20.639  0.00  0.00    +0.000 A 
ATOM     16  C   UNL     1       4.971   1.813  20.390  0.00  0.00    +0.000 C 
ATOM     17  N   UNL     1       3.069   2.192  21.813  0.00  0.00    +0.000 NA
ATOM     18  O   UNL     1       1.830   2.782  21.758  0.00  0.00    +0.000 OA
ATOM     19  C   UNL     1       1.677   3.421  20.569  0.00  0.00    +0.000 A 
ATOM     20  C   UNL     1       0.337   3.999  20.345  0.00  0.00    +0.000 C 
ENDBRANCH  11  14
ENDBRANCH   1  11
BRANCH   1  21
ATOM     21  C   UNL     1       5.293   5.436  19.001  0.00  0.00    +0.000 C 
BRANCH  21  22
ATOM     22  C   UNL     1       6.520   5.634  18.121  0.00  0.00    +0.000 C 
ATOM     23  O   UNL     1       7.467   6.346  18.447  0.00  0.00    +0.000 OA
ATOM     24  N   UNL     1       6.461   4.976  16.901  0.00  0.00    +0.000 N 
ATOM     25  H   UNL     1       5.606   4.521  16.612  0.00  0.00    +0.000 HD
BRANCH  24  26
ATOM     26  C   UNL     1       7.425   5.251  15.857  0.00  0.00    +0.000 C 
BRANCH  26  27
ATOM     27  C   UNL     1       6.922   4.701  14.559  0.00  0.00    +0.000 A 
ATOM     28  C   UNL     1       5.815   3.900  14.348  0.00  0.00    +0.000 A 
ATOM     29  C   UNL     1       5.690   3.490  12.990  0.00  0.00    +0.000 A 
ATOM     30  C   UNL     1       6.692   4.003  12.201  0.00  0.00    +0.000 A 
ATOM     31  S   UNL     1       7.765   4.995  13.095  0.00  0.00    +0.000 S 
ENDBRANCH  26  27
ENDBRANCH  24  26
ENDBRANCH  21  22
ENDBRANCH   1  21
TORSDOF 9
ENDMDL
MODEL 5
REMARK VINA RESULT:      -7.3      2.953      7.377
REMARK  Name = 
REMARK  12 active torsions:
REMARK  status: ('A' for Active; 'I' for Inactive)
REMARK    1  A    between atoms: C_1  and  C_2
REMARK    2  A    between atoms: C_2  and  O_3
REMARK    3  A    between atoms: O_3  and  C_4
REMARK    4  A    between atoms: C_7  and  N_8
REMARK    5  A    between atoms: N_8  and  C_9
REMARK    6  A    between atoms: N_8  and  S_19
REMARK    7  A    between atoms: C_9  and  C_10
REMARK    8  A    between atoms: N_12  and  C_13
REMARK    9  A    between atoms: C_13  and  C_14
REMARK   10  A    between atoms: S_19  and  C_22
REMARK   11  A    between atoms: C_23  and  C_24
REMARK   12  A    between atoms: C_27  and  C_28
REMARK                            x       y       z     vdW  Elec       q    Type
REMARK                         _______ _______ _______ _____ _____    ______ ____
ROOT
ATOM      1  N   UNL     1       3.417   6.689  17.346  0.00  0.00    +0.000 N 
ENDROOT
BRANCH   1   5
ATOM      2  C   UNL     1       1.317   3.965  19.833  0.00  0.00    +0.000 A 
ATOM      3  C   UNL     1       1.855   5.142  20.355  0.00  0.00    +0.000 A 
ATOM      4  C   UNL     1       2.519   6.054  19.536  0.00  0.00    +0.000 A 
ATOM      5  C   UNL     1       2.657   5.795  18.176  0.00  0.00    +0.000 A 
ATOM      6  C   UNL     1       2.133   4.607  17.647  0.00  0.00    +0.000 A 
ATOM      7  C   UNL     1       1.451   3.696  18.472  0.00  0.00    +0.000 A 
BRANCH   2   8
ATOM      8  O   UNL     1       0.765   3.152  20.776  0.00  0.00    +0.000 OA
BRANCH   8  10
ATOM      9  C   UNL     1       2.932   2.380  21.305  0.00  0.00    +0.000 C 
ATOM     10  C   UNL     1       1.572   2.753  21.880  0.00  0.00    +0.000 C 
ENDBRANCH   8  10
ENDBRANCH   2   8
ENDBRANCH   1   5
BRANCH   1  11
ATOM     11  S   UNL     1       4.871   6.055  16.690  0.00  0.00    +0.000 S 
ATOM     12  O   UNL     1       4.641   4.680  16.297  0.00  0.00    +0.000 OA
ATOM     13  O   UNL     1       5.396   7.015  15.742  0.00  0.00    +0.000 OA
BRANCH  11  14
ATOM     14  C   UNL     1       6.117   5.947  17.881  0.00  0.00    +0.000 A 
ATOM     15  C   UNL     1       6.229   5.036  18.962  0.00  0.00    +0.000 A 
ATOM     16  C   UNL     1       5.342   3.958  19.456  0.00  0.00    +0.000 C 
ATOM     17  N   UNL     1       7.351   5.264  19.661  0.00  0.00    +0.000 NA
ATOM     18  O   UNL     1       7.929   6.378  19.103  0.00  0.00    +0.000 OA
ATOM     19  C   UNL     1       7.175   6.814  18.061  0.00  0.00    +0.000 A 
ATOM     20  C   UNL     1       7.634   8.077  17.450  0.00  0.00    +0.000 C 
ENDBRANCH  11  14
ENDBRANCH   1  11
BRANCH   1  21
ATOM     21  C   UNL     1       3.474   8.126  17.699  0.00  0.00    +0.000 C 
BRANCH  21  22
ATOM     22  C   UNL     1       2.158   8.857  17.930  0.00  0.00    +0.000 C 
ATOM     23  O   UNL     1       1.212   8.793  17.149  0.00  0.00    +0.000 OA
ATOM     24  N   UNL     1       2.131   9.636  19.079  0.00  0.00    +0.000 N 
ATOM     25  H   UNL     1       2.976   9.776  19.616  0.00  0.00    +0.000 HD
BRANCH  24  26
ATOM     26  C   UNL     1       1.056  10.575  19.319  0.00  0.00    +0.000 C 
BRANCH  26  27
ATOM     27  C   UNL     1       0.424  10.279  20.643  0.00  0.00    +0.000 A 
ATOM     28  C   UNL     1       0.288   9.051  21.264  0.00  0.00    +0.000 A 
ATOM     29  C   UNL     1      -0.449   9.133  22.479  0.00  0.00    +0.000 A 
ATOM     30  C   UNL     1      -0.838  10.422  22.761  0.00  0.00    +0.000 A 
ATOM     31  S   UNL     1      -0.294  11.529  21.573  0.00  0.00    +0.000 S 
ENDBRANCH  26  27
ENDBRANCH  24  26
ENDBRANCH  21  22
ENDBRANCH   1  21
TORSDOF 9
ENDMDL
MODEL 6
REMARK VINA RESULT:      -7.2      0.840      1.939
REMARK  Name = 
REMARK  12 active torsions:
REMARK  status: ('A' for Active; 'I' for Inactive)
REMARK    1  A    between atoms: C_1  and  C_2
REMARK    2  A    between atoms: C_2  and  O_3
REMARK    3  A    between atoms: O_3  and  C_4
REMARK    4  A    between atoms: C_7  and  N_8
REMARK    5  A    between atoms: N_8  and  C_9
REMARK    6  A    between atoms: N_8  and  S_19
REMARK    7  A    between atoms: C_9  and  C_10
REMARK    8  A    between atoms: N_12  and  C_13
REMARK    9  A    between atoms: C_13  and  C_14
REMARK   10  A    between atoms: S_19  and  C_22
REMARK   11  A    between atoms: C_23  and  C_24
REMARK   12  A    between atoms: C_27  and  C_28
REMARK                            x       y       z     vdW  Elec       q    Type
REMARK                         _______ _______ _______ _____ _____    ______ ____
ROOT
ATOM      1  N   UNL     1       4.102   4.717  18.224  0.00  0.00    +0.000 N 
ENDROOT
BRANCH   1   5
ATOM      2  C   UNL     1       2.175   8.466  18.718  0.00  0.00    +0.000 A 
ATOM      3  C   UNL     1       2.759   8.117  17.500  0.00  0.00    +0.000 A 
ATOM      4  C   UNL     1       3.366   6.875  17.323  0.00  0.00    +0.000 A 
ATOM      5  C   UNL     1       3.400   5.963  18.374  0.00  0.00    +0.000 A 
ATOM      6  C   UNL     1       2.830   6.312  19.605  0.00  0.00    +0.000 A 
ATOM      7  C   UNL     1       2.205   7.560  19.776  0.00  0.00    +0.000 A 
BRANCH   2   8
ATOM      8  O   UNL     1       1.689   9.739  18.745  0.00  0.00    +0.000 OA
BRANCH   8  10
ATOM      9  C   UNL     1       0.329  11.186  20.020  0.00  0.00    +0.000 C 
ATOM     10  C   UNL     1       0.338   9.938  19.149  0.00  0.00    +0.000 C 
ENDBRANCH   8  10
ENDBRANCH   2   8
ENDBRANCH   1   5
BRANCH   1  11
ATOM     11  S   UNL     1       3.142   3.297  18.290  0.00  0.00    +0.000 S 
ATOM     12  O   UNL     1       1.850   3.583  17.700  0.00  0.00    +0.000 OA
ATOM     13  O   UNL     1       3.941   2.188  17.815  0.00  0.00    +0.000 OA
BRANCH  11  14
ATOM     14  C   UNL     1       2.769   2.851  19.917  0.00  0.00    +0.000 A 
ATOM     15  C   UNL     1       1.622   3.185  20.683  0.00  0.00    +0.000 A 
ATOM     16  C   UNL     1       0.439   4.027  20.397  0.00  0.00    +0.000 C 
ATOM     17  N   UNL     1       1.693   2.637  21.906  0.00  0.00    +0.000 NA
ATOM     18  O   UNL     1       2.921   2.027  21.981  0.00  0.00    +0.000 OA
ATOM     19  C   UNL     1       3.585   2.183  20.806  0.00  0.00    +0.000 A 
ATOM     20  C   UNL     1       4.968   1.667  20.802  0.00  0.00    +0.000 C 
ENDBRANCH  11  14
ENDBRANCH   1  11
BRANCH   1  21
ATOM     21  C   UNL     1       5.454   4.578  18.815  0.00  0.00    +0.000 C 
BRANCH  21  22
ATOM     22  C   UNL     1       6.657   4.793  17.907  0.00  0.00    +0.000 C 
ATOM     23  O   UNL     1       7.813   4.807  18.322  0.00  0.00    +0.000 OA
ATOM     24  N   UNL     1       6.335   5.013  16.575  0.00  0.00    +0.000 N 
ATOM     25  H   UNL     1       5.369   5.137  16.300  0.00  0.00    +0.000 HD
BRANCH  24  26
ATOM     26  C   UNL     1       7.333   5.471  15.632  0.00  0.00    +0.000 C 
BRANCH  26  27
ATOM     27  C   UNL     1       7.082   4.838  14.299  0.00  0.00    +0.000 A 
ATOM     28  C   UNL     1       7.753   5.064  13.111  0.00  0.00    +0.000 A 
ATOM     29  C   UNL     1       7.184   4.350  12.018  0.00  0.00    +0.000 A 
ATOM     30  C   UNL     1       6.109   3.585  12.405  0.00  0.00    +0.000 A 
ATOM     31  S   UNL     1       5.804   3.713  14.086  0.00  0.00    +0.000 S 
ENDBRANCH  26  27
ENDBRANCH  24  26
ENDBRANCH  21  22
ENDBRANCH   1  21
TORSDOF 9
ENDMDL
MODEL 7
REMARK VINA RESULT:      -7.2      2.956      7.415
REMARK  Name = 
REMARK  12 active torsions:
REMARK  status: ('A' for Active; 'I' for Inactive)
REMARK    1  A    between atoms: C_1  and  C_2
REMARK    2  A    between atoms: C_2  and  O_3
REMARK    3  A    between atoms: O_3  and  C_4
REMARK    4  A    between atoms: C_7  and  N_8
REMARK    5  A    between atoms: N_8  and  C_9
REMARK    6  A    between atoms: N_8  and  S_19
REMARK    7  A    between atoms: C_9  and  C_10
REMARK    8  A    between atoms: N_12  and  C_13
REMARK    9  A    between atoms: C_13  and  C_14
REMARK   10  A    between atoms: S_19  and  C_22
REMARK   11  A    between atoms: C_23  and  C_24
REMARK   12  A    between atoms: C_27  and  C_28
REMARK                            x       y       z     vdW  Elec       q    Type
REMARK                         _______ _______ _______ _____ _____    ______ ____
ROOT
ATOM      1  N   UNL     1       3.457   6.774  17.331  0.00  0.00    +0.000 N 
ENDROOT
BRANCH   1   5
ATOM      2  C   UNL     1       1.482   4.211  20.078  0.00  0.00    +0.000 A 
ATOM      3  C   UNL     1       1.447   3.954  18.707  0.00  0.00    +0.000 A 
ATOM      4  C   UNL     1       2.119   4.775  17.803  0.00  0.00    +0.000 A 
ATOM      5  C   UNL     1       2.837   5.875  18.266  0.00  0.00    +0.000 A 
ATOM      6  C   UNL     1       2.863   6.150  19.639  0.00  0.00    +0.000 A 
ATOM      7  C   UNL     1       2.196   5.311  20.550  0.00  0.00    +0.000 A 
BRANCH   2   8
ATOM      8  O   UNL     1       0.716   3.357  20.813  0.00  0.00    +0.000 OA
BRANCH   8  10
ATOM      9  C   UNL     1       2.822   2.451  21.372  0.00  0.00    +0.000 C 
ATOM     10  C   UNL     1       1.360   2.540  21.786  0.00  0.00    +0.000 C 
ENDBRANCH   8  10
ENDBRANCH   2   8
ENDBRANCH   1   5
BRANCH   1  11
ATOM     11  S   UNL     1       4.907   6.220  16.601  0.00  0.00    +0.000 S 
ATOM     12  O   UNL     1       4.684   4.885  16.083  0.00  0.00    +0.000 OA
ATOM     13  O   UNL     1       5.411   7.270  15.741  0.00  0.00    +0.000 OA
BRANCH  11  14
ATOM     14  C   UNL     1       6.171   6.013  17.760  0.00  0.00    +0.000 A 
ATOM     15  C   UNL     1       6.302   5.010  18.754  0.00  0.00    +0.000 A 
ATOM     16  C   UNL     1       5.428   3.886  19.161  0.00  0.00    +0.000 C 
ATOM     17  N   UNL     1       7.432   5.181  19.455  0.00  0.00    +0.000 NA
ATOM     18  O   UNL     1       7.997   6.345  18.992  0.00  0.00    +0.000 OA
ATOM     19  C   UNL     1       7.226   6.868  18.003  0.00  0.00    +0.000 A 
ATOM     20  C   UNL     1       7.670   8.183  17.502  0.00  0.00    +0.000 C 
ENDBRANCH  11  14
ENDBRANCH   1  11
BRANCH   1  21
ATOM     21  C   UNL     1       3.418   8.231  17.599  0.00  0.00    +0.000 C 
BRANCH  21  22
ATOM     22  C   UNL     1       2.063   8.870  17.873  0.00  0.00    +0.000 C 
ATOM     23  O   UNL     1       1.095   8.728  17.130  0.00  0.00    +0.000 OA
ATOM     24  N   UNL     1       2.025   9.661  19.013  0.00  0.00    +0.000 N 
ATOM     25  H   UNL     1       2.878   9.868  19.515  0.00  0.00    +0.000 HD
BRANCH  24  26
ATOM     26  C   UNL     1       0.896  10.526  19.284  0.00  0.00    +0.000 C 
BRANCH  26  27
ATOM     27  C   UNL     1       0.407  10.282  20.677  0.00  0.00    +0.000 A 
ATOM     28  C   UNL     1      -0.426  11.081  21.438  0.00  0.00    +0.000 A 
ATOM     29  C   UNL     1      -0.609  10.580  22.757  0.00  0.00    +0.000 A 
ATOM     30  C   UNL     1       0.073   9.403  22.961  0.00  0.00    +0.000 A 
ATOM     31  S   UNL     1       0.911   8.898  21.556  0.00  0.00    +0.000 S 
ENDBRANCH  26  27
ENDBRANCH  24  26
ENDBRANCH  21  22
ENDBRANCH   1  21
TORSDOF 9
ENDMDL
MODEL 8
REMARK VINA RESULT:      -7.2      2.080      6.793
REMARK  Name = 
REMARK  12 active torsions:
REMARK  status: ('A' for Active; 'I' for Inactive)
REMARK    1  A    between atoms: C_1  and  C_2
REMARK    2  A    between atoms: C_2  and  O_3
REMARK    3  A    between atoms: O_3  and  C_4
REMARK    4  A    between atoms: C_7  and  N_8
REMARK    5  A    between atoms: N_8  and  C_9
REMARK    6  A    between atoms: N_8  and  S_19
REMARK    7  A    between atoms: C_9  and  C_10
REMARK    8  A    between atoms: N_12  and  C_13
REMARK    9  A    between atoms: C_13  and  C_14
REMARK   10  A    between atoms: S_19  and  C_22
REMARK   11  A    between atoms: C_23  and  C_24
REMARK   12  A    between atoms: C_27  and  C_28
REMARK                            x       y       z     vdW  Elec       q    Type
REMARK                         _______ _______ _______ _____ _____    ______ ____
ROOT
ATOM      1  N   UNL     1       4.615   4.473  18.032  0.00  0.00    +0.000 N 
ENDROOT
BRANCH   1   5
ATOM      2  C   UNL     1       6.526   4.339  14.245  0.00  0.00    +0.000 A 
ATOM      3  C   UNL     1       5.148   4.153  14.358  0.00  0.00    +0.000 A 
ATOM      4  C   UNL     1       4.511   4.227  15.596  0.00  0.00    +0.000 A 
ATOM      5  C   UNL     1       5.254   4.485  16.744  0.00  0.00    +0.000 A 
ATOM      6  C   UNL     1       6.641   4.656  16.641  0.00  0.00    +0.000 A 
ATOM      7  C   UNL     1       7.278   4.596  15.390  0.00  0.00    +0.000 A 
BRANCH   2   8
ATOM      8  O   UNL     1       6.999   4.164  12.979  0.00  0.00    +0.000 OA
BRANCH   8  10
ATOM      9  C   UNL     1       6.989   2.303  11.527  0.00  0.00    +0.000 C 
ATOM     10  C   UNL     1       6.174   3.483  12.038  0.00  0.00    +0.000 C 
ENDBRANCH   8  10
ENDBRANCH   2   8
ENDBRANCH   1   5
BRANCH   1  11
ATOM     11  S   UNL     1       3.348   3.334  18.235  0.00  0.00    +0.000 S 
ATOM     12  O   UNL     1       2.126   3.901  17.703  0.00  0.00    +0.000 OA
ATOM     13  O   UNL     1       3.822   2.044  17.780  0.00  0.00    +0.000 OA
BRANCH  11  14
ATOM     14  C   UNL     1       2.992   3.061  19.903  0.00  0.00    +0.000 A 
ATOM     15  C   UNL     1       2.006   3.685  20.709  0.00  0.00    +0.000 A 
ATOM     16  C   UNL     1       1.029   4.765  20.437  0.00  0.00    +0.000 C 
ATOM     17  N   UNL     1       2.031   3.193  21.956  0.00  0.00    +0.000 NA
ATOM     18  O   UNL     1       3.090   2.319  22.001  0.00  0.00    +0.000 OA
ATOM     19  C   UNL     1       3.693   2.265  20.785  0.00  0.00    +0.000 A 
ATOM     20  C   UNL     1       4.918   1.444  20.737  0.00  0.00    +0.000 C 
ENDBRANCH  11  14
ENDBRANCH   1  11
BRANCH   1  21
ATOM     21  C   UNL     1       4.414   5.755  18.748  0.00  0.00    +0.000 C 
BRANCH  21  22
ATOM     22  C   UNL     1       3.882   6.940  17.954  0.00  0.00    +0.000 C 
ATOM     23  O   UNL     1       4.516   7.477  17.049  0.00  0.00    +0.000 OA
ATOM     24  N   UNL     1       2.635   7.391  18.365  0.00  0.00    +0.000 N 
ATOM     25  H   UNL     1       2.212   7.016  19.204  0.00  0.00    +0.000 HD
BRANCH  24  26
ATOM     26  C   UNL     1       2.098   8.645  17.882  0.00  0.00    +0.000 C 
BRANCH  26  27
ATOM     27  C   UNL     1       1.143   9.197  18.894  0.00  0.00    +0.000 A 
ATOM     28  C   UNL     1       0.157  10.147  18.702  0.00  0.00    +0.000 A 
ATOM     29  C   UNL     1      -0.504  10.501  19.912  0.00  0.00    +0.000 A 
ATOM     30  C   UNL     1      -0.018   9.798  20.990  0.00  0.00    +0.000 A 
ATOM     31  S   UNL     1       1.216   8.701  20.535  0.00  0.00    +0.000 S 
ENDBRANCH  26  27
ENDBRANCH  24  26
ENDBRANCH  21  22
ENDBRANCH   1  21
TORSDOF 9
ENDMDL
MODEL 9
REMARK VINA RESULT:      -7.2      3.023      7.462
REMARK  Name = 
REMARK  12 active torsions:
REMARK  status: ('A' for Active; 'I' for Inactive)
REMARK    1  A    between atoms: C_1  and  C_2
REMARK    2  A    between atoms: C_2  and  O_3
REMARK    3  A    between atoms: O_3  and  C_4
REMARK    4  A    between atoms: C_7  and  N_8
REMARK    5  A    between atoms: N_8  and  C_9
REMARK    6  A    between atoms: N_8  and  S_19
REMARK    7  A    between atoms: C_9  and  C_10
REMARK    8  A    between atoms: N_12  and  C_13
REMARK    9  A    between atoms: C_13  and  C_14
REMARK   10  A    between atoms: S_19  and  C_22
REMARK   11  A    between atoms: C_23  and  C_24
REMARK   12  A    between atoms: C_27  and  C_28
REMARK                            x       y       z     vdW  Elec       q    Type
REMARK                         _______ _______ _______ _____ _____    ______ ____
ROOT
ATOM      1  N   UNL     1       3.330   6.822  17.407  0.00  0.00    +0.000 N 
ENDROOT
BRANCH   1   5
ATOM      2  C   UNL     1       1.409   4.149  20.088  0.00  0.00    +0.000 A 
ATOM      3  C   UNL     1       1.423   3.899  18.715  0.00  0.00    +0.000 A 
ATOM      4  C   UNL     1       2.079   4.757  17.834  0.00  0.00    +0.000 A 
ATOM      5  C   UNL     1       2.730   5.888  18.321  0.00  0.00    +0.000 A 
ATOM      6  C   UNL     1       2.706   6.155  19.696  0.00  0.00    +0.000 A 
ATOM      7  C   UNL     1       2.057   5.279  20.584  0.00  0.00    +0.000 A 
BRANCH   2   8
ATOM      8  O   UNL     1       0.666   3.255  20.798  0.00  0.00    +0.000 OA
BRANCH   8  10
ATOM      9  C   UNL     1       2.695   2.305  21.539  0.00  0.00    +0.000 C 
ATOM     10  C   UNL     1       1.262   2.633  21.933  0.00  0.00    +0.000 C 
ENDBRANCH   8  10
ENDBRANCH   2   8
ENDBRANCH   1   5
BRANCH   1  11
ATOM     11  S   UNL     1       4.811   6.331  16.693  0.00  0.00    +0.000 S 
ATOM     12  O   UNL     1       4.615   5.046  16.055  0.00  0.00    +0.000 OA
ATOM     13  O   UNL     1       5.347   7.450  15.947  0.00  0.00    +0.000 OA
BRANCH  11  14
ATOM     14  C   UNL     1       6.027   6.027  17.882  0.00  0.00    +0.000 A 
ATOM     15  C   UNL     1       7.224   6.747  18.125  0.00  0.00    +0.000 A 
ATOM     16  C   UNL     1       7.847   7.909  17.450  0.00  0.00    +0.000 C 
ATOM     17  N   UNL     1       7.904   6.206  19.147  0.00  0.00    +0.000 NA
ATOM     18  O   UNL     1       7.209   5.080  19.516  0.00  0.00    +0.000 OA
ATOM     19  C   UNL     1       6.104   4.947  18.737  0.00  0.00    +0.000 A 
ATOM     20  C   UNL     1       5.333   3.708  18.962  0.00  0.00    +0.000 C 
ENDBRANCH  11  14
ENDBRANCH   1  11
BRANCH   1  21
ATOM     21  C   UNL     1       3.232   8.272  17.693  0.00  0.00    +0.000 C 
BRANCH  21  22
ATOM     22  C   UNL     1       1.859   8.845  18.019  0.00  0.00    +0.000 C 
ATOM     23  O   UNL     1       0.847   8.554  17.385  0.00  0.00    +0.000 OA
ATOM     24  N   UNL     1       1.853   9.755  19.066  0.00  0.00    +0.000 N 
ATOM     25  H   UNL     1       2.726  10.075  19.465  0.00  0.00    +0.000 HD
BRANCH  24  26
ATOM     26  C   UNL     1       0.687  10.566  19.344  0.00  0.00    +0.000 C 
BRANCH  26  27
ATOM     27  C   UNL     1       0.203  10.281  20.731  0.00  0.00    +0.000 A 
ATOM     28  C   UNL     1       0.193   9.068  21.396  0.00  0.00    +0.000 A 
ATOM     29  C   UNL     1      -0.426   9.152  22.675  0.00  0.00    +0.000 A 
ATOM     30  C   UNL     1      -0.853  10.428  22.959  0.00  0.00    +0.000 A 
ATOM     31  S   UNL     1      -0.487  11.522  21.694  0.00  0.00    +0.000 S 
ENDBRANCH  26  27
ENDBRANCH  24  26
ENDBRANCH  21  22
ENDBRANCH   1  21
TORSDOF 9
ENDMDL
