MODEL 1
REMARK VINA RESULT:      -7.9      0.000      0.000
REMARK  Name = 
REMARK  12 active torsions:
REMARK  status: ('A' for Active; 'I' for Inactive)
REMARK    1  A    between atoms: C_1  and  C_2
REMARK    2  A    between atoms: C_2  and  C_3
REMARK    3  A    between atoms: C_2  and  C_4
REMARK    4  A    between atoms: C_2  and  N_31
REMARK    5  A    between atoms: N_6  and  C_7
REMARK    6  A    between atoms: C_10  and  C_11
REMARK    7  A    between atoms: C_11  and  C_12
REMARK    8  A    between atoms: C_15  and  N_16
REMARK    9  A    between atoms: C_17  and  C_19
REMARK   10  A    between atoms: C_19  and  C_20
REMARK   11  A    between atoms: C_19  and  C_21
REMARK   12  A    between atoms: C_19  and  N_22
REMARK                            x       y       z     vdW  Elec       q    Type
REMARK                         _______ _______ _______ _____ _____    ______ ____
ROOT
ATOM      1  C   UNL     1       0.490  11.325  19.071  0.00  0.00    +0.000 C 
ENDROOT
BRANCH   1   5
ATOM      2  C   UNL     1       3.405  14.479  19.660  0.00  0.00    +0.000 A 
ATOM      3  C   UNL     1       2.870  13.761  20.734  0.00  0.00    +0.000 A 
ATOM      4  C   UNL     1       1.924  12.756  20.541  0.00  0.00    +0.000 A 
ATOM      5  C   UNL     1       1.483  12.442  19.256  0.00  0.00    +0.000 A 
ATOM      6  C   UNL     1       1.988  13.178  18.173  0.00  0.00    +0.000 A 
ATOM      7  C   UNL     1       2.936  14.195  18.372  0.00  0.00    +0.000 A 
BRANCH   2  10
ATOM      8  C   UNL     1       5.662  15.464  19.312  0.00  0.00    +0.000 C 
ATOM      9  O   UNL     1       6.047  14.667  18.452  0.00  0.00    +0.000 OA
ATOM     10  N   UNL     1       4.377  15.488  19.835  0.00  0.00    +0.000 N 
ATOM     11  H   UNL     1       4.145  16.297  20.405  0.00  0.00    +0.000 HD
BRANCH   8  13
ATOM     12  C   UNL     1       7.371  17.126  18.570  0.00  0.00    +0.000 C 
ATOM     13  C   UNL     1       6.617  16.599  19.809  0.00  0.00    +0.000 C 
ATOM     14  C   UNL     1       5.677  17.710  20.331  0.00  0.00    +0.000 C 
BRANCH  13  15
ATOM     15  N   UNL     1       7.503  16.116  20.919  0.00  0.00    +0.000 NA
ATOM     16  C   UNL     1       8.930  15.996  20.567  0.00  0.00    +0.000 C 
ATOM     17  C   UNL     1       9.168  14.548  20.182  0.00  0.00    +0.000 C 
ATOM     18  C   UNL     1       8.196  13.781  21.049  0.00  0.00    +0.000 C 
ATOM     19  C   UNL     1       7.137  14.792  21.467  0.00  0.00    +0.000 C 
ENDBRANCH  13  15
ENDBRANCH   8  13
ENDBRANCH   2  10
ENDBRANCH   1   5
BRANCH   1  20
ATOM     20  C   UNL     1       1.104   9.941  19.011  0.00  0.00    +0.000 A 
ATOM     21  C   UNL     1       1.754   9.504  17.855  0.00  0.00    +0.000 A 
ATOM     22  C   UNL     1       2.399   8.265  17.828  0.00  0.00    +0.000 A 
ATOM     23  C   UNL     1       2.444   7.479  18.980  0.00  0.00    +0.000 A 
ATOM     24  C   UNL     1       1.740   7.879  20.117  0.00  0.00    +0.000 A 
ATOM     25  C   UNL     1       1.057   9.097  20.129  0.00  0.00    +0.000 A 
BRANCH  23  26
ATOM     26  N   UNL     1       3.250   6.321  18.966  0.00  0.00    +0.000 N 
ATOM     27  C   UNL     1       2.826   5.148  18.348  0.00  0.00    +0.000 C 
ATOM     28  O   UNL     1       1.780   5.071  17.697  0.00  0.00    +0.000 OA
ATOM     29  H   UNL     1       3.884   6.221  19.745  0.00  0.00    +0.000 HD
BRANCH  27  30
ATOM     30  C   UNL     1       3.772   3.907  18.489  0.00  0.00    +0.000 C 
ATOM     31  C   UNL     1       4.082   3.184  17.157  0.00  0.00    +0.000 C 
ATOM     32  C   UNL     1       5.150   4.443  18.967  0.00  0.00    +0.000 C 
BRANCH  30  33
ATOM     33  N   UNL     1       3.227   2.918  19.468  0.00  0.00    +0.000 NA
ATOM     34  C   UNL     1       2.280   1.929  18.940  0.00  0.00    +0.000 C 
ATOM     35  C   UNL     1       0.895   2.449  19.269  0.00  0.00    +0.000 C 
ATOM     36  C   UNL     1       1.083   3.209  20.563  0.00  0.00    +0.000 C 
ATOM     37  C   UNL     1       2.578   3.487  20.661  0.00  0.00    +0.000 C 
ENDBRANCH  30  33
ENDBRANCH  27  30
ENDBRANCH  23  26
ENDBRANCH   1  20
TORSDOF 8
ENDMDL
MODEL 2
REMARK VINA RESULT:      -7.8      4.912      6.702
REMARK  Name = 
REMARK  12 active torsions:
REMARK  status: ('A' for Active; 'I' for Inactive)
REMARK    1  A    between atoms: C_1  and  C_2
REMARK    2  A    between atoms: C_2  and  C_3
REMARK    3  A    between atoms: C_2  and  C_4
REMARK    4  A    between atoms: C_2  and  N_31
REMARK    5  A    between atoms: N_6  and  C_7
REMARK    6  A    between atoms: C_10  and  C_11
REMARK    7  A    between atoms: C_11  and  C_12
REMARK    8  A    between atoms: C_15  and  N_16
REMARK    9  A    between atoms: C_17  and  C_19
REMARK   10  A    between atoms: C_19  and  C_20
REMARK   11  A    between atoms: C_19  and  C_21
REMARK   12  A    between atoms: C_19  and  N_22
REMARK                            x       y       z     vdW  Elec       q    Type
REMARK                         _______ _______ _______ _____ _____    ______ ____
ROOT
ATOM      1  C   UNL     1       1.213  11.092  18.652  0.00  0.00    +0.000 C 
ENDROOT
BRANCH   1   5
ATOM      2  C   UNL     1      -1.684  12.231  21.670  0.00  0.00    +0.000 A 
ATOM      3  C   UNL     1      -2.075  11.792  20.401  0.00  0.00    +0.000 A 
ATOM      4  C   UNL     1      -1.141  11.438  19.430  0.00  0.00    +0.000 A 
ATOM      5  C   UNL     1       0.223  11.517  19.705  0.00  0.00    +0.000 A 
ATOM      6  C   UNL     1       0.631  11.988  20.963  0.00  0.00    +0.000 A 
ATOM      7  C   UNL     1      -0.316  12.351  21.937  0.00  0.00    +0.000 A 
BRANCH   2  10
ATOM      8  C   UNL     1      -3.338  13.761  22.720  0.00  0.00    +0.000 C 
ATOM      9  O   UNL     1      -3.419  14.565  21.786  0.00  0.00    +0.000 OA
ATOM     10  N   UNL     1      -2.617  12.577  22.671  0.00  0.00    +0.000 N 
ATOM     11  H   UNL     1      -2.772  11.931  23.440  0.00  0.00    +0.000 HD
BRANCH   8  13
ATOM     12  C   UNL     1      -5.535  14.555  23.603  0.00  0.00    +0.000 C 
ATOM     13  C   UNL     1      -4.159  14.002  24.030  0.00  0.00    +0.000 C 
ATOM     14  C   UNL     1      -4.353  12.596  24.641  0.00  0.00    +0.000 C 
BRANCH  13  15
ATOM     15  N   UNL     1      -3.405  14.876  24.989  0.00  0.00    +0.000 NA
ATOM     16  C   UNL     1      -3.846  16.283  25.023  0.00  0.00    +0.000 C 
ATOM     17  C   UNL     1      -2.923  17.055  24.099  0.00  0.00    +0.000 C 
ATOM     18  C   UNL     1      -1.603  16.328  24.218  0.00  0.00    +0.000 C 
ATOM     19  C   UNL     1      -1.948  14.942  24.748  0.00  0.00    +0.000 C 
ENDBRANCH  13  15
ENDBRANCH   8  13
ENDBRANCH   2  10
ENDBRANCH   1   5
BRANCH   1  20
ATOM     20  C   UNL     1       1.619   9.634  18.724  0.00  0.00    +0.000 A 
ATOM     21  C   UNL     1       2.261   9.023  17.644  0.00  0.00    +0.000 A 
ATOM     22  C   UNL     1       2.717   7.707  17.742  0.00  0.00    +0.000 A 
ATOM     23  C   UNL     1       2.583   7.010  18.943  0.00  0.00    +0.000 A 
ATOM     24  C   UNL     1       1.883   7.590  20.002  0.00  0.00    +0.000 A 
ATOM     25  C   UNL     1       1.387   8.891  19.890  0.00  0.00    +0.000 A 
BRANCH  23  26
ATOM     26  N   UNL     1       3.209   5.751  19.058  0.00  0.00    +0.000 N 
ATOM     27  C   UNL     1       2.740   4.640  18.362  0.00  0.00    +0.000 C 
ATOM     28  O   UNL     1       1.825   4.701  17.537  0.00  0.00    +0.000 OA
ATOM     29  H   UNL     1       3.676   5.575  19.935  0.00  0.00    +0.000 HD
BRANCH  27  30
ATOM     30  C   UNL     1       3.464   3.282  18.653  0.00  0.00    +0.000 C 
ATOM     31  C   UNL     1       3.750   2.427  17.397  0.00  0.00    +0.000 C 
ATOM     32  C   UNL     1       4.873   3.632  19.210  0.00  0.00    +0.000 C 
BRANCH  30  33
ATOM     33  N   UNL     1       2.700   2.462  19.642  0.00  0.00    +0.000 NA
ATOM     34  C   UNL     1       1.245   2.649  19.661  0.00  0.00    +0.000 C 
ATOM     35  C   UNL     1       0.954   3.606  20.799  0.00  0.00    +0.000 C 
ATOM     36  C   UNL     1       2.039   3.314  21.814  0.00  0.00    +0.000 C 
ATOM     37  C   UNL     1       3.132   2.581  21.045  0.00  0.00    +0.000 C 
ENDBRANCH  30  33
ENDBRANCH  27  30
ENDBRANCH  23  26
ENDBRANCH   1  20
TORSDOF 8
ENDMDL
MODEL 3
REMARK VINA RESULT:      -7.8      4.699     10.937
REMARK  Name = 
REMARK  12 active torsions:
REMARK  status: ('A' for Active; 'I' for Inactive)
REMARK    1  A    between atoms: C_1  and  C_2
REMARK    2  A    between atoms: C_2  and  C_3
REMARK    3  A    between atoms: C_2  and  C_4
REMARK    4  A    between atoms: C_2  and  N_31
REMARK    5  A    between atoms: N_6  and  C_7
REMARK    6  A    between atoms: C_10  and  C_11
REMARK    7  A    between atoms: C_11  and  C_12
REMARK    8  A    between atoms: C_15  and  N_16
REMARK    9  A    between atoms: C_17  and  C_19
REMARK   10  A    between atoms: C_19  and  C_20
REMARK   11  A    between atoms: C_19  and  C_21
REMARK   12  A    between atoms: C_19  and  N_22
REMARK                            x       y       z     vdW  Elec       q    Type
REMARK                         _______ _______ _______ _____ _____    ______ ____
ROOT
ATOM      1  C   UNL     1       1.541  11.221  18.323  0.00  0.00    +0.000 C 
ENDROOT
BRANCH   1   5
ATOM      2  C   UNL     1       2.147   7.033  19.265  0.00  0.00    +0.000 A 
ATOM      3  C   UNL     1       2.470   7.560  18.011  0.00  0.00    +0.000 A 
ATOM      4  C   UNL     1       2.263   8.904  17.708  0.00  0.00    +0.000 A 
ATOM      5  C   UNL     1       1.718   9.763  18.661  0.00  0.00    +0.000 A 
ATOM      6  C   UNL     1       1.357   9.240  19.912  0.00  0.00    +0.000 A 
ATOM      7  C   UNL     1       1.562   7.882  20.210  0.00  0.00    +0.000 A 
BRANCH   2  10
ATOM      8  C   UNL     1       1.860   4.590  18.895  0.00  0.00    +0.000 C 
ATOM      9  O   UNL     1       1.339   4.664  17.778  0.00  0.00    +0.000 OA
ATOM     10  N   UNL     1       2.365   5.677  19.594  0.00  0.00    +0.000 N 
ATOM     11  H   UNL     1       2.916   5.456  20.419  0.00  0.00    +0.000 HD
BRANCH   8  13
ATOM     12  C   UNL     1       2.005   3.415  21.093  0.00  0.00    +0.000 C 
ATOM     13  C   UNL     1       2.073   3.194  19.567  0.00  0.00    +0.000 C 
ATOM     14  C   UNL     1       0.853   2.352  19.130  0.00  0.00    +0.000 C 
BRANCH  13  15
ATOM     15  N   UNL     1       3.339   2.547  19.086  0.00  0.00    +0.000 NA
ATOM     16  C   UNL     1       4.576   3.086  19.684  0.00  0.00    +0.000 C 
ATOM     17  C   UNL     1       5.118   4.120  18.714  0.00  0.00    +0.000 C 
ATOM     18  C   UNL     1       4.707   3.592  17.359  0.00  0.00    +0.000 C 
ATOM     19  C   UNL     1       3.557   2.631  17.627  0.00  0.00    +0.000 C 
ENDBRANCH  13  15
ENDBRANCH   8  13
ENDBRANCH   2  10
ENDBRANCH   1   5
BRANCH   1  20
ATOM     20  C   UNL     1       0.462  11.924  19.120  0.00  0.00    +0.000 A 
ATOM     21  C   UNL     1      -0.880  11.572  18.960  0.00  0.00    +0.000 A 
ATOM     22  C   UNL     1      -1.867  12.154  19.759  0.00  0.00    +0.000 A 
ATOM     23  C   UNL     1      -1.509  13.055  20.762  0.00  0.00    +0.000 A 
ATOM     24  C   UNL     1      -0.179  13.462  20.882  0.00  0.00    +0.000 A 
ATOM     25  C   UNL     1       0.802  12.913  20.054  0.00  0.00    +0.000 A 
BRANCH  23  26
ATOM     26  N   UNL     1      -2.509  13.487  21.659  0.00  0.00    +0.000 N 
ATOM     27  C   UNL     1      -2.712  12.852  22.882  0.00  0.00    +0.000 C 
ATOM     28  O   UNL     1      -1.982  11.949  23.300  0.00  0.00    +0.000 OA
ATOM     29  H   UNL     1      -3.311  13.931  21.238  0.00  0.00    +0.000 HD
BRANCH  27  30
ATOM     30  C   UNL     1      -3.916  13.368  23.741  0.00  0.00    +0.000 C 
ATOM     31  C   UNL     1      -4.516  12.315  24.701  0.00  0.00    +0.000 C 
ATOM     32  C   UNL     1      -3.357  14.474  24.681  0.00  0.00    +0.000 C 
BRANCH  30  33
ATOM     33  N   UNL     1      -5.002  13.919  22.875  0.00  0.00    +0.000 NA
ATOM     34  C   UNL     1      -5.306  15.345  23.035  0.00  0.00    +0.000 C 
ATOM     35  C   UNL     1      -6.513  15.424  23.948  0.00  0.00    +0.000 C 
ATOM     36  C   UNL     1      -7.290  14.162  23.643  0.00  0.00    +0.000 C 
ATOM     37  C   UNL     1      -6.300  13.228  22.956  0.00  0.00    +0.000 C 
ENDBRANCH  30  33
ENDBRANCH  27  30
ENDBRANCH  23  26
ENDBRANCH   1  20
TORSDOF 8
ENDMDL
MODEL 4
REMARK VINA RESULT:      -7.8      5.120     11.071
REMARK  Name = 
REMARK  12 active torsions:
REMARK  status: ('A' for Active; 'I' for Inactive)
REMARK    1  A    between atoms: C_1  and  C_2
REMARK    2  A    between atoms: C_2  and  C_3
REMARK    3  A    between atoms: C_2  and  C_4
REMARK    4  A    between atoms: C_2  and  N_31
REMARK    5  A    between atoms: N_6  and  C_7
REMARK    6  A    between atoms: C_10  and  C_11
REMARK    7  A    between atoms: C_11  and  C_12
REMARK    8  A    between atoms: C_15  and  N_16
REMARK    9  A    between atoms: C_17  and  C_19
REMARK   10  A    between atoms: C_19  and  C_20
REMARK   11  A    between atoms: C_19  and  C_21
REMARK   12  A    between atoms: C_19  and  N_22
REMARK                            x       y       z     vdW  Elec       q    Type
REMARK                         _______ _______ _______ _____ _____    ______ ____
ROOT
ATOM      1  C   UNL     1       1.006  11.514  19.220  0.00  0.00    +0.000 C 
ENDROOT
BRANCH   1   5
ATOM      2  C   UNL     1       2.041   7.324  18.813  0.00  0.00    +0.000 A 
ATOM      3  C   UNL     1       1.583   7.855  20.023  0.00  0.00    +0.000 A 
ATOM      4  C   UNL     1       1.263   9.204  20.153  0.00  0.00    +0.000 A 
ATOM      5  C   UNL     1       1.396  10.067  19.065  0.00  0.00    +0.000 A 
ATOM      6  C   UNL     1       1.887   9.553  17.855  0.00  0.00    +0.000 A 
ATOM      7  C   UNL     1       2.216   8.193  17.730  0.00  0.00    +0.000 A 
BRANCH   2  10
ATOM      8  C   UNL     1       3.568   5.368  18.989  0.00  0.00    +0.000 C 
ATOM      9  O   UNL     1       4.447   5.919  19.658  0.00  0.00    +0.000 OA
ATOM     10  N   UNL     1       2.355   5.955  18.659  0.00  0.00    +0.000 N 
ATOM     11  H   UNL     1       1.658   5.336  18.254  0.00  0.00    +0.000 HD
BRANCH   8  13
ATOM     12  C   UNL     1       3.104   3.753  17.143  0.00  0.00    +0.000 C 
ATOM     13  C   UNL     1       3.744   3.880  18.541  0.00  0.00    +0.000 C 
ATOM     14  C   UNL     1       5.271   3.682  18.412  0.00  0.00    +0.000 C 
BRANCH  13  15
ATOM     15  N   UNL     1       3.191   2.935  19.568  0.00  0.00    +0.000 NA
ATOM     16  C   UNL     1       2.128   2.038  19.077  0.00  0.00    +0.000 C 
ATOM     17  C   UNL     1       0.804   2.689  19.434  0.00  0.00    +0.000 C 
ATOM     18  C   UNL     1       1.099   3.419  20.724  0.00  0.00    +0.000 C 
ATOM     19  C   UNL     1       2.612   3.591  20.759  0.00  0.00    +0.000 C 
ENDBRANCH  13  15
ENDBRANCH   8  13
ENDBRANCH   2  10
ENDBRANCH   1   5
BRANCH   1  20
ATOM     20  C   UNL     1      -0.480  11.748  19.401  0.00  0.00    +0.000 A 
ATOM     21  C   UNL     1      -0.947  12.577  20.423  0.00  0.00    +0.000 A 
ATOM     22  C   UNL     1      -2.309  12.867  20.536  0.00  0.00    +0.000 A 
ATOM     23  C   UNL     1      -3.207  12.371  19.590  0.00  0.00    +0.000 A 
ATOM     24  C   UNL     1      -2.757  11.487  18.608  0.00  0.00    +0.000 A 
ATOM     25  C   UNL     1      -1.401  11.162  18.522  0.00  0.00    +0.000 A 
BRANCH  23  26
ATOM     26  N   UNL     1      -4.542  12.825  19.635  0.00  0.00    +0.000 N 
ATOM     27  C   UNL     1      -5.341  12.624  20.758  0.00  0.00    +0.000 C 
ATOM     28  O   UNL     1      -4.915  12.133  21.807  0.00  0.00    +0.000 OA
ATOM     29  H   UNL     1      -5.014  12.880  18.745  0.00  0.00    +0.000 HD
BRANCH  27  30
ATOM     30  C   UNL     1      -6.832  13.090  20.642  0.00  0.00    +0.000 C 
ATOM     31  C   UNL     1      -7.384  13.115  19.197  0.00  0.00    +0.000 C 
ATOM     32  C   UNL     1      -7.696  12.020  21.367  0.00  0.00    +0.000 C 
BRANCH  30  33
ATOM     33  N   UNL     1      -7.030  14.432  21.266  0.00  0.00    +0.000 NA
ATOM     34  C   UNL     1      -5.906  15.370  21.170  0.00  0.00    +0.000 C 
ATOM     35  C   UNL     1      -5.166  15.285  22.490  0.00  0.00    +0.000 C 
ATOM     36  C   UNL     1      -6.247  14.964  23.499  0.00  0.00    +0.000 C 
ATOM     37  C   UNL     1      -7.420  14.429  22.686  0.00  0.00    +0.000 C 
ENDBRANCH  30  33
ENDBRANCH  27  30
ENDBRANCH  23  26
ENDBRANCH   1  20
TORSDOF 8
ENDMDL
MODEL 5
REMARK VINA RESULT:      -7.7      5.103      7.534
REMARK  Name = 
REMARK  12 active torsions:
REMARK  status: ('A' for Active; 'I' for Inactive)
REMARK    1  A    between atoms: C_1  and  C_2
REMARK    2  A    between atoms: C_2  and  C_3
REMARK    3  A    between atoms: C_2  and  C_4
REMARK    4  A    between atoms: C_2  and  N_31
REMARK    5  A    between atoms: N_6  and  C_7
REMARK    6  A    between atoms: C_10  and  C_11
REMARK    7  A    between atoms: C_11  and  C_12
REMARK    8  A    between atoms: C_15  and  N_16
REMARK    9  A    between atoms: C_17  and  C_19
REMARK   10  A    between atoms: C_19  and  C_20
REMARK   11  A    between atoms: C_19  and  C_21
REMARK   12  A    between atoms: C_19  and  N_22
REMARK                            x       y       z     vdW  Elec       q    Type
REMARK                         _______ _______ _______ _____ _____    ______ ____
ROOT
ATOM      1  C   UNL     1       1.145  11.120  18.323  0.00  0.00    +0.000 C 
ENDROOT
BRANCH   1   5
ATOM      2  C   UNL     1      -2.679  12.334  19.966  0.00  0.00    +0.000 A 
ATOM      3  C   UNL     1      -1.470  12.699  20.566  0.00  0.00    +0.000 A 
ATOM      4  C   UNL     1      -0.244  12.297  20.042  0.00  0.00    +0.000 A 
ATOM      5  C   UNL     1      -0.195  11.509  18.893  0.00  0.00    +0.000 A 
ATOM      6  C   UNL     1      -1.402  11.107  18.300  0.00  0.00    +0.000 A 
ATOM      7  C   UNL     1      -2.637  11.509  18.837  0.00  0.00    +0.000 A 
BRANCH   2  10
ATOM      8  C   UNL     1      -4.222  14.015  20.954  0.00  0.00    +0.000 C 
ATOM      9  O   UNL     1      -3.496  15.001  20.798  0.00  0.00    +0.000 OA
ATOM     10  N   UNL     1      -3.930  12.747  20.474  0.00  0.00    +0.000 N 
ATOM     11  H   UNL     1      -4.687  12.069  20.523  0.00  0.00    +0.000 HD
BRANCH   8  13
ATOM     12  C   UNL     1      -6.322  15.366  20.969  0.00  0.00    +0.000 C 
ATOM     13  C   UNL     1      -5.615  14.174  21.648  0.00  0.00    +0.000 C 
ATOM     14  C   UNL     1      -6.381  12.877  21.303  0.00  0.00    +0.000 C 
BRANCH  13  15
ATOM     15  N   UNL     1      -5.469  14.300  23.136  0.00  0.00    +0.000 NA
ATOM     16  C   UNL     1      -4.079  14.257  23.629  0.00  0.00    +0.000 C 
ATOM     17  C   UNL     1      -3.806  12.824  24.049  0.00  0.00    +0.000 C 
ATOM     18  C   UNL     1      -5.148  12.332  24.540  0.00  0.00    +0.000 C 
ATOM     19  C   UNL     1      -6.178  13.263  23.915  0.00  0.00    +0.000 C 
ENDBRANCH  13  15
ENDBRANCH   8  13
ENDBRANCH   2  10
ENDBRANCH   1   5
BRANCH   1  20
ATOM     20  C   UNL     1       1.611   9.730  18.705  0.00  0.00    +0.000 A 
ATOM     21  C   UNL     1       1.319   9.207  19.967  0.00  0.00    +0.000 A 
ATOM     22  C   UNL     1       1.668   7.894  20.288  0.00  0.00    +0.000 A 
ATOM     23  C   UNL     1       2.264   7.076  19.328  0.00  0.00    +0.000 A 
ATOM     24  C   UNL     1       2.620   7.613  18.090  0.00  0.00    +0.000 A 
ATOM     25  C   UNL     1       2.311   8.940  17.783  0.00  0.00    +0.000 A 
BRANCH  23  26
ATOM     26  N   UNL     1       2.442   5.710  19.632  0.00  0.00    +0.000 N 
ATOM     27  C   UNL     1       1.882   4.711  18.839  0.00  0.00    +0.000 C 
ATOM     28  O   UNL     1       1.287   4.944  17.784  0.00  0.00    +0.000 OA
ATOM     29  H   UNL     1       2.579   5.494  20.608  0.00  0.00    +0.000 HD
BRANCH  27  30
ATOM     30  C   UNL     1       2.074   3.238  19.340  0.00  0.00    +0.000 C 
ATOM     31  C   UNL     1       2.031   3.074  20.877  0.00  0.00    +0.000 C 
ATOM     32  C   UNL     1       0.850   2.426  18.831  0.00  0.00    +0.000 C 
BRANCH  30  33
ATOM     33  N   UNL     1       3.345   2.650  18.819  0.00  0.00    +0.000 NA
ATOM     34  C   UNL     1       4.551   2.883  19.621  0.00  0.00    +0.000 C 
ATOM     35  C   UNL     1       5.271   4.051  18.979  0.00  0.00    +0.000 C 
ATOM     36  C   UNL     1       4.936   3.928  17.508  0.00  0.00    +0.000 C 
ATOM     37  C   UNL     1       3.709   3.025  17.442  0.00  0.00    +0.000 C 
ENDBRANCH  30  33
ENDBRANCH  27  30
ENDBRANCH  23  26
ENDBRANCH   1  20
TORSDOF 8
ENDMDL
MODEL 6
REMARK VINA RESULT:      -7.6      5.111     10.429
REMARK  Name = 
REMARK  12 active torsions:
REMARK  status: ('A' for Active; 'I' for Inactive)
REMARK    1  A    between atoms: C_1  and  C_2
REMARK    2  A    between atoms: C_2  and  C_3
REMARK    3  A    between atoms: C_2  and  C_4
REMARK    4  A    between atoms: C_2  and  N_31
REMARK    5  A    between atoms: N_6  and  C_7
REMARK    6  A    between atoms: C_10  and  C_11
REMARK    7  A    between atoms: C_11  and  C_12
REMARK    8  A    between atoms: C_15  and  N_16
REMARK    9  A    between atoms: C_17  and  C_19
REMARK   10  A    between atoms: C_19  and  C_20
REMARK   11  A    between atoms: C_19  and  C_21
REMARK   12  A    between atoms: C_19  and  N_22
REMARK                            x       y       z     vdW  Elec       q    Type
REMARK                         _______ _______ _______ _____ _____    ______ ____
ROOT
ATOM      1  C   UNL     1       1.103  11.785  19.548  0.00  0.00    +0.000 C 
ENDROOT
BRANCH   1   5
ATOM      2  C   UNL     1       2.010   7.627  18.723  0.00  0.00    +0.000 A 
ATOM      3  C   UNL     1       1.516   8.041  19.965  0.00  0.00    +0.000 A 
ATOM      4  C   UNL     1       1.238   9.380  20.230  0.00  0.00    +0.000 A 
ATOM      5  C   UNL     1       1.450  10.350  19.250  0.00  0.00    +0.000 A 
ATOM      6  C   UNL     1       1.976   9.952  18.012  0.00  0.00    +0.000 A 
ATOM      7  C   UNL     1       2.263   8.601  17.751  0.00  0.00    +0.000 A 
BRANCH   2  10
ATOM      8  C   UNL     1       2.855   5.363  19.309  0.00  0.00    +0.000 C 
ATOM      9  O   UNL     1       3.000   5.561  20.519  0.00  0.00    +0.000 OA
ATOM     10  N   UNL     1       2.282   6.272  18.432  0.00  0.00    +0.000 N 
ATOM     11  H   UNL     1       2.069   5.919  17.503  0.00  0.00    +0.000 HD
BRANCH   8  13
ATOM     12  C   UNL     1       2.990   2.915  19.785  0.00  0.00    +0.000 C 
ATOM     13  C   UNL     1       3.240   3.977  18.693  0.00  0.00    +0.000 C 
ATOM     14  C   UNL     1       2.232   3.759  17.543  0.00  0.00    +0.000 C 
BRANCH  13  15
ATOM     15  N   UNL     1       4.639   3.996  18.150  0.00  0.00    +0.000 NA
ATOM     16  C   UNL     1       5.448   5.160  18.558  0.00  0.00    +0.000 C 
ATOM     17  C   UNL     1       5.346   6.180  17.438  0.00  0.00    +0.000 C 
ATOM     18  C   UNL     1       5.211   5.333  16.192  0.00  0.00    +0.000 C 
ATOM     19  C   UNL     1       4.727   3.972  16.674  0.00  0.00    +0.000 C 
ENDBRANCH  13  15
ENDBRANCH   8  13
ENDBRANCH   2  10
ENDBRANCH   1   5
BRANCH   1  20
ATOM     20  C   UNL     1      -0.377  12.049  19.737  0.00  0.00    +0.000 A 
ATOM     21  C   UNL     1      -0.824  12.860  20.782  0.00  0.00    +0.000 A 
ATOM     22  C   UNL     1      -2.179  13.177  20.904  0.00  0.00    +0.000 A 
ATOM     23  C   UNL     1      -3.088  12.729  19.946  0.00  0.00    +0.000 A 
ATOM     24  C   UNL     1      -2.659  11.863  18.939  0.00  0.00    +0.000 A 
ATOM     25  C   UNL     1      -1.312  11.509  18.842  0.00  0.00    +0.000 A 
BRANCH  23  26
ATOM     26  N   UNL     1      -4.413  13.212  20.005  0.00  0.00    +0.000 N 
ATOM     27  C   UNL     1      -5.278  12.838  21.029  0.00  0.00    +0.000 C 
ATOM     28  O   UNL     1      -4.924  12.150  21.991  0.00  0.00    +0.000 OA
ATOM     29  H   UNL     1      -4.832  13.445  19.117  0.00  0.00    +0.000 HD
BRANCH  27  30
ATOM     30  C   UNL     1      -6.749  13.367  20.924  0.00  0.00    +0.000 C 
ATOM     31  C   UNL     1      -7.451  13.579  22.286  0.00  0.00    +0.000 C 
ATOM     32  C   UNL     1      -6.672  14.791  20.304  0.00  0.00    +0.000 C 
BRANCH  30  33
ATOM     33  N   UNL     1      -7.588  12.470  20.073  0.00  0.00    +0.000 NA
ATOM     34  C   UNL     1      -7.273  11.038  20.124  0.00  0.00    +0.000 C 
ATOM     35  C   UNL     1      -6.408  10.749  18.915  0.00  0.00    +0.000 C 
ATOM     36  C   UNL     1      -6.892  11.731  17.871  0.00  0.00    +0.000 C 
ATOM     37  C   UNL     1      -7.643  12.811  18.642  0.00  0.00    +0.000 C 
ENDBRANCH  30  33
ENDBRANCH  27  30
ENDBRANCH  23  26
ENDBRANCH   1  20
TORSDOF 8
ENDMDL
MODEL 7
REMARK VINA RESULT:      -7.6      5.479     10.919
REMARK  Name = 
REMARK  12 active torsions:
REMARK  status: ('A' for Active; 'I' for Inactive)
REMARK    1  A    between atoms: C_1  and  C_2
REMARK    2  A    between atoms: C_2  and  C_3
REMARK    3  A    between atoms: C_2  and  C_4
REMARK    4  A    between atoms: C_2  and  N_31
REMARK    5  A    between atoms: N_6  and  C_7
REMARK    6  A    between atoms: C_10  and  C_11
REMARK    7  A    between atoms: C_11  and  C_12
REMARK    8  A    between atoms: C_15  and  N_16
REMARK    9  A    between atoms: C_17  and  C_19
REMARK   10  A    between atoms: C_19  and  C_20
REMARK   11  A    between atoms: C_19  and  C_21
REMARK   12  A    between atoms: C_19  and  N_22
REMARK                            x       y       z     vdW  Elec       q    Type
REMARK                         _______ _______ _______ _____ _____    ______ ____
ROOT
ATOM      1  C   UNL     1       0.590  12.696  20.312  0.00  0.00    +0.000 C 
ENDROOT
BRANCH   1   5
ATOM      2  C   UNL     1       1.436   8.444  20.366  0.00  0.00    +0.000 A 
ATOM      3  C   UNL     1       1.420   9.177  19.175  0.00  0.00    +0.000 A 
ATOM      4  C   UNL     1       1.136  10.541  19.161  0.00  0.00    +0.000 A 
ATOM      5  C   UNL     1       0.855  11.213  20.349  0.00  0.00    +0.000 A 
ATOM      6  C   UNL     1       0.835  10.482  21.548  0.00  0.00    +0.000 A 
ATOM      7  C   UNL     1       1.115   9.105  21.556  0.00  0.00    +0.000 A 
BRANCH   2  10
ATOM      8  C   UNL     1       2.505   6.389  19.462  0.00  0.00    +0.000 C 
ATOM      9  O   UNL     1       3.197   6.940  18.602  0.00  0.00    +0.000 OA
ATOM     10  N   UNL     1       1.739   7.065  20.400  0.00  0.00    +0.000 N 
ATOM     11  H   UNL     1       1.356   6.499  21.152  0.00  0.00    +0.000 HD
BRANCH   8  13
ATOM     12  C   UNL     1       4.004   4.429  19.847  0.00  0.00    +0.000 C 
ATOM     13  C   UNL     1       2.533   4.831  19.606  0.00  0.00    +0.000 C 
ATOM     14  C   UNL     1       1.718   4.535  20.885  0.00  0.00    +0.000 C 
BRANCH  13  15
ATOM     15  N   UNL     1       1.890   4.166  18.425  0.00  0.00    +0.000 NA
ATOM     16  C   UNL     1       0.991   3.044  18.758  0.00  0.00    +0.000 C 
ATOM     17  C   UNL     1       1.806   1.772  18.622  0.00  0.00    +0.000 C 
ATOM     18  C   UNL     1       2.783   2.088  17.511  0.00  0.00    +0.000 C 
ATOM     19  C   UNL     1       2.840   3.608  17.439  0.00  0.00    +0.000 C 
ENDBRANCH  13  15
ENDBRANCH   8  13
ENDBRANCH   2  10
ENDBRANCH   1   5
BRANCH   1  20
ATOM     20  C   UNL     1      -0.876  13.074  20.382  0.00  0.00    +0.000 A 
ATOM     21  C   UNL     1      -1.849  12.241  19.826  0.00  0.00    +0.000 A 
ATOM     22  C   UNL     1      -3.206  12.542  19.968  0.00  0.00    +0.000 A 
ATOM     23  C   UNL     1      -3.598  13.651  20.717  0.00  0.00    +0.000 A 
ATOM     24  C   UNL     1      -2.631  14.524  21.217  0.00  0.00    +0.000 A 
ATOM     25  C   UNL     1      -1.274  14.248  21.037  0.00  0.00    +0.000 A 
BRANCH  23  26
ATOM     26  N   UNL     1      -4.973  13.824  20.985  0.00  0.00    +0.000 N 
ATOM     27  C   UNL     1      -5.626  13.066  21.954  0.00  0.00    +0.000 C 
ATOM     28  O   UNL     1      -5.038  12.277  22.699  0.00  0.00    +0.000 OA
ATOM     29  H   UNL     1      -5.531  14.149  20.209  0.00  0.00    +0.000 HD
BRANCH  27  30
ATOM     30  C   UNL     1      -7.171  13.287  22.084  0.00  0.00    +0.000 C 
ATOM     31  C   UNL     1      -7.757  12.910  23.465  0.00  0.00    +0.000 C 
ATOM     32  C   UNL     1      -7.419  14.818  21.965  0.00  0.00    +0.000 C 
BRANCH  30  33
ATOM     33  N   UNL     1      -7.916  12.552  21.018  0.00  0.00    +0.000 NA
ATOM     34  C   UNL     1      -7.917  11.088  21.111  0.00  0.00    +0.000 C 
ATOM     35  C   UNL     1      -6.837  10.600  20.166  0.00  0.00    +0.000 C 
ATOM     36  C   UNL     1      -6.823  11.631  19.058  0.00  0.00    +0.000 C 
ATOM     37  C   UNL     1      -7.522  12.858  19.632  0.00  0.00    +0.000 C 
ENDBRANCH  30  33
ENDBRANCH  27  30
ENDBRANCH  23  26
ENDBRANCH   1  20
TORSDOF 8
ENDMDL
MODEL 8
REMARK VINA RESULT:      -7.5      4.808     10.921
REMARK  Name = 
REMARK  12 active torsions:
REMARK  status: ('A' for Active; 'I' for Inactive)
REMARK    1  A    between atoms: C_1  and  C_2
REMARK    2  A    between atoms: C_2  and  C_3
REMARK    3  A    between atoms: C_2  and  C_4
REMARK    4  A    between atoms: C_2  and  N_31
REMARK    5  A    between atoms: N_6  and  C_7
REMARK    6  A    between atoms: C_10  and  C_11
REMARK    7  A    between atoms: C_11  and  C_12
REMARK    8  A    between atoms: C_15  and  N_16
REMARK    9  A    between atoms: C_17  and  C_19
REMARK   10  A    between atoms: C_19  and  C_20
REMARK   11  A    between atoms: C_19  and  C_21
REMARK   12  A    between atoms: C_19  and  N_22
REMARK                            x       y       z     vdW  Elec       q    Type
REMARK                         _______ _______ _______ _____ _____    ______ ____
ROOT
ATOM      1  C   UNL     1       1.523  11.017  18.313  0.00  0.00    +0.000 C 
ENDROOT
BRANCH   1   5
ATOM      2  C   UNL     1       2.722   6.862  18.622  0.00  0.00    +0.000 A 
ATOM      3  C   UNL     1       1.976   7.490  19.625  0.00  0.00    +0.000 A 
ATOM      4  C   UNL     1       1.603   8.829  19.527  0.00  0.00    +0.000 A 
ATOM      5  C   UNL     1       1.973   9.582  18.414  0.00  0.00    +0.000 A 
ATOM      6  C   UNL     1       2.750   8.973  17.416  0.00  0.00    +0.000 A 
ATOM      7  C   UNL     1       3.131   7.625  17.523  0.00  0.00    +0.000 A 
BRANCH   2  10
ATOM      8  C   UNL     1       2.387   4.445  18.144  0.00  0.00    +0.000 C 
ATOM      9  O   UNL     1       1.463   4.575  17.335  0.00  0.00    +0.000 OA
ATOM     10  N   UNL     1       3.095   5.502  18.697  0.00  0.00    +0.000 N 
ATOM     11  H   UNL     1       3.934   5.252  19.213  0.00  0.00    +0.000 HD
BRANCH   8  13
ATOM     12  C   UNL     1       2.817   2.153  17.253  0.00  0.00    +0.000 C 
ATOM     13  C   UNL     1       2.891   3.015  18.531  0.00  0.00    +0.000 C 
ATOM     14  C   UNL     1       4.373   3.208  18.919  0.00  0.00    +0.000 C 
BRANCH  13  15
ATOM     15  N   UNL     1       2.123   2.467  19.698  0.00  0.00    +0.000 NA
ATOM     16  C   UNL     1       0.817   3.109  19.939  0.00  0.00    +0.000 C 
ATOM     17  C   UNL     1       1.040   4.173  20.999  0.00  0.00    +0.000 C 
ATOM     18  C   UNL     1       2.142   3.598  21.859  0.00  0.00    +0.000 C 
ATOM     19  C   UNL     1       2.830   2.551  20.994  0.00  0.00    +0.000 C 
ENDBRANCH  13  15
ENDBRANCH   8  13
ENDBRANCH   2  10
ENDBRANCH   1   5
BRANCH   1  20
ATOM     20  C   UNL     1       0.491  11.426  19.343  0.00  0.00    +0.000 A 
ATOM     21  C   UNL     1       0.885  12.034  20.537  0.00  0.00    +0.000 A 
ATOM     22  C   UNL     1      -0.069  12.494  21.448  0.00  0.00    +0.000 A 
ATOM     23  C   UNL     1      -1.427  12.397  21.142  0.00  0.00    +0.000 A 
ATOM     24  C   UNL     1      -1.828  11.730  19.983  0.00  0.00    +0.000 A 
ATOM     25  C   UNL     1      -0.874  11.231  19.094  0.00  0.00    +0.000 A 
BRANCH  23  26
ATOM     26  N   UNL     1      -2.352  13.028  22.002  0.00  0.00    +0.000 N 
ATOM     27  C   UNL     1      -2.903  12.358  23.091  0.00  0.00    +0.000 C 
ATOM     28  O   UNL     1      -2.555  11.224  23.431  0.00  0.00    +0.000 OA
ATOM     29  H   UNL     1      -2.912  13.754  21.583  0.00  0.00    +0.000 HD
BRANCH  27  30
ATOM     30  C   UNL     1      -3.989  13.138  23.908  0.00  0.00    +0.000 C 
ATOM     31  C   UNL     1      -4.749  12.279  24.946  0.00  0.00    +0.000 C 
ATOM     32  C   UNL     1      -3.236  14.198  24.762  0.00  0.00    +0.000 C 
BRANCH  30  33
ATOM     33  N   UNL     1      -4.976  13.802  23.003  0.00  0.00    +0.000 NA
ATOM     34  C   UNL     1      -5.786  14.873  23.592  0.00  0.00    +0.000 C 
ATOM     35  C   UNL     1      -7.116  14.248  23.960  0.00  0.00    +0.000 C 
ATOM     36  C   UNL     1      -7.314  13.163  22.924  0.00  0.00    +0.000 C 
ATOM     37  C   UNL     1      -5.933  12.907  22.331  0.00  0.00    +0.000 C 
ENDBRANCH  30  33
ENDBRANCH  27  30
ENDBRANCH  23  26
ENDBRANCH   1  20
TORSDOF 8
ENDMDL
MODEL 9
REMARK VINA RESULT:      -7.5      5.110      7.528
REMARK  Name = 
REMARK  12 active torsions:
REMARK  status: ('A' for Active; 'I' for Inactive)
REMARK    1  A    between atoms: C_1  and  C_2
REMARK    2  A    between atoms: C_2  and  C_3
REMARK    3  A    between atoms: C_2  and  C_4
REMARK    4  A    between atoms: C_2  and  N_31
REMARK    5  A    between atoms: N_6  and  C_7
REMARK    6  A    between atoms: C_10  and  C_11
REMARK    7  A    between atoms: C_11  and  C_12
REMARK    8  A    between atoms: C_15  and  N_16
REMARK    9  A    between atoms: C_17  and  C_19
REMARK   10  A    between atoms: C_19  and  C_20
REMARK   11  A    between atoms: C_19  and  C_21
REMARK   12  A    between atoms: C_19  and  N_22
REMARK                            x       y       z     vdW  Elec       q    Type
REMARK                         _______ _______ _______ _____ _____    ______ ____
ROOT
ATOM      1  C   UNL     1       1.041  11.149  19.066  0.00  0.00    +0.000 C 
ENDROOT
BRANCH   1   5
ATOM      2  C   UNL     1      -2.837  12.487  20.470  0.00  0.00    +0.000 A 
ATOM      3  C   UNL     1      -1.724  12.440  21.315  0.00  0.00    +0.000 A 
ATOM      4  C   UNL     1      -0.483  11.998  20.863  0.00  0.00    +0.000 A 
ATOM      5  C   UNL     1      -0.321  11.585  19.541  0.00  0.00    +0.000 A 
ATOM      6  C   UNL     1      -1.438  11.596  18.691  0.00  0.00    +0.000 A 
ATOM      7  C   UNL     1      -2.691  12.035  19.154  0.00  0.00    +0.000 A 
BRANCH   2  10
ATOM      8  C   UNL     1      -4.409  14.265  21.214  0.00  0.00    +0.000 C 
ATOM      9  O   UNL     1      -3.690  15.230  20.940  0.00  0.00    +0.000 OA
ATOM     10  N   UNL     1      -4.099  12.948  20.906  0.00  0.00    +0.000 N 
ATOM     11  H   UNL     1      -4.849  12.274  21.034  0.00  0.00    +0.000 HD
BRANCH   8  13
ATOM     12  C   UNL     1      -6.348  15.834  21.315  0.00  0.00    +0.000 C 
ATOM     13  C   UNL     1      -5.812  14.496  21.866  0.00  0.00    +0.000 C 
ATOM     14  C   UNL     1      -6.694  13.345  21.331  0.00  0.00    +0.000 C 
BRANCH  13  15
ATOM     15  N   UNL     1      -5.733  14.425  23.363  0.00  0.00    +0.000 NA
ATOM     16  C   UNL     1      -4.459  14.895  23.940  0.00  0.00    +0.000 C 
ATOM     17  C   UNL     1      -3.595  13.667  24.159  0.00  0.00    +0.000 C 
ATOM     18  C   UNL     1      -4.594  12.577  24.476  0.00  0.00    +0.000 C 
ATOM     19  C   UNL     1      -5.926  13.072  23.927  0.00  0.00    +0.000 C 
ENDBRANCH  13  15
ENDBRANCH   8  13
ENDBRANCH   2  10
ENDBRANCH   1   5
BRANCH   1  20
ATOM     20  C   UNL     1       1.334   9.677  19.267  0.00  0.00    +0.000 A 
ATOM     21  C   UNL     1       1.955   8.935  18.259  0.00  0.00    +0.000 A 
ATOM     22  C   UNL     1       2.309   7.602  18.475  0.00  0.00    +0.000 A 
ATOM     23  C   UNL     1       2.093   7.017  19.723  0.00  0.00    +0.000 A 
ATOM     24  C   UNL     1       1.412   7.731  20.711  0.00  0.00    +0.000 A 
ATOM     25  C   UNL     1       1.018   9.050  20.480  0.00  0.00    +0.000 A 
BRANCH  23  26
ATOM     26  N   UNL     1       2.620   5.729  19.958  0.00  0.00    +0.000 N 
ATOM     27  C   UNL     1       2.169   4.619  19.248  0.00  0.00    +0.000 C 
ATOM     28  O   UNL     1       1.365   4.699  18.315  0.00  0.00    +0.000 OA
ATOM     29  H   UNL     1       2.966   5.563  20.891  0.00  0.00    +0.000 HD
BRANCH  27  30
ATOM     30  C   UNL     1       2.766   3.234  19.672  0.00  0.00    +0.000 C 
ATOM     31  C   UNL     1       2.987   3.072  21.194  0.00  0.00    +0.000 C 
ATOM     32  C   UNL     1       1.701   2.158  19.320  0.00  0.00    +0.000 C 
BRANCH  30  33
ATOM     33  N   UNL     1       4.048   2.955  18.957  0.00  0.00    +0.000 NA
ATOM     34  C   UNL     1       5.110   3.956  19.104  0.00  0.00    +0.000 C 
ATOM     35  C   UNL     1       5.048   4.827  17.865  0.00  0.00    +0.000 C 
ATOM     36  C   UNL     1       4.561   3.892  16.780  0.00  0.00    +0.000 C 
ATOM     37  C   UNL     1       3.935   2.709  17.509  0.00  0.00    +0.000 C 
ENDBRANCH  30  33
ENDBRANCH  27  30
ENDBRANCH  23  26
ENDBRANCH   1  20
TORSDOF 8
ENDMDL
