MODEL 1
REMARK VINA RESULT:      -7.3      0.000      0.000
REMARK  Name = 
REMARK  9 active torsions:
REMARK  status: ('A' for Active; 'I' for Inactive)
REMARK    1  A    between atoms: C_1  and  O_2
REMARK    2  A    between atoms: O_2  and  C_3
REMARK    3  A    between atoms: C_6  and  C_7
REMARK    4  A    between atoms: C_9  and  C_10
REMARK    5  A    between atoms: C_9  and  C_11
REMARK    6  A    between atoms: C_12  and  C_13
REMARK    7  A    between atoms: C_12  and  C_14
REMARK    8  A    between atoms: C_18  and  O_19
REMARK    9  A    between atoms: O_19  and  C_20
REMARK                            x       y       z     vdW  Elec       q    Type
REMARK                         _______ _______ _______ _____ _____    ______ ____
ROOT
ATOM      1  C   UNL     1       7.136   5.109  14.969  0.00  0.00    +0.000 A 
ATOM      2  C   UNL     1       6.350   3.958  14.812  0.00  0.00    +0.000 A 
ATOM      3  C   UNL     1       5.391   3.616  15.762  0.00  0.00    +0.000 A 
ATOM      4  C   UNL     1       5.229   4.396  16.906  0.00  0.00    +0.000 A 
ATOM      5  C   UNL     1       6.065   5.502  17.106  0.00  0.00    +0.000 A 
ATOM      6  C   UNL     1       7.034   5.860  16.153  0.00  0.00    +0.000 A 
ENDROOT
BRANCH   4   7
ATOM      7  C   UNL     1       4.148   4.072  17.877  0.00  0.00    +0.000 C 
ATOM      8  N   UNL     1       2.958   4.636  17.742  0.00  0.00    +0.000 NA
ATOM      9  C   UNL     1       2.160   4.132  18.909  0.00  0.00    +0.000 C 
ATOM     10  C   UNL     1       0.757   3.784  18.393  0.00  0.00    +0.000 C 
ATOM     11  C   UNL     1       2.029   5.335  19.867  0.00  0.00    +0.000 C 
ATOM     12  C   UNL     1       2.962   2.906  19.509  0.00  0.00    +0.000 C 
ATOM     13  C   UNL     1       2.968   2.859  21.047  0.00  0.00    +0.000 C 
ATOM     14  C   UNL     1       2.455   1.533  19.006  0.00  0.00    +0.000 C 
ATOM     15  N   UNL     1       4.275   3.098  18.863  0.00  0.00    +0.000 N 
ATOM     16  O   UNL     1       5.387   3.246  19.711  0.00  0.00    +0.000 OA
ENDBRANCH   4   7
BRANCH   1  18
ATOM     17  C   UNL     1       7.674   5.072  12.667  0.00  0.00    +0.000 C 
ATOM     18  O   UNL     1       8.017   5.489  13.988  0.00  0.00    +0.000 OA
ENDBRANCH   1  18
BRANCH   6  19
ATOM     19  O   UNL     1       7.759   6.960  16.534  0.00  0.00    +0.000 OA
ATOM     20  C   UNL     1       7.450   7.588  17.766  0.00  0.00    +0.000 C 
ENDBRANCH   6  19
TORSDOF 3
ENDMDL
MODEL 2
REMARK VINA RESULT:      -7.0      0.889      1.254
REMARK  Name = 
REMARK  9 active torsions:
REMARK  status: ('A' for Active; 'I' for Inactive)
REMARK    1  A    between atoms: C_1  and  O_2
REMARK    2  A    between atoms: O_2  and  C_3
REMARK    3  A    between atoms: C_6  and  C_7
REMARK    4  A    between atoms: C_9  and  C_10
REMARK    5  A    between atoms: C_9  and  C_11
REMARK    6  A    between atoms: C_12  and  C_13
REMARK    7  A    between atoms: C_12  and  C_14
REMARK    8  A    between atoms: C_18  and  O_19
REMARK    9  A    between atoms: O_19  and  C_20
REMARK                            x       y       z     vdW  Elec       q    Type
REMARK                         _______ _______ _______ _____ _____    ______ ____
ROOT
ATOM      1  C   UNL     1       7.098   5.135  14.944  0.00  0.00    +0.000 A 
ATOM      2  C   UNL     1       6.309   3.992  14.746  0.00  0.00    +0.000 A 
ATOM      3  C   UNL     1       5.369   3.604  15.697  0.00  0.00    +0.000 A 
ATOM      4  C   UNL     1       5.230   4.326  16.881  0.00  0.00    +0.000 A 
ATOM      5  C   UNL     1       6.069   5.421  17.118  0.00  0.00    +0.000 A 
ATOM      6  C   UNL     1       7.019   5.827  16.165  0.00  0.00    +0.000 A 
ENDROOT
BRANCH   4   7
ATOM      7  C   UNL     1       4.167   3.954  17.856  0.00  0.00    +0.000 C 
ATOM      8  N   UNL     1       3.154   3.201  17.462  0.00  0.00    +0.000 NA
ATOM      9  C   UNL     1       2.270   3.084  18.670  0.00  0.00    +0.000 C 
ATOM     10  C   UNL     1       1.799   1.625  18.758  0.00  0.00    +0.000 C 
ATOM     11  C   UNL     1       1.039   3.964  18.364  0.00  0.00    +0.000 C 
ATOM     12  C   UNL     1       3.129   3.572  19.907  0.00  0.00    +0.000 C 
ATOM     13  C   UNL     1       2.340   4.427  20.913  0.00  0.00    +0.000 C 
ATOM     14  C   UNL     1       3.785   2.414  20.697  0.00  0.00    +0.000 C 
ATOM     15  N   UNL     1       4.241   4.251  19.214  0.00  0.00    +0.000 N 
ATOM     16  O   UNL     1       4.450   5.608  19.520  0.00  0.00    +0.000 OA
ENDBRANCH   4   7
BRANCH   1  18
ATOM     17  C   UNL     1       7.717   5.031  12.665  0.00  0.00    +0.000 C 
ATOM     18  O   UNL     1       7.960   5.564  13.966  0.00  0.00    +0.000 OA
ENDBRANCH   1  18
BRANCH   6  19
ATOM     19  O   UNL     1       7.752   6.908  16.586  0.00  0.00    +0.000 OA
ATOM     20  C   UNL     1       7.715   7.266  17.956  0.00  0.00    +0.000 C 
ENDBRANCH   6  19
TORSDOF 3
ENDMDL
MODEL 3
REMARK VINA RESULT:      -6.9      3.880      6.239
REMARK  Name = 
REMARK  9 active torsions:
REMARK  status: ('A' for Active; 'I' for Inactive)
REMARK    1  A    between atoms: C_1  and  O_2
REMARK    2  A    between atoms: O_2  and  C_3
REMARK    3  A    between atoms: C_6  and  C_7
REMARK    4  A    between atoms: C_9  and  C_10
REMARK    5  A    between atoms: C_9  and  C_11
REMARK    6  A    between atoms: C_12  and  C_13
REMARK    7  A    between atoms: C_12  and  C_14
REMARK    8  A    between atoms: C_18  and  O_19
REMARK    9  A    between atoms: O_19  and  C_20
REMARK                            x       y       z     vdW  Elec       q    Type
REMARK                         _______ _______ _______ _____ _____    ______ ____
ROOT
ATOM      1  C   UNL     1       1.260   9.693  19.607  0.00  0.00    +0.000 A 
ATOM      2  C   UNL     1       1.752   9.062  18.454  0.00  0.00    +0.000 A 
ATOM      3  C   UNL     1       2.096   7.714  18.472  0.00  0.00    +0.000 A 
ATOM      4  C   UNL     1       1.994   6.980  19.654  0.00  0.00    +0.000 A 
ATOM      5  C   UNL     1       1.578   7.624  20.826  0.00  0.00    +0.000 A 
ATOM      6  C   UNL     1       1.224   8.984  20.820  0.00  0.00    +0.000 A 
ENDROOT
BRANCH   4   7
ATOM      7  C   UNL     1       2.285   5.520  19.649  0.00  0.00    +0.000 C 
ATOM      8  N   UNL     1       1.366   4.669  20.074  0.00  0.00    +0.000 NA
ATOM      9  C   UNL     1       2.018   3.321  19.982  0.00  0.00    +0.000 C 
ATOM     10  C   UNL     1       0.981   2.344  19.411  0.00  0.00    +0.000 C 
ATOM     11  C   UNL     1       2.311   2.906  21.440  0.00  0.00    +0.000 C 
ATOM     12  C   UNL     1       3.310   3.505  19.085  0.00  0.00    +0.000 C 
ATOM     13  C   UNL     1       4.533   2.718  19.588  0.00  0.00    +0.000 C 
ATOM     14  C   UNL     1       3.090   3.122  17.603  0.00  0.00    +0.000 C 
ATOM     15  N   UNL     1       3.439   4.975  19.094  0.00  0.00    +0.000 N 
ATOM     16  O   UNL     1       4.646   5.507  19.581  0.00  0.00    +0.000 OA
ENDBRANCH   4   7
BRANCH   1  18
ATOM     17  C   UNL     1      -0.410  11.212  18.905  0.00  0.00    +0.000 C 
ATOM     18  O   UNL     1       0.840  10.998  19.560  0.00  0.00    +0.000 OA
ENDBRANCH   1  18
BRANCH   6  19
ATOM     19  O   UNL     1       0.857   9.434  22.063  0.00  0.00    +0.000 OA
ATOM     20  C   UNL     1      -0.486   9.264  22.482  0.00  0.00    +0.000 C 
ENDBRANCH   6  19
TORSDOF 3
ENDMDL
MODEL 4
REMARK VINA RESULT:      -6.8      3.913      6.387
REMARK  Name = 
REMARK  9 active torsions:
REMARK  status: ('A' for Active; 'I' for Inactive)
REMARK    1  A    between atoms: C_1  and  O_2
REMARK    2  A    between atoms: O_2  and  C_3
REMARK    3  A    between atoms: C_6  and  C_7
REMARK    4  A    between atoms: C_9  and  C_10
REMARK    5  A    between atoms: C_9  and  C_11
REMARK    6  A    between atoms: C_12  and  C_13
REMARK    7  A    between atoms: C_12  and  C_14
REMARK    8  A    between atoms: C_18  and  O_19
REMARK    9  A    between atoms: O_19  and  C_20
REMARK                            x       y       z     vdW  Elec       q    Type
REMARK                         _______ _______ _______ _____ _____    ______ ____
ROOT
ATOM      1  C   UNL     1       1.052   9.609  19.177  0.00  0.00    +0.000 A 
ATOM      2  C   UNL     1       1.651   9.449  17.918  0.00  0.00    +0.000 A 
ATOM      3  C   UNL     1       2.413   8.320  17.631  0.00  0.00    +0.000 A 
ATOM      4  C   UNL     1       2.626   7.350  18.611  0.00  0.00    +0.000 A 
ATOM      5  C   UNL     1       2.096   7.544  19.892  0.00  0.00    +0.000 A 
ATOM      6  C   UNL     1       1.321   8.677  20.194  0.00  0.00    +0.000 A 
ENDROOT
BRANCH   4   7
ATOM      7  C   UNL     1       3.373   6.107  18.273  0.00  0.00    +0.000 C 
ATOM      8  N   UNL     1       4.617   6.192  17.831  0.00  0.00    +0.000 NA
ATOM      9  C   UNL     1       5.020   4.775  17.544  0.00  0.00    +0.000 C 
ATOM     10  C   UNL     1       6.454   4.590  18.057  0.00  0.00    +0.000 C 
ATOM     11  C   UNL     1       5.046   4.659  16.005  0.00  0.00    +0.000 C 
ATOM     12  C   UNL     1       3.946   3.849  18.249  0.00  0.00    +0.000 C 
ATOM     13  C   UNL     1       3.538   2.622  17.414  0.00  0.00    +0.000 C 
ATOM     14  C   UNL     1       4.393   3.335  19.638  0.00  0.00    +0.000 C 
ATOM     15  N   UNL     1       2.877   4.830  18.520  0.00  0.00    +0.000 N 
ATOM     16  O   UNL     1       1.611   4.563  17.971  0.00  0.00    +0.000 OA
ENDBRANCH   4   7
BRANCH   1  18
ATOM     17  C   UNL     1      -1.010  10.671  18.719  0.00  0.00    +0.000 C 
ATOM     18  O   UNL     1       0.230  10.679  19.425  0.00  0.00    +0.000 OA
ENDBRANCH   1  18
BRANCH   6  19
ATOM     19  O   UNL     1       0.905   8.692  21.501  0.00  0.00    +0.000 OA
ATOM     20  C   UNL     1      -0.466   8.474  21.784  0.00  0.00    +0.000 C 
ENDBRANCH   6  19
TORSDOF 3
ENDMDL
MODEL 5
REMARK VINA RESULT:      -6.8      1.181      2.170
REMARK  Name = 
REMARK  9 active torsions:
REMARK  status: ('A' for Active; 'I' for Inactive)
REMARK    1  A    between atoms: C_1  and  O_2
REMARK    2  A    between atoms: O_2  and  C_3
REMARK    3  A    between atoms: C_6  and  C_7
REMARK    4  A    between atoms: C_9  and  C_10
REMARK    5  A    between atoms: C_9  and  C_11
REMARK    6  A    between atoms: C_12  and  C_13
REMARK    7  A    between atoms: C_12  and  C_14
REMARK    8  A    between atoms: C_18  and  O_19
REMARK    9  A    between atoms: O_19  and  C_20
REMARK                            x       y       z     vdW  Elec       q    Type
REMARK                         _______ _______ _______ _____ _____    ______ ____
ROOT
ATOM      1  C   UNL     1       6.868   5.082  15.281  0.00  0.00    +0.000 A 
ATOM      2  C   UNL     1       6.027   3.974  15.094  0.00  0.00    +0.000 A 
ATOM      3  C   UNL     1       5.110   3.603  16.074  0.00  0.00    +0.000 A 
ATOM      4  C   UNL     1       5.046   4.307  17.277  0.00  0.00    +0.000 A 
ATOM      5  C   UNL     1       5.936   5.364  17.500  0.00  0.00    +0.000 A 
ATOM      6  C   UNL     1       6.863   5.752  16.517  0.00  0.00    +0.000 A 
ENDROOT
BRANCH   4   7
ATOM      7  C   UNL     1       4.009   3.957  18.286  0.00  0.00    +0.000 C 
ATOM      8  N   UNL     1       4.124   2.835  18.979  0.00  0.00    +0.000 NA
ATOM      9  C   UNL     1       2.893   2.786  19.838  0.00  0.00    +0.000 C 
ATOM     10  C   UNL     1       3.323   2.318  21.235  0.00  0.00    +0.000 C 
ATOM     11  C   UNL     1       2.005   1.686  19.219  0.00  0.00    +0.000 C 
ATOM     12  C   UNL     1       2.258   4.236  19.798  0.00  0.00    +0.000 C 
ATOM     13  C   UNL     1       0.721   4.239  19.708  0.00  0.00    +0.000 C 
ATOM     14  C   UNL     1       2.653   5.115  21.008  0.00  0.00    +0.000 C 
ATOM     15  N   UNL     1       2.973   4.815  18.644  0.00  0.00    +0.000 N 
ATOM     16  O   UNL     1       2.188   5.282  17.575  0.00  0.00    +0.000 OA
ENDBRANCH   4   7
BRANCH   1  18
ATOM     17  C   UNL     1       7.471   4.898  13.003  0.00  0.00    +0.000 C 
ATOM     18  O   UNL     1       7.706   5.496  14.277  0.00  0.00    +0.000 OA
ENDBRANCH   1  18
BRANCH   6  19
ATOM     19  O   UNL     1       7.654   6.795  16.928  0.00  0.00    +0.000 OA
ATOM     20  C   UNL     1       7.869   6.984  18.315  0.00  0.00    +0.000 C 
ENDBRANCH   6  19
TORSDOF 3
ENDMDL
MODEL 6
REMARK VINA RESULT:      -6.4      4.059      6.443
REMARK  Name = 
REMARK  9 active torsions:
REMARK  status: ('A' for Active; 'I' for Inactive)
REMARK    1  A    between atoms: C_1  and  O_2
REMARK    2  A    between atoms: O_2  and  C_3
REMARK    3  A    between atoms: C_6  and  C_7
REMARK    4  A    between atoms: C_9  and  C_10
REMARK    5  A    between atoms: C_9  and  C_11
REMARK    6  A    between atoms: C_12  and  C_13
REMARK    7  A    between atoms: C_12  and  C_14
REMARK    8  A    between atoms: C_18  and  O_19
REMARK    9  A    between atoms: O_19  and  C_20
REMARK                            x       y       z     vdW  Elec       q    Type
REMARK                         _______ _______ _______ _____ _____    ______ ____
ROOT
ATOM      1  C   UNL     1       0.872   9.842  19.372  0.00  0.00    +0.000 A 
ATOM      2  C   UNL     1       1.386   9.529  18.104  0.00  0.00    +0.000 A 
ATOM      3  C   UNL     1       2.071   8.337  17.889  0.00  0.00    +0.000 A 
ATOM      4  C   UNL     1       2.291   7.454  18.945  0.00  0.00    +0.000 A 
ATOM      5  C   UNL     1       1.848   7.797  20.228  0.00  0.00    +0.000 A 
ATOM      6  C   UNL     1       1.151   8.995  20.459  0.00  0.00    +0.000 A 
ENDROOT
BRANCH   4   7
ATOM      7  C   UNL     1       2.952   6.143  18.692  0.00  0.00    +0.000 C 
ATOM      8  N   UNL     1       3.114   5.724  17.447  0.00  0.00    +0.000 NA
ATOM      9  C   UNL     1       3.747   4.369  17.578  0.00  0.00    +0.000 C 
ATOM     10  C   UNL     1       4.851   4.270  16.517  0.00  0.00    +0.000 C 
ATOM     11  C   UNL     1       2.639   3.361  17.208  0.00  0.00    +0.000 C 
ATOM     12  C   UNL     1       4.261   4.253  19.072  0.00  0.00    +0.000 C 
ATOM     13  C   UNL     1       4.031   2.869  19.703  0.00  0.00    +0.000 C 
ATOM     14  C   UNL     1       5.761   4.594  19.235  0.00  0.00    +0.000 C 
ATOM     15  N   UNL     1       3.534   5.376  19.696  0.00  0.00    +0.000 N 
ATOM     16  O   UNL     1       2.692   5.068  20.779  0.00  0.00    +0.000 OA
ENDBRANCH   4   7
BRANCH   1  18
ATOM     17  C   UNL     1       0.857  12.136  19.940  0.00  0.00    +0.000 C 
ATOM     18  O   UNL     1       0.121  10.975  19.558  0.00  0.00    +0.000 OA
ENDBRANCH   1  18
BRANCH   6  19
ATOM     19  O   UNL     1       0.814   9.158  21.779  0.00  0.00    +0.000 OA
ATOM     20  C   UNL     1      -0.510   8.863  22.187  0.00  0.00    +0.000 C 
ENDBRANCH   6  19
TORSDOF 3
ENDMDL
MODEL 7
REMARK VINA RESULT:      -6.4      0.987      1.467
REMARK  Name = 
REMARK  9 active torsions:
REMARK  status: ('A' for Active; 'I' for Inactive)
REMARK    1  A    between atoms: C_1  and  O_2
REMARK    2  A    between atoms: O_2  and  C_3
REMARK    3  A    between atoms: C_6  and  C_7
REMARK    4  A    between atoms: C_9  and  C_10
REMARK    5  A    between atoms: C_9  and  C_11
REMARK    6  A    between atoms: C_12  and  C_13
REMARK    7  A    between atoms: C_12  and  C_14
REMARK    8  A    between atoms: C_18  and  O_19
REMARK    9  A    between atoms: O_19  and  C_20
REMARK                            x       y       z     vdW  Elec       q    Type
REMARK                         _______ _______ _______ _____ _____    ______ ____
ROOT
ATOM      1  C   UNL     1       7.045   5.095  15.081  0.00  0.00    +0.000 A 
ATOM      2  C   UNL     1       6.166   4.023  14.865  0.00  0.00    +0.000 A 
ATOM      3  C   UNL     1       5.192   3.701  15.806  0.00  0.00    +0.000 A 
ATOM      4  C   UNL     1       5.105   4.419  16.999  0.00  0.00    +0.000 A 
ATOM      5  C   UNL     1       6.030   5.439  17.253  0.00  0.00    +0.000 A 
ATOM      6  C   UNL     1       7.015   5.777  16.310  0.00  0.00    +0.000 A 
ENDROOT
BRANCH   4   7
ATOM      7  C   UNL     1       4.010   4.124  17.964  0.00  0.00    +0.000 C 
ATOM      8  N   UNL     1       3.802   4.939  18.985  0.00  0.00    +0.000 NA
ATOM      9  C   UNL     1       2.683   4.306  19.761  0.00  0.00    +0.000 C 
ATOM     10  C   UNL     1       1.721   5.426  20.180  0.00  0.00    +0.000 C 
ATOM     11  C   UNL     1       3.339   3.739  21.038  0.00  0.00    +0.000 C 
ATOM     12  C   UNL     1       2.043   3.210  18.815  0.00  0.00    +0.000 C 
ATOM     13  C   UNL     1       1.663   1.908  19.541  0.00  0.00    +0.000 C 
ATOM     14  C   UNL     1       0.785   3.704  18.062  0.00  0.00    +0.000 C 
ATOM     15  N   UNL     1       3.094   3.092  17.785  0.00  0.00    +0.000 N 
ATOM     16  O   UNL     1       3.657   1.818  17.591  0.00  0.00    +0.000 OA
ENDBRANCH   4   7
BRANCH   1  18
ATOM     17  C   UNL     1       7.620   5.038  12.788  0.00  0.00    +0.000 C 
ATOM     18  O   UNL     1       7.943   5.463  14.112  0.00  0.00    +0.000 OA
ENDBRANCH   1  18
BRANCH   6  19
ATOM     19  O   UNL     1       7.831   6.789  16.747  0.00  0.00    +0.000 OA
ATOM     20  C   UNL     1       7.280   7.806  17.564  0.00  0.00    +0.000 C 
ENDBRANCH   6  19
TORSDOF 3
ENDMDL
MODEL 8
REMARK VINA RESULT:      -6.3      3.820      6.247
REMARK  Name = 
REMARK  9 active torsions:
REMARK  status: ('A' for Active; 'I' for Inactive)
REMARK    1  A    between atoms: C_1  and  O_2
REMARK    2  A    between atoms: O_2  and  C_3
REMARK    3  A    between atoms: C_6  and  C_7
REMARK    4  A    between atoms: C_9  and  C_10
REMARK    5  A    between atoms: C_9  and  C_11
REMARK    6  A    between atoms: C_12  and  C_13
REMARK    7  A    between atoms: C_12  and  C_14
REMARK    8  A    between atoms: C_18  and  O_19
REMARK    9  A    between atoms: O_19  and  C_20
REMARK                            x       y       z     vdW  Elec       q    Type
REMARK                         _______ _______ _______ _____ _____    ______ ____
ROOT
ATOM      1  C   UNL     1       1.070   9.452  19.069  0.00  0.00    +0.000 A 
ATOM      2  C   UNL     1       1.769   9.374  17.854  0.00  0.00    +0.000 A 
ATOM      3  C   UNL     1       2.589   8.285  17.575  0.00  0.00    +0.000 A 
ATOM      4  C   UNL     1       2.760   7.274  18.521  0.00  0.00    +0.000 A 
ATOM      5  C   UNL     1       2.127   7.387  19.765  0.00  0.00    +0.000 A 
ATOM      6  C   UNL     1       1.292   8.479  20.058  0.00  0.00    +0.000 A 
ENDROOT
BRANCH   4   7
ATOM      7  C   UNL     1       3.573   6.073  18.185  0.00  0.00    +0.000 C 
ATOM      8  N   UNL     1       3.135   4.871  18.524  0.00  0.00    +0.000 NA
ATOM      9  C   UNL     1       4.219   3.930  18.088  0.00  0.00    +0.000 C 
ATOM     10  C   UNL     1       3.542   2.712  17.445  0.00  0.00    +0.000 C 
ATOM     11  C   UNL     1       4.904   3.461  19.389  0.00  0.00    +0.000 C 
ATOM     12  C   UNL     1       5.162   4.747  17.113  0.00  0.00    +0.000 C 
ATOM     13  C   UNL     1       6.660   4.457  17.309  0.00  0.00    +0.000 C 
ATOM     14  C   UNL     1       4.839   4.528  15.616  0.00  0.00    +0.000 C 
ATOM     15  N   UNL     1       4.727   6.127  17.409  0.00  0.00    +0.000 N 
ATOM     16  O   UNL     1       5.712   7.023  17.862  0.00  0.00    +0.000 OA
ENDBRANCH   4   7
BRANCH   1  18
ATOM     17  C   UNL     1       0.780  11.783  19.337  0.00  0.00    +0.000 C 
ATOM     18  O   UNL     1       0.194  10.482  19.302  0.00  0.00    +0.000 OA
ENDBRANCH   1  18
BRANCH   6  19
ATOM     19  O   UNL     1       0.776   8.416  21.328  0.00  0.00    +0.000 OA
ATOM     20  C   UNL     1       1.369   9.204  22.345  0.00  0.00    +0.000 C 
ENDBRANCH   6  19
TORSDOF 3
ENDMDL
MODEL 9
REMARK VINA RESULT:      -6.3      3.867      6.414
REMARK  Name = 
REMARK  9 active torsions:
REMARK  status: ('A' for Active; 'I' for Inactive)
REMARK    1  A    between atoms: C_1  and  O_2
REMARK    2  A    between atoms: O_2  and  C_3
REMARK    3  A    between atoms: C_6  and  C_7
REMARK    4  A    between atoms: C_9  and  C_10
REMARK    5  A    between atoms: C_9  and  C_11
REMARK    6  A    between atoms: C_12  and  C_13
REMARK    7  A    between atoms: C_12  and  C_14
REMARK    8  A    between atoms: C_18  and  O_19
REMARK    9  A    between atoms: O_19  and  C_20
REMARK                            x       y       z     vdW  Elec       q    Type
REMARK                         _______ _______ _______ _____ _____    ______ ____
ROOT
ATOM      1  C   UNL     1       1.028   9.251  20.283  0.00  0.00    +0.000 A 
ATOM      2  C   UNL     1       1.173   8.081  21.044  0.00  0.00    +0.000 A 
ATOM      3  C   UNL     1       1.861   6.983  20.537  0.00  0.00    +0.000 A 
ATOM      4  C   UNL     1       2.382   7.018  19.243  0.00  0.00    +0.000 A 
ATOM      5  C   UNL     1       2.173   8.153  18.452  0.00  0.00    +0.000 A 
ATOM      6  C   UNL     1       1.483   9.271  18.953  0.00  0.00    +0.000 A 
ENDROOT
BRANCH   4   7
ATOM      7  C   UNL     1       3.187   5.872  18.737  0.00  0.00    +0.000 C 
ATOM      8  N   UNL     1       4.402   6.088  18.260  0.00  0.00    +0.000 NA
ATOM      9  C   UNL     1       4.878   4.742  17.796  0.00  0.00    +0.000 C 
ATOM     10  C   UNL     1       6.343   4.595  18.230  0.00  0.00    +0.000 C 
ATOM     11  C   UNL     1       4.842   4.804  16.254  0.00  0.00    +0.000 C 
ATOM     12  C   UNL     1       3.895   3.674  18.429  0.00  0.00    +0.000 C 
ATOM     13  C   UNL     1       3.526   2.526  17.473  0.00  0.00    +0.000 C 
ATOM     14  C   UNL     1       4.434   3.037  19.731  0.00  0.00    +0.000 C 
ATOM     15  N   UNL     1       2.782   4.546  18.852  0.00  0.00    +0.000 N 
ATOM     16  O   UNL     1       1.511   4.260  18.323  0.00  0.00    +0.000 OA
ENDBRANCH   4   7
BRANCH   1  18
ATOM     17  C   UNL     1      -0.063  10.203  22.151  0.00  0.00    +0.000 C 
ATOM     18  O   UNL     1       0.427  10.361  20.821  0.00  0.00    +0.000 OA
ENDBRANCH   1  18
BRANCH   6  19
ATOM     19  O   UNL     1       1.370  10.274  18.025  0.00  0.00    +0.000 OA
ATOM     20  C   UNL     1       2.245  11.385  18.109  0.00  0.00    +0.000 C 
ENDBRANCH   6  19
TORSDOF 3
ENDMDL
