MODEL 1
REMARK VINA RESULT:      -8.6      0.000      0.000
REMARK  Name = 
REMARK  7 active torsions:
REMARK  status: ('A' for Active; 'I' for Inactive)
REMARK    1  A    between atoms: C_1  and  C_2
REMARK    2  A    between atoms: N_4  and  C_5
REMARK    3  A    between atoms: C_8  and  C_9
REMARK    4  A    between atoms: C_10  and  C_11
REMARK    5  A    between atoms: C_12  and  C_13
REMARK    6  A    between atoms: C_13  and  C_14
REMARK    7  A    between atoms: C_14  and  O_16
REMARK                            x       y       z     vdW  Elec       q    Type
REMARK                         _______ _______ _______ _____ _____    ______ ____
ROOT
ATOM      1  C   UNL     1       3.445   6.109  17.818  0.00  0.00    +0.000 A 
ATOM      2  C   UNL     1       2.805   4.840  17.593  0.00  0.00    +0.000 A 
ATOM      3  C   UNL     1       1.304   4.645  17.736  0.00  0.00    +0.000 C 
ATOM      4  C   UNL     1       3.575   3.700  17.260  0.00  0.00    +0.000 A 
ATOM      5  C   UNL     1       4.931   3.856  16.964  0.00  0.00    +0.000 A 
ATOM      6  C   UNL     1       5.578   5.081  17.106  0.00  0.00    +0.000 A 
ATOM      7  C   UNL     1       6.956   5.135  16.823  0.00  0.00    +0.000 A 
ATOM      8  C   UNL     1       7.683   6.305  16.995  0.00  0.00    +0.000 A 
ATOM      9  C   UNL     1       7.030   7.433  17.461  0.00  0.00    +0.000 A 
ATOM     10 CL   UNL     1       7.909   8.897  17.670  0.00  0.00    +0.000 Cl
ATOM     11  C   UNL     1       5.663   7.388  17.758  0.00  0.00    +0.000 A 
ATOM     12  C   UNL     1       4.870   6.225  17.564  0.00  0.00    +0.000 A 
ENDROOT
BRANCH   1  16
ATOM     13  C   UNL     1       1.147   9.393  19.562  0.00  0.00    +0.000 A 
ATOM     14  C   UNL     1       1.511   8.276  20.309  0.00  0.00    +0.000 A 
ATOM     15  C   UNL     1       2.295   7.264  19.745  0.00  0.00    +0.000 A 
ATOM     16  C   UNL     1       2.662   7.259  18.389  0.00  0.00    +0.000 A 
ATOM     17  C   UNL     1       2.252   8.378  17.636  0.00  0.00    +0.000 A 
ATOM     18  C   UNL     1       1.546   9.446  18.223  0.00  0.00    +0.000 A 
BRANCH  13  22
ATOM     19  C   UNL     1      -1.345  12.113  20.362  0.00  0.00    +0.000 C 
ATOM     20  C   UNL     1      -0.882  10.849  19.685  0.00  0.00    +0.000 C 
ATOM     21  O   UNL     1      -1.600  10.290  18.862  0.00  0.00    +0.000 OA
ATOM     22  N   UNL     1       0.387  10.462  20.085  0.00  0.00    +0.000 N 
ATOM     23  H   UNL     1       0.808  10.982  20.846  0.00  0.00    +0.000 HD
ENDBRANCH  13  22
ENDBRANCH   1  16
BRANCH   4  24
ATOM     24  C   UNL     1       3.019   2.284  17.282  0.00  0.00    +0.000 C 
BRANCH  24  25
ATOM     25  C   UNL     1       3.158   1.470  18.546  0.00  0.00    +0.000 C 
ATOM     26  O   UNL     1       2.351   1.554  19.460  0.00  0.00    +0.000 OA
BRANCH  25  27
ATOM     27  O   UNL     1       4.216   0.640  18.624  0.00  0.00    +0.000 OA
ATOM     28  H   UNL     1       4.633   0.422  17.767  0.00  0.00    +0.000 HD
ENDBRANCH  25  27
ENDBRANCH  24  25
ENDBRANCH   4  24
TORSDOF 5
ENDMDL
MODEL 2
REMARK VINA RESULT:      -8.5      0.944      1.329
REMARK  Name = 
REMARK  7 active torsions:
REMARK  status: ('A' for Active; 'I' for Inactive)
REMARK    1  A    between atoms: C_1  and  C_2
REMARK    2  A    between atoms: N_4  and  C_5
REMARK    3  A    between atoms: C_8  and  C_9
REMARK    4  A    between atoms: C_10  and  C_11
REMARK    5  A    between atoms: C_12  and  C_13
REMARK    6  A    between atoms: C_13  and  C_14
REMARK    7  A    between atoms: C_14  and  O_16
REMARK                            x       y       z     vdW  Elec       q    Type
REMARK                         _______ _______ _______ _____ _____    ______ ____
ROOT
ATOM      1  C   UNL     1       3.412   6.109  17.842  0.00  0.00    +0.000 A 
ATOM      2  C   UNL     1       2.789   4.833  17.605  0.00  0.00    +0.000 A 
ATOM      3  C   UNL     1       1.294   4.612  17.762  0.00  0.00    +0.000 C 
ATOM      4  C   UNL     1       3.574   3.712  17.245  0.00  0.00    +0.000 A 
ATOM      5  C   UNL     1       4.924   3.894  16.936  0.00  0.00    +0.000 A 
ATOM      6  C   UNL     1       5.552   5.127  17.090  0.00  0.00    +0.000 A 
ATOM      7  C   UNL     1       6.926   5.208  16.792  0.00  0.00    +0.000 A 
ATOM      8  C   UNL     1       7.636   6.387  16.973  0.00  0.00    +0.000 A 
ATOM      9  C   UNL     1       6.970   7.497  17.465  0.00  0.00    +0.000 A 
ATOM     10 CL   UNL     1       7.828   8.971  17.686  0.00  0.00    +0.000 Cl
ATOM     11  C   UNL     1       5.607   7.425  17.776  0.00  0.00    +0.000 A 
ATOM     12  C   UNL     1       4.832   6.252  17.573  0.00  0.00    +0.000 A 
ENDROOT
BRANCH   1  16
ATOM     13  C   UNL     1       1.117   9.444  19.491  0.00  0.00    +0.000 A 
ATOM     14  C   UNL     1       1.481   9.399  18.149  0.00  0.00    +0.000 A 
ATOM     15  C   UNL     1       2.167   8.295  17.632  0.00  0.00    +0.000 A 
ATOM     16  C   UNL     1       2.617   7.238  18.440  0.00  0.00    +0.000 A 
ATOM     17  C   UNL     1       2.273   7.316  19.804  0.00  0.00    +0.000 A 
ATOM     18  C   UNL     1       1.499   8.378  20.311  0.00  0.00    +0.000 A 
BRANCH  13  22
ATOM     19  C   UNL     1      -0.148  12.682  20.963  0.00  0.00    +0.000 C 
ATOM     20  C   UNL     1       0.818  11.828  20.182  0.00  0.00    +0.000 C 
ATOM     21  O   UNL     1       1.858  12.312  19.747  0.00  0.00    +0.000 OA
ATOM     22  N   UNL     1       0.394  10.514  20.064  0.00  0.00    +0.000 N 
ATOM     23  H   UNL     1      -0.536  10.299  20.399  0.00  0.00    +0.000 HD
ENDBRANCH  13  22
ENDBRANCH   1  16
BRANCH   4  24
ATOM     24  C   UNL     1       3.041   2.287  17.252  0.00  0.00    +0.000 C 
BRANCH  24  25
ATOM     25  C   UNL     1       3.177   1.467  18.513  0.00  0.00    +0.000 C 
ATOM     26  O   UNL     1       2.360   1.535  19.418  0.00  0.00    +0.000 OA
BRANCH  25  27
ATOM     27  O   UNL     1       4.245   0.650  18.597  0.00  0.00    +0.000 OA
ATOM     28  H   UNL     1       4.942   0.813  17.932  0.00  0.00    +0.000 HD
ENDBRANCH  25  27
ENDBRANCH  24  25
ENDBRANCH   4  24
TORSDOF 5
ENDMDL
MODEL 3
REMARK VINA RESULT:      -8.3      2.908      4.316
REMARK  Name = 
REMARK  7 active torsions:
REMARK  status: ('A' for Active; 'I' for Inactive)
REMARK    1  A    between atoms: C_1  and  C_2
REMARK    2  A    between atoms: N_4  and  C_5
REMARK    3  A    between atoms: C_8  and  C_9
REMARK    4  A    between atoms: C_10  and  C_11
REMARK    5  A    between atoms: C_12  and  C_13
REMARK    6  A    between atoms: C_13  and  C_14
REMARK    7  A    between atoms: C_14  and  O_16
REMARK                            x       y       z     vdW  Elec       q    Type
REMARK                         _______ _______ _______ _____ _____    ______ ____
ROOT
ATOM      1  C   UNL     1       3.372   5.888  18.081  0.00  0.00    +0.000 A 
ATOM      2  C   UNL     1       4.324   6.018  17.009  0.00  0.00    +0.000 A 
ATOM      3  C   UNL     1       4.733   7.367  16.439  0.00  0.00    +0.000 C 
ATOM      4  C   UNL     1       4.892   4.867  16.414  0.00  0.00    +0.000 A 
ATOM      5  C   UNL     1       4.672   3.618  16.998  0.00  0.00    +0.000 A 
ATOM      6  C   UNL     1       3.809   3.454  18.079  0.00  0.00    +0.000 A 
ATOM      7  C   UNL     1       3.616   2.152  18.577  0.00  0.00    +0.000 A 
ATOM      8  C   UNL     1       2.730   1.899  19.615  0.00  0.00    +0.000 A 
ATOM      9  C   UNL     1       2.020   2.957  20.157  0.00  0.00    +0.000 A 
ATOM     10 CL   UNL     1       0.924   2.668  21.451  0.00  0.00    +0.000 Cl
ATOM     11  C   UNL     1       2.193   4.254  19.661  0.00  0.00    +0.000 A 
ATOM     12  C   UNL     1       3.115   4.567  18.626  0.00  0.00    +0.000 A 
ENDROOT
BRANCH   1  16
ATOM     13  C   UNL     1       1.152   9.425  19.373  0.00  0.00    +0.000 A 
ATOM     14  C   UNL     1       1.501   9.225  18.041  0.00  0.00    +0.000 A 
ATOM     15  C   UNL     1       2.162   8.059  17.642  0.00  0.00    +0.000 A 
ATOM     16  C   UNL     1       2.603   7.089  18.558  0.00  0.00    +0.000 A 
ATOM     17  C   UNL     1       2.276   7.324  19.909  0.00  0.00    +0.000 A 
ATOM     18  C   UNL     1       1.527   8.449  20.303  0.00  0.00    +0.000 A 
BRANCH  13  22
ATOM     19  C   UNL     1      -1.224  12.276  20.056  0.00  0.00    +0.000 C 
ATOM     20  C   UNL     1      -0.837  10.935  19.490  0.00  0.00    +0.000 C 
ATOM     21  O   UNL     1      -1.628  10.305  18.795  0.00  0.00    +0.000 OA
ATOM     22  N   UNL     1       0.455  10.564  19.831  0.00  0.00    +0.000 N 
ATOM     23  H   UNL     1       0.943  11.154  20.493  0.00  0.00    +0.000 HD
ENDBRANCH  13  22
ENDBRANCH   1  16
BRANCH   4  24
ATOM     24  C   UNL     1       5.677   4.905  15.110  0.00  0.00    +0.000 C 
BRANCH  24  25
ATOM     25  C   UNL     1       7.185   4.956  15.172  0.00  0.00    +0.000 C 
ATOM     26  O   UNL     1       7.805   4.541  16.140  0.00  0.00    +0.000 OA
BRANCH  25  27
ATOM     27  O   UNL     1       7.822   5.480  14.107  0.00  0.00    +0.000 OA
ATOM     28  H   UNL     1       8.561   4.942  13.763  0.00  0.00    +0.000 HD
ENDBRANCH  25  27
ENDBRANCH  24  25
ENDBRANCH   4  24
TORSDOF 5
ENDMDL
MODEL 4
REMARK VINA RESULT:      -8.1      3.044      4.304
REMARK  Name = 
REMARK  7 active torsions:
REMARK  status: ('A' for Active; 'I' for Inactive)
REMARK    1  A    between atoms: C_1  and  C_2
REMARK    2  A    between atoms: N_4  and  C_5
REMARK    3  A    between atoms: C_8  and  C_9
REMARK    4  A    between atoms: C_10  and  C_11
REMARK    5  A    between atoms: C_12  and  C_13
REMARK    6  A    between atoms: C_13  and  C_14
REMARK    7  A    between atoms: C_14  and  O_16
REMARK                            x       y       z     vdW  Elec       q    Type
REMARK                         _______ _______ _______ _____ _____    ______ ____
ROOT
ATOM      1  C   UNL     1       3.368   5.907  18.090  0.00  0.00    +0.000 A 
ATOM      2  C   UNL     1       4.316   6.034  17.014  0.00  0.00    +0.000 A 
ATOM      3  C   UNL     1       4.720   7.381  16.436  0.00  0.00    +0.000 C 
ATOM      4  C   UNL     1       4.887   4.881  16.425  0.00  0.00    +0.000 A 
ATOM      5  C   UNL     1       4.671   3.635  17.018  0.00  0.00    +0.000 A 
ATOM      6  C   UNL     1       3.812   3.475  18.101  0.00  0.00    +0.000 A 
ATOM      7  C   UNL     1       3.625   2.175  18.608  0.00  0.00    +0.000 A 
ATOM      8  C   UNL     1       2.742   1.926  19.650  0.00  0.00    +0.000 A 
ATOM      9  C   UNL     1       2.030   2.985  20.188  0.00  0.00    +0.000 A 
ATOM     10 CL   UNL     1       0.939   2.701  21.487  0.00  0.00    +0.000 Cl
ATOM     11  C   UNL     1       2.198   4.280  19.683  0.00  0.00    +0.000 A 
ATOM     12  C   UNL     1       3.116   4.589  18.644  0.00  0.00    +0.000 A 
ENDROOT
BRANCH   1  16
ATOM     13  C   UNL     1       1.112   9.354  19.555  0.00  0.00    +0.000 A 
ATOM     14  C   UNL     1       1.562   8.354  20.413  0.00  0.00    +0.000 A 
ATOM     15  C   UNL     1       2.329   7.290  19.930  0.00  0.00    +0.000 A 
ATOM     16  C   UNL     1       2.597   7.109  18.562  0.00  0.00    +0.000 A 
ATOM     17  C   UNL     1       2.102   8.110  17.701  0.00  0.00    +0.000 A 
ATOM     18  C   UNL     1       1.411   9.233  18.194  0.00  0.00    +0.000 A 
BRANCH  13  22
ATOM     19  C   UNL     1      -0.223  12.714  20.638  0.00  0.00    +0.000 C 
ATOM     20  C   UNL     1       0.775  11.793  19.983  0.00  0.00    +0.000 C 
ATOM     21  O   UNL     1       1.826  12.240  19.535  0.00  0.00    +0.000 OA
ATOM     22  N   UNL     1       0.364  10.469  19.988  0.00  0.00    +0.000 N 
ATOM     23  H   UNL     1      -0.577  10.281  20.313  0.00  0.00    +0.000 HD
ENDBRANCH  13  22
ENDBRANCH   1  16
BRANCH   4  24
ATOM     24  C   UNL     1       5.667   4.913  15.119  0.00  0.00    +0.000 C 
BRANCH  24  25
ATOM     25  C   UNL     1       7.176   4.960  15.177  0.00  0.00    +0.000 C 
ATOM     26  O   UNL     1       7.798   4.537  16.139  0.00  0.00    +0.000 OA
BRANCH  25  27
ATOM     27  O   UNL     1       7.811   5.489  14.113  0.00  0.00    +0.000 OA
ATOM     28  H   UNL     1       8.139   4.838  13.463  0.00  0.00    +0.000 HD
ENDBRANCH  25  27
ENDBRANCH  24  25
ENDBRANCH   4  24
TORSDOF 5
ENDMDL
MODEL 5
REMARK VINA RESULT:      -8.1      2.987      4.279
REMARK  Name = 
REMARK  7 active torsions:
REMARK  status: ('A' for Active; 'I' for Inactive)
REMARK    1  A    between atoms: C_1  and  C_2
REMARK    2  A    between atoms: N_4  and  C_5
REMARK    3  A    between atoms: C_8  and  C_9
REMARK    4  A    between atoms: C_10  and  C_11
REMARK    5  A    between atoms: C_12  and  C_13
REMARK    6  A    between atoms: C_13  and  C_14
REMARK    7  A    between atoms: C_14  and  O_16
REMARK                            x       y       z     vdW  Elec       q    Type
REMARK                         _______ _______ _______ _____ _____    ______ ____
ROOT
ATOM      1  C   UNL     1       3.404   5.817  18.014  0.00  0.00    +0.000 A 
ATOM      2  C   UNL     1       4.345   5.920  16.929  0.00  0.00    +0.000 A 
ATOM      3  C   UNL     1       4.772   7.256  16.342  0.00  0.00    +0.000 C 
ATOM      4  C   UNL     1       4.885   4.753  16.338  0.00  0.00    +0.000 A 
ATOM      5  C   UNL     1       4.648   3.514  16.937  0.00  0.00    +0.000 A 
ATOM      6  C   UNL     1       3.795   3.376  18.029  0.00  0.00    +0.000 A 
ATOM      7  C   UNL     1       3.585   2.082  18.541  0.00  0.00    +0.000 A 
ATOM      8  C   UNL     1       2.706   1.855  19.591  0.00  0.00    +0.000 A 
ATOM      9  C   UNL     1       2.022   2.931  20.132  0.00  0.00    +0.000 A 
ATOM     10 CL   UNL     1       0.937   2.674  21.442  0.00  0.00    +0.000 Cl
ATOM     11  C   UNL     1       2.213   4.220  19.622  0.00  0.00    +0.000 A 
ATOM     12  C   UNL     1       3.128   4.506  18.574  0.00  0.00    +0.000 A 
ENDROOT
BRANCH   1  16
ATOM     13  C   UNL     1       1.236   9.316  19.487  0.00  0.00    +0.000 A 
ATOM     14  C   UNL     1       1.670   8.308  20.344  0.00  0.00    +0.000 A 
ATOM     15  C   UNL     1       2.411   7.227  19.857  0.00  0.00    +0.000 A 
ATOM     16  C   UNL     1       2.662   7.037  18.488  0.00  0.00    +0.000 A 
ATOM     17  C   UNL     1       2.183   8.046  17.629  0.00  0.00    +0.000 A 
ATOM     18  C   UNL     1       1.521   9.185  18.124  0.00  0.00    +0.000 A 
BRANCH  13  22
ATOM     19  C   UNL     1      -1.046  11.843  21.115  0.00  0.00    +0.000 C 
ATOM     20  C   UNL     1      -0.339  10.516  21.012  0.00  0.00    +0.000 C 
ATOM     21  O   UNL     1      -0.564   9.632  21.833  0.00  0.00    +0.000 OA
ATOM     22  N   UNL     1       0.515  10.449  19.923  0.00  0.00    +0.000 N 
ATOM     23  H   UNL     1       0.658  11.302  19.398  0.00  0.00    +0.000 HD
ENDBRANCH  13  22
ENDBRANCH   1  16
BRANCH   4  24
ATOM     24  C   UNL     1       5.654   4.765  15.025  0.00  0.00    +0.000 C 
BRANCH  24  25
ATOM     25  C   UNL     1       7.152   4.952  15.064  0.00  0.00    +0.000 C 
ATOM     26  O   UNL     1       7.765   5.445  14.129  0.00  0.00    +0.000 OA
BRANCH  25  27
ATOM     27  O   UNL     1       7.789   4.551  16.182  0.00  0.00    +0.000 OA
ATOM     28  H   UNL     1       8.728   4.813  16.238  0.00  0.00    +0.000 HD
ENDBRANCH  25  27
ENDBRANCH  24  25
ENDBRANCH   4  24
TORSDOF 5
ENDMDL
MODEL 6
REMARK VINA RESULT:      -8.0      3.047      4.423
REMARK  Name = 
REMARK  7 active torsions:
REMARK  status: ('A' for Active; 'I' for Inactive)
REMARK    1  A    between atoms: C_1  and  C_2
REMARK    2  A    between atoms: N_4  and  C_5
REMARK    3  A    between atoms: C_8  and  C_9
REMARK    4  A    between atoms: C_10  and  C_11
REMARK    5  A    between atoms: C_12  and  C_13
REMARK    6  A    between atoms: C_13  and  C_14
REMARK    7  A    between atoms: C_14  and  O_16
REMARK                            x       y       z     vdW  Elec       q    Type
REMARK                         _______ _______ _______ _____ _____    ______ ____
ROOT
ATOM      1  C   UNL     1       3.382   5.862  18.062  0.00  0.00    +0.000 A 
ATOM      2  C   UNL     1       4.335   5.994  16.991  0.00  0.00    +0.000 A 
ATOM      3  C   UNL     1       4.748   7.344  16.427  0.00  0.00    +0.000 C 
ATOM      4  C   UNL     1       4.901   4.844  16.391  0.00  0.00    +0.000 A 
ATOM      5  C   UNL     1       4.676   3.593  16.971  0.00  0.00    +0.000 A 
ATOM      6  C   UNL     1       3.812   3.427  18.050  0.00  0.00    +0.000 A 
ATOM      7  C   UNL     1       3.615   2.123  18.542  0.00  0.00    +0.000 A 
ATOM      8  C   UNL     1       2.727   1.869  19.578  0.00  0.00    +0.000 A 
ATOM      9  C   UNL     1       2.020   2.926  20.124  0.00  0.00    +0.000 A 
ATOM     10 CL   UNL     1       0.922   2.635  21.416  0.00  0.00    +0.000 Cl
ATOM     11  C   UNL     1       2.197   4.225  19.634  0.00  0.00    +0.000 A 
ATOM     12  C   UNL     1       3.121   4.539  18.601  0.00  0.00    +0.000 A 
ENDROOT
BRANCH   1  16
ATOM     13  C   UNL     1       1.173   9.401  19.368  0.00  0.00    +0.000 A 
ATOM     14  C   UNL     1       1.541   9.216  18.038  0.00  0.00    +0.000 A 
ATOM     15  C   UNL     1       2.198   8.050  17.634  0.00  0.00    +0.000 A 
ATOM     16  C   UNL     1       2.616   7.063  18.543  0.00  0.00    +0.000 A 
ATOM     17  C   UNL     1       2.270   7.283  19.892  0.00  0.00    +0.000 A 
ATOM     18  C   UNL     1       1.524   8.409  20.289  0.00  0.00    +0.000 A 
BRANCH  13  22
ATOM     19  C   UNL     1      -0.480  12.190  21.299  0.00  0.00    +0.000 C 
ATOM     20  C   UNL     1       0.473  11.037  21.123  0.00  0.00    +0.000 C 
ATOM     21  O   UNL     1       1.127  10.625  22.077  0.00  0.00    +0.000 OA
ATOM     22  N   UNL     1       0.478  10.539  19.830  0.00  0.00    +0.000 N 
ATOM     23  H   UNL     1      -0.051  11.055  19.137  0.00  0.00    +0.000 HD
ENDBRANCH  13  22
ENDBRANCH   1  16
BRANCH   4  24
ATOM     24  C   UNL     1       5.686   4.885  15.089  0.00  0.00    +0.000 C 
BRANCH  24  25
ATOM     25  C   UNL     1       7.191   5.002  15.152  0.00  0.00    +0.000 C 
ATOM     26  O   UNL     1       7.839   5.488  14.238  0.00  0.00    +0.000 OA
BRANCH  25  27
ATOM     27  O   UNL     1       7.792   4.546  16.268  0.00  0.00    +0.000 OA
ATOM     28  H   UNL     1       7.246   4.589  17.077  0.00  0.00    +0.000 HD
ENDBRANCH  25  27
ENDBRANCH  24  25
ENDBRANCH   4  24
TORSDOF 5
ENDMDL
MODEL 7
REMARK VINA RESULT:      -7.9      2.941      4.351
REMARK  Name = 
REMARK  7 active torsions:
REMARK  status: ('A' for Active; 'I' for Inactive)
REMARK    1  A    between atoms: C_1  and  C_2
REMARK    2  A    between atoms: N_4  and  C_5
REMARK    3  A    between atoms: C_8  and  C_9
REMARK    4  A    between atoms: C_10  and  C_11
REMARK    5  A    between atoms: C_12  and  C_13
REMARK    6  A    between atoms: C_13  and  C_14
REMARK    7  A    between atoms: C_14  and  O_16
REMARK                            x       y       z     vdW  Elec       q    Type
REMARK                         _______ _______ _______ _____ _____    ______ ____
ROOT
ATOM      1  C   UNL     1       3.817   5.906  17.919  0.00  0.00    +0.000 A 
ATOM      2  C   UNL     1       5.129   6.103  17.360  0.00  0.00    +0.000 A 
ATOM      3  C   UNL     1       5.796   7.468  17.304  0.00  0.00    +0.000 C 
ATOM      4  C   UNL     1       5.840   5.014  16.801  0.00  0.00    +0.000 A 
ATOM      5  C   UNL     1       5.343   3.719  16.967  0.00  0.00    +0.000 A 
ATOM      6  C   UNL     1       4.106   3.477  17.560  0.00  0.00    +0.000 A 
ATOM      7  C   UNL     1       3.669   2.142  17.647  0.00  0.00    +0.000 A 
ATOM      8  C   UNL     1       2.424   1.823  18.173  0.00  0.00    +0.000 A 
ATOM      9  C   UNL     1       1.603   2.849  18.610  0.00  0.00    +0.000 A 
ATOM     10 CL   UNL     1       0.061   2.476  19.276  0.00  0.00    +0.000 Cl
ATOM     11  C   UNL     1       2.022   4.181  18.516  0.00  0.00    +0.000 A 
ATOM     12  C   UNL     1       3.300   4.553  18.019  0.00  0.00    +0.000 A 
ENDROOT
BRANCH   1  16
ATOM     13  C   UNL     1       1.340   9.299  19.128  0.00  0.00    +0.000 A 
ATOM     14  C   UNL     1       1.635   8.258  20.003  0.00  0.00    +0.000 A 
ATOM     15  C   UNL     1       2.475   7.211  19.612  0.00  0.00    +0.000 A 
ATOM     16  C   UNL     1       2.975   7.091  18.305  0.00  0.00    +0.000 A 
ATOM     17  C   UNL     1       2.637   8.133  17.418  0.00  0.00    +0.000 A 
ATOM     18  C   UNL     1       1.870   9.238  17.835  0.00  0.00    +0.000 A 
BRANCH  13  22
ATOM     19  C   UNL     1      -1.267  12.007  19.468  0.00  0.00    +0.000 C 
ATOM     20  C   UNL     1      -0.737  10.682  18.983  0.00  0.00    +0.000 C 
ATOM     21  O   UNL     1      -1.405   9.992  18.219  0.00  0.00    +0.000 OA
ATOM     22  N   UNL     1       0.527  10.399  19.475  0.00  0.00    +0.000 N 
ATOM     23  H   UNL     1       0.901  11.031  20.173  0.00  0.00    +0.000 HD
ENDBRANCH  13  22
ENDBRANCH   1  16
BRANCH   4  24
ATOM     24  C   UNL     1       7.090   5.184  15.951  0.00  0.00    +0.000 C 
BRANCH  24  25
ATOM     25  C   UNL     1       6.986   4.975  14.459  0.00  0.00    +0.000 C 
ATOM     26  O   UNL     1       6.108   4.284  13.964  0.00  0.00    +0.000 OA
BRANCH  25  27
ATOM     27  O   UNL     1       7.909   5.587  13.691  0.00  0.00    +0.000 OA
ATOM     28  H   UNL     1       7.550   6.230  13.050  0.00  0.00    +0.000 HD
ENDBRANCH  25  27
ENDBRANCH  24  25
ENDBRANCH   4  24
TORSDOF 5
ENDMDL
MODEL 8
REMARK VINA RESULT:      -7.8      3.053      4.425
REMARK  Name = 
REMARK  7 active torsions:
REMARK  status: ('A' for Active; 'I' for Inactive)
REMARK    1  A    between atoms: C_1  and  C_2
REMARK    2  A    between atoms: N_4  and  C_5
REMARK    3  A    between atoms: C_8  and  C_9
REMARK    4  A    between atoms: C_10  and  C_11
REMARK    5  A    between atoms: C_12  and  C_13
REMARK    6  A    between atoms: C_13  and  C_14
REMARK    7  A    between atoms: C_14  and  O_16
REMARK                            x       y       z     vdW  Elec       q    Type
REMARK                         _______ _______ _______ _____ _____    ______ ____
ROOT
ATOM      1  C   UNL     1       3.810   5.939  17.919  0.00  0.00    +0.000 A 
ATOM      2  C   UNL     1       5.117   6.164  17.362  0.00  0.00    +0.000 A 
ATOM      3  C   UNL     1       5.761   7.541  17.317  0.00  0.00    +0.000 C 
ATOM      4  C   UNL     1       5.846   5.093  16.792  0.00  0.00    +0.000 A 
ATOM      5  C   UNL     1       5.372   3.788  16.946  0.00  0.00    +0.000 A 
ATOM      6  C   UNL     1       4.140   3.518  17.537  0.00  0.00    +0.000 A 
ATOM      7  C   UNL     1       3.726   2.176  17.612  0.00  0.00    +0.000 A 
ATOM      8  C   UNL     1       2.487   1.830  18.136  0.00  0.00    +0.000 A 
ATOM      9  C   UNL     1       1.648   2.837  18.583  0.00  0.00    +0.000 A 
ATOM     10 CL   UNL     1       0.114   2.431  19.246  0.00  0.00    +0.000 Cl
ATOM     11  C   UNL     1       2.045   4.177  18.500  0.00  0.00    +0.000 A 
ATOM     12  C   UNL     1       3.316   4.576  18.006  0.00  0.00    +0.000 A 
ENDROOT
BRANCH   1  16
ATOM     13  C   UNL     1       1.275   9.277  19.161  0.00  0.00    +0.000 A 
ATOM     14  C   UNL     1       1.590   8.234  20.027  0.00  0.00    +0.000 A 
ATOM     15  C   UNL     1       2.448   7.206  19.626  0.00  0.00    +0.000 A 
ATOM     16  C   UNL     1       2.947   7.105  18.316  0.00  0.00    +0.000 A 
ATOM     17  C   UNL     1       2.588   8.148  17.439  0.00  0.00    +0.000 A 
ATOM     18  C   UNL     1       1.803   9.236  17.867  0.00  0.00    +0.000 A 
BRANCH  13  22
ATOM     19  C   UNL     1      -0.628  12.086  20.813  0.00  0.00    +0.000 C 
ATOM     20  C   UNL     1       0.490  11.082  20.702  0.00  0.00    +0.000 C 
ATOM     21  O   UNL     1       1.305  10.961  21.611  0.00  0.00    +0.000 OA
ATOM     22  N   UNL     1       0.443  10.360  19.519  0.00  0.00    +0.000 N 
ATOM     23  H   UNL     1      -0.240  10.650  18.831  0.00  0.00    +0.000 HD
ENDBRANCH  13  22
ENDBRANCH   1  16
BRANCH   4  24
ATOM     24  C   UNL     1       7.092   5.292  15.943  0.00  0.00    +0.000 C 
BRANCH  24  25
ATOM     25  C   UNL     1       7.018   4.995  14.463  0.00  0.00    +0.000 C 
ATOM     26  O   UNL     1       6.176   4.242  13.999  0.00  0.00    +0.000 OA
BRANCH  25  27
ATOM     27  O   UNL     1       7.924   5.602  13.673  0.00  0.00    +0.000 OA
ATOM     28  H   UNL     1       7.625   5.774  12.759  0.00  0.00    +0.000 HD
ENDBRANCH  25  27
ENDBRANCH  24  25
ENDBRANCH   4  24
TORSDOF 5
ENDMDL
MODEL 9
REMARK VINA RESULT:      -7.4      0.987      1.088
REMARK  Name = 
REMARK  7 active torsions:
REMARK  status: ('A' for Active; 'I' for Inactive)
REMARK    1  A    between atoms: C_1  and  C_2
REMARK    2  A    between atoms: N_4  and  C_5
REMARK    3  A    between atoms: C_8  and  C_9
REMARK    4  A    between atoms: C_10  and  C_11
REMARK    5  A    between atoms: C_12  and  C_13
REMARK    6  A    between atoms: C_13  and  C_14
REMARK    7  A    between atoms: C_14  and  O_16
REMARK                            x       y       z     vdW  Elec       q    Type
REMARK                         _______ _______ _______ _____ _____    ______ ____
ROOT
ATOM      1  C   UNL     1       3.278   6.047  17.875  0.00  0.00    +0.000 A 
ATOM      2  C   UNL     1       2.527   4.829  17.714  0.00  0.00    +0.000 A 
ATOM      3  C   UNL     1       1.013   4.781  17.830  0.00  0.00    +0.000 C 
ATOM      4  C   UNL     1       3.196   3.605  17.472  0.00  0.00    +0.000 A 
ATOM      5  C   UNL     1       4.566   3.618  17.202  0.00  0.00    +0.000 A 
ATOM      6  C   UNL     1       5.320   4.786  17.284  0.00  0.00    +0.000 A 
ATOM      7  C   UNL     1       6.702   4.696  17.035  0.00  0.00    +0.000 A 
ATOM      8  C   UNL     1       7.531   5.803  17.151  0.00  0.00    +0.000 A 
ATOM      9  C   UNL     1       6.975   7.014  17.529  0.00  0.00    +0.000 A 
ATOM     10 CL   UNL     1       7.982   8.402  17.668  0.00  0.00    +0.000 Cl
ATOM     11  C   UNL     1       5.604   7.113  17.792  0.00  0.00    +0.000 A 
ATOM     12  C   UNL     1       4.712   6.016  17.651  0.00  0.00    +0.000 A 
ENDROOT
BRANCH   1  16
ATOM     13  C   UNL     1       1.260   9.634  19.351  0.00  0.00    +0.000 A 
ATOM     14  C   UNL     1       1.542   8.555  20.185  0.00  0.00    +0.000 A 
ATOM     15  C   UNL     1       2.238   7.442  19.704  0.00  0.00    +0.000 A 
ATOM     16  C   UNL     1       2.592   7.298  18.352  0.00  0.00    +0.000 A 
ATOM     17  C   UNL     1       2.267   8.382  17.511  0.00  0.00    +0.000 A 
ATOM     18  C   UNL     1       1.652   9.546  18.012  0.00  0.00    +0.000 A 
BRANCH  13  22
ATOM     19  C   UNL     1      -0.916  12.261  20.964  0.00  0.00    +0.000 C 
ATOM     20  C   UNL     1      -0.280  10.900  20.860  0.00  0.00    +0.000 C 
ATOM     21  O   UNL     1      -0.568  10.019  21.664  0.00  0.00    +0.000 OA
ATOM     22  N   UNL     1       0.593  10.799  19.787  0.00  0.00    +0.000 N 
ATOM     23  H   UNL     1       0.792  11.649  19.275  0.00  0.00    +0.000 HD
ENDBRANCH  13  22
ENDBRANCH   1  16
BRANCH   4  24
ATOM     24  C   UNL     1       2.511   2.250  17.569  0.00  0.00    +0.000 C 
BRANCH  24  25
ATOM     25  C   UNL     1       1.533   2.010  18.696  0.00  0.00    +0.000 C 
ATOM     26  O   UNL     1       0.349   1.797  18.487  0.00  0.00    +0.000 OA
BRANCH  25  27
ATOM     27  O   UNL     1       2.027   2.039  19.949  0.00  0.00    +0.000 OA
ATOM     28  H   UNL     1       1.557   1.472  20.591  0.00  0.00    +0.000 HD
ENDBRANCH  25  27
ENDBRANCH  24  25
ENDBRANCH   4  24
TORSDOF 5
ENDMDL
