MODEL 1
REMARK VINA RESULT:      -7.7      0.000      0.000
REMARK  Name = 
REMARK  10 active torsions:
REMARK  status: ('A' for Active; 'I' for Inactive)
REMARK    1  A    between atoms: C_2  and  C_4
REMARK    2  A    between atoms: C_4  and  C_5
REMARK    3  A    between atoms: C_5  and  N_6
REMARK    4  A    between atoms: C_7  and  C_9
REMARK    5  A    between atoms: N_11  and  C1*_12
REMARK    6  A    between atoms: C4*_14  and  C5*_15
REMARK    7  A    between atoms: C5*_15  and  O5*_16
REMARK    8  A    between atoms: C3*_17  and  O3*_18
REMARK    9  A    between atoms: C2*_19  and  O2*_20
REMARK   10  A    between atoms: C_26  and  O_27
REMARK                            x       y       z     vdW  Elec       q    Type
REMARK                         _______ _______ _______ _____ _____    ______ ____
ROOT
ATOM      1  C   UNL     1       2.546   5.889  19.613  0.00  0.00    +0.000 A 
ATOM      2  C   UNL     1       3.631   6.300  18.849  0.00  0.00    +0.000 A 
ATOM      3  N   UNL     1       4.274   5.201  18.337  0.00  0.00    +0.000 N 
ATOM      4  C   UNL     1       3.618   4.070  18.750  0.00  0.00    +0.000 A 
ATOM      5  N   UNL     1       3.954   2.806  18.443  0.00  0.00    +0.000 NA
ATOM      6  C   UNL     1       3.115   1.891  18.939  0.00  0.00    +0.000 A 
ATOM      7  N   UNL     1       3.354   0.571  18.618  0.00  0.00    +0.000 N 
ATOM      8  N   UNL     1       2.061   2.126  19.727  0.00  0.00    +0.000 NA
ATOM      9  C   UNL     1       1.781   3.399  20.018  0.00  0.00    +0.000 A 
ATOM     10  C   UNL     1       2.542   4.457  19.537  0.00  0.00    +0.000 A 
ATOM     11  H   UNL     1       4.315   0.408  18.369  0.00  0.00    +0.000 HD
ATOM     12  H   UNL     1       2.923  -0.050  19.289  0.00  0.00    +0.000 HD
ENDROOT
BRANCH   3  13
ATOM     13  C1* UNL     1       5.454   5.259  17.486  0.00  0.00    +0.000 C 
ATOM     14  O4* UNL     1       6.590   4.725  18.201  0.00  0.00    +0.000 OA
ATOM     15  C4* UNL     1       7.738   5.573  17.946  0.00  0.00    +0.000 C 
ATOM     16  C3* UNL     1       7.335   6.532  16.830  0.00  0.00    +0.000 C 
ATOM     17  C2* UNL     1       5.826   6.656  16.988  0.00  0.00    +0.000 C 
BRANCH  16  18
ATOM     18  O3* UNL     1       7.598   5.971  15.528  0.00  0.00    +0.000 OA
ATOM     19  H3* UNL     1       7.640   6.693  14.874  0.00  0.00    +0.000 HD
ENDBRANCH  16  18
BRANCH  17  20
ATOM     20  O2* UNL     1       5.204   6.985  15.744  0.00  0.00    +0.000 OA
ATOM     21  H2* UNL     1       5.819   6.680  15.042  0.00  0.00    +0.000 HD
ENDBRANCH  17  20
BRANCH  15  22
ATOM     22  C5* UNL     1       8.144   6.294  19.232  0.00  0.00    +0.000 C 
BRANCH  22  23
ATOM     23  O5* UNL     1       7.836   5.484  20.364  0.00  0.00    +0.000 OA
ATOM     24  H5* UNL     1       8.356   5.851  21.105  0.00  0.00    +0.000 HD
ENDBRANCH  22  23
ENDBRANCH  15  22
ENDBRANCH   3  13
BRANCH   1  26
ATOM     25  N   UNL     1       1.763   8.142  19.929  0.00  0.00    +0.000 N 
ATOM     26  C   UNL     1       1.668   6.827  20.312  0.00  0.00    +0.000 C 
ATOM     27  O   UNL     1       0.887   6.458  21.185  0.00  0.00    +0.000 OA
ATOM     28  H   UNL     1       2.475   8.414  19.258  0.00  0.00    +0.000 HD
BRANCH  25  29
ATOM     29  C   UNL     1       0.937   9.193  20.483  0.00  0.00    +0.000 C 
BRANCH  29  30
ATOM     30  C   UNL     1       0.964  10.450  19.628  0.00  0.00    +0.000 C 
BRANCH  30  32
ATOM     31  N   UNL     1       1.860   9.779  17.488  0.00  0.00    +0.000 NA
ATOM     32  C   UNL     1       0.808  10.072  18.172  0.00  0.00    +0.000 C 
ATOM     33  N   UNL     1      -0.436  10.030  17.624  0.00  0.00    +0.000 N 
ATOM     34  H   UNL     1       1.591   9.515  16.537  0.00  0.00    +0.000 HD
ATOM     35  H   UNL     1      -0.508  10.084  16.615  0.00  0.00    +0.000 HD
ATOM     36  H   UNL     1      -1.179  10.519  18.112  0.00  0.00    +0.000 HD
ENDBRANCH  30  32
ENDBRANCH  29  30
ENDBRANCH  25  29
ENDBRANCH   1  26
BRANCH   9  37
ATOM     37  O   UNL     1       0.676   3.559  20.805  0.00  0.00    +0.000 OA
ATOM     38  H   UNL     1       0.534   4.520  20.706  0.00  0.00    +0.000 HD
ENDBRANCH   9  37
TORSDOF 10
ENDMDL
MODEL 2
REMARK VINA RESULT:      -7.5      1.148      1.324
REMARK  Name = 
REMARK  10 active torsions:
REMARK  status: ('A' for Active; 'I' for Inactive)
REMARK    1  A    between atoms: C_2  and  C_4
REMARK    2  A    between atoms: C_4  and  C_5
REMARK    3  A    between atoms: C_5  and  N_6
REMARK    4  A    between atoms: C_7  and  C_9
REMARK    5  A    between atoms: N_11  and  C1*_12
REMARK    6  A    between atoms: C4*_14  and  C5*_15
REMARK    7  A    between atoms: C5*_15  and  O5*_16
REMARK    8  A    between atoms: C3*_17  and  O3*_18
REMARK    9  A    between atoms: C2*_19  and  O2*_20
REMARK   10  A    between atoms: C_26  and  O_27
REMARK                            x       y       z     vdW  Elec       q    Type
REMARK                         _______ _______ _______ _____ _____    ______ ____
ROOT
ATOM      1  C   UNL     1       2.450   6.595  19.280  0.00  0.00    +0.000 A 
ATOM      2  C   UNL     1       3.603   6.756  18.522  0.00  0.00    +0.000 A 
ATOM      3  N   UNL     1       4.083   5.524  18.152  0.00  0.00    +0.000 N 
ATOM      4  C   UNL     1       3.252   4.555  18.652  0.00  0.00    +0.000 A 
ATOM      5  N   UNL     1       3.399   3.230  18.489  0.00  0.00    +0.000 NA
ATOM      6  C   UNL     1       2.417   2.509  19.042  0.00  0.00    +0.000 A 
ATOM      7  N   UNL     1       2.460   1.141  18.867  0.00  0.00    +0.000 N 
ATOM      8  N   UNL     1       1.393   2.982  19.758  0.00  0.00    +0.000 NA
ATOM      9  C   UNL     1       1.304   4.305  19.907  0.00  0.00    +0.000 A 
ATOM     10  C   UNL     1       2.229   5.180  19.351  0.00  0.00    +0.000 A 
ATOM     11  H   UNL     1       3.391   0.811  18.674  0.00  0.00    +0.000 HD
ATOM     12  H   UNL     1       1.923   0.666  19.580  0.00  0.00    +0.000 HD
ENDROOT
BRANCH   3  13
ATOM     13  C1* UNL     1       5.278   5.314  17.347  0.00  0.00    +0.000 C 
ATOM     14  O4* UNL     1       6.312   4.724  18.165  0.00  0.00    +0.000 OA
ATOM     15  C4* UNL     1       7.572   5.369  17.856  0.00  0.00    +0.000 C 
ATOM     16  C3* UNL     1       7.333   6.227  16.617  0.00  0.00    +0.000 C 
ATOM     17  C2* UNL     1       5.853   6.574  16.699  0.00  0.00    +0.000 C 
BRANCH  16  18
ATOM     18  O3* UNL     1       7.544   5.477  15.404  0.00  0.00    +0.000 OA
ATOM     19  H3* UNL     1       8.481   5.552  15.143  0.00  0.00    +0.000 HD
ENDBRANCH  16  18
BRANCH  17  20
ATOM     20  O2* UNL     1       5.312   6.826  15.401  0.00  0.00    +0.000 OA
ATOM     21  H2* UNL     1       5.095   7.783  15.376  0.00  0.00    +0.000 HD
ENDBRANCH  17  20
BRANCH  15  22
ATOM     22  C5* UNL     1       8.047   6.183  19.061  0.00  0.00    +0.000 C 
BRANCH  22  23
ATOM     23  O5* UNL     1       7.819   5.453  20.264  0.00  0.00    +0.000 OA
ATOM     24  H5* UNL     1       8.192   4.563  20.111  0.00  0.00    +0.000 HD
ENDBRANCH  22  23
ENDBRANCH  15  22
ENDBRANCH   3  13
BRANCH   1  26
ATOM     25  N   UNL     1       1.545   8.809  19.020  0.00  0.00    +0.000 N 
ATOM     26  C   UNL     1       1.708   7.724  19.843  0.00  0.00    +0.000 C 
ATOM     27  O   UNL     1       1.254   7.698  20.985  0.00  0.00    +0.000 OA
ATOM     28  H   UNL     1       2.002   8.819  18.113  0.00  0.00    +0.000 HD
BRANCH  25  29
ATOM     29  C   UNL     1       0.800   9.990  19.400  0.00  0.00    +0.000 C 
BRANCH  29  30
ATOM     30  C   UNL     1      -0.334  10.286  18.431  0.00  0.00    +0.000 C 
BRANCH  30  32
ATOM     31  N   UNL     1      -0.840  12.173  19.851  0.00  0.00    +0.000 NA
ATOM     32  C   UNL     1      -0.832  11.697  18.654  0.00  0.00    +0.000 C 
ATOM     33  N   UNL     1      -1.239  12.436  17.587  0.00  0.00    +0.000 N 
ATOM     34  H   UNL     1      -1.171  13.141  19.835  0.00  0.00    +0.000 HD
ATOM     35  H   UNL     1      -1.841  13.229  17.766  0.00  0.00    +0.000 HD
ATOM     36  H   UNL     1      -1.464  11.938  16.732  0.00  0.00    +0.000 HD
ENDBRANCH  30  32
ENDBRANCH  29  30
ENDBRANCH  25  29
ENDBRANCH   1  26
BRANCH   9  37
ATOM     37  O   UNL     1       0.218   4.712  20.628  0.00  0.00    +0.000 OA
ATOM     38  H   UNL     1      -0.412   4.888  19.904  0.00  0.00    +0.000 HD
ENDBRANCH   9  37
TORSDOF 10
ENDMDL
MODEL 3
REMARK VINA RESULT:      -7.5      1.868      2.330
REMARK  Name = 
REMARK  10 active torsions:
REMARK  status: ('A' for Active; 'I' for Inactive)
REMARK    1  A    between atoms: C_2  and  C_4
REMARK    2  A    between atoms: C_4  and  C_5
REMARK    3  A    between atoms: C_5  and  N_6
REMARK    4  A    between atoms: C_7  and  C_9
REMARK    5  A    between atoms: N_11  and  C1*_12
REMARK    6  A    between atoms: C4*_14  and  C5*_15
REMARK    7  A    between atoms: C5*_15  and  O5*_16
REMARK    8  A    between atoms: C3*_17  and  O3*_18
REMARK    9  A    between atoms: C2*_19  and  O2*_20
REMARK   10  A    between atoms: C_26  and  O_27
REMARK                            x       y       z     vdW  Elec       q    Type
REMARK                         _______ _______ _______ _____ _____    ______ ____
ROOT
ATOM      1  C   UNL     1       2.582   6.637  19.060  0.00  0.00    +0.000 A 
ATOM      2  C   UNL     1       3.728   6.626  18.276  0.00  0.00    +0.000 A 
ATOM      3  N   UNL     1       4.077   5.328  17.994  0.00  0.00    +0.000 N 
ATOM      4  C   UNL     1       3.166   4.486  18.578  0.00  0.00    +0.000 A 
ATOM      5  N   UNL     1       3.179   3.145  18.515  0.00  0.00    +0.000 NA
ATOM      6  C   UNL     1       2.143   2.568  19.135  0.00  0.00    +0.000 A 
ATOM      7  N   UNL     1       2.048   1.194  19.065  0.00  0.00    +0.000 N 
ATOM      8  N   UNL     1       1.186   3.192  19.828  0.00  0.00    +0.000 NA
ATOM      9  C   UNL     1       1.231   4.526  19.875  0.00  0.00    +0.000 A 
ATOM     10  C   UNL     1       2.225   5.261  19.242  0.00  0.00    +0.000 A 
ATOM     11  H   UNL     1       2.938   0.759  18.885  0.00  0.00    +0.000 HD
ATOM     12  H   UNL     1       1.483   0.829  19.819  0.00  0.00    +0.000 HD
ENDROOT
BRANCH   3  13
ATOM     13  C1* UNL     1       5.228   4.940  17.191  0.00  0.00    +0.000 C 
ATOM     14  O4* UNL     1       6.194   4.266  18.027  0.00  0.00    +0.000 OA
ATOM     15  C4* UNL     1       7.518   4.740  17.680  0.00  0.00    +0.000 C 
ATOM     16  C3* UNL     1       7.369   5.566  16.407  0.00  0.00    +0.000 C 
ATOM     17  C2* UNL     1       5.943   6.093  16.484  0.00  0.00    +0.000 C 
BRANCH  16  18
ATOM     18  O3* UNL     1       7.474   4.745  15.227  0.00  0.00    +0.000 OA
ATOM     19  H3* UNL     1       6.609   4.330  15.051  0.00  0.00    +0.000 HD
ENDBRANCH  16  18
BRANCH  17  20
ATOM     20  O2* UNL     1       5.420   6.353  15.180  0.00  0.00    +0.000 OA
ATOM     21  H2* UNL     1       4.972   5.527  14.895  0.00  0.00    +0.000 HD
ENDBRANCH  17  20
BRANCH  15  22
ATOM     22  C5* UNL     1       8.102   5.541  18.845  0.00  0.00    +0.000 C 
BRANCH  22  23
ATOM     23  O5* UNL     1       7.292   5.376  20.006  0.00  0.00    +0.000 OA
ATOM     24  H5* UNL     1       7.383   4.438  20.265  0.00  0.00    +0.000 HD
ENDBRANCH  22  23
ENDBRANCH  15  22
ENDBRANCH   3  13
BRANCH   1  26
ATOM     25  N   UNL     1       1.835   7.987  20.907  0.00  0.00    +0.000 N 
ATOM     26  C   UNL     1       1.966   7.873  19.546  0.00  0.00    +0.000 C 
ATOM     27  O   UNL     1       1.595   8.757  18.779  0.00  0.00    +0.000 OA
ATOM     28  H   UNL     1       2.085   7.200  21.499  0.00  0.00    +0.000 HD
BRANCH  25  29
ATOM     29  C   UNL     1       1.292   9.159  21.557  0.00  0.00    +0.000 C 
BRANCH  29  30
ATOM     30  C   UNL     1      -0.173   8.980  21.925  0.00  0.00    +0.000 C 
BRANCH  30  32
ATOM     31  N   UNL     1       0.230   9.515  24.246  0.00  0.00    +0.000 NA
ATOM     32  C   UNL     1      -0.472   9.751  23.192  0.00  0.00    +0.000 C 
ATOM     33  N   UNL     1      -1.458  10.688  23.184  0.00  0.00    +0.000 N 
ATOM     34  H   UNL     1      -0.068  10.132  25.005  0.00  0.00    +0.000 HD
ATOM     35  H   UNL     1      -1.851  10.965  24.075  0.00  0.00    +0.000 HD
ATOM     36  H   UNL     1      -2.140  10.643  22.434  0.00  0.00    +0.000 HD
ENDBRANCH  30  32
ENDBRANCH  29  30
ENDBRANCH  25  29
ENDBRANCH   1  26
BRANCH   9  37
ATOM     37  O   UNL     1       0.205   5.091  20.579  0.00  0.00    +0.000 OA
ATOM     38  H   UNL     1       0.703   5.733  21.120  0.00  0.00    +0.000 HD
ENDBRANCH   9  37
TORSDOF 10
ENDMDL
MODEL 4
REMARK VINA RESULT:      -7.4      1.658      2.306
REMARK  Name = 
REMARK  10 active torsions:
REMARK  status: ('A' for Active; 'I' for Inactive)
REMARK    1  A    between atoms: C_2  and  C_4
REMARK    2  A    between atoms: C_4  and  C_5
REMARK    3  A    between atoms: C_5  and  N_6
REMARK    4  A    between atoms: C_7  and  C_9
REMARK    5  A    between atoms: N_11  and  C1*_12
REMARK    6  A    between atoms: C4*_14  and  C5*_15
REMARK    7  A    between atoms: C5*_15  and  O5*_16
REMARK    8  A    between atoms: C3*_17  and  O3*_18
REMARK    9  A    between atoms: C2*_19  and  O2*_20
REMARK   10  A    between atoms: C_26  and  O_27
REMARK                            x       y       z     vdW  Elec       q    Type
REMARK                         _______ _______ _______ _____ _____    ______ ____
ROOT
ATOM      1  C   UNL     1       2.525   7.735  18.544  0.00  0.00    +0.000 A 
ATOM      2  C   UNL     1       3.574   7.363  17.711  0.00  0.00    +0.000 A 
ATOM      3  N   UNL     1       4.032   6.122  18.078  0.00  0.00    +0.000 N 
ATOM      4  C   UNL     1       3.288   5.669  19.138  0.00  0.00    +0.000 A 
ATOM      5  N   UNL     1       3.442   4.491  19.763  0.00  0.00    +0.000 NA
ATOM      6  C   UNL     1       2.550   4.279  20.737  0.00  0.00    +0.000 A 
ATOM      7  N   UNL     1       2.600   3.064  21.389  0.00  0.00    +0.000 N 
ATOM      8  N   UNL     1       1.611   5.135  21.152  0.00  0.00    +0.000 NA
ATOM      9  C   UNL     1       1.513   6.300  20.509  0.00  0.00    +0.000 A 
ATOM     10  C   UNL     1       2.345   6.639  19.449  0.00  0.00    +0.000 A 
ATOM     11  H   UNL     1       3.508   2.634  21.323  0.00  0.00    +0.000 HD
ATOM     12  H   UNL     1       2.164   3.121  22.299  0.00  0.00    +0.000 HD
ENDROOT
BRANCH   3  13
ATOM     13  C1* UNL     1       5.124   5.419  17.420  0.00  0.00    +0.000 C 
ATOM     14  O4* UNL     1       5.983   4.823  18.417  0.00  0.00    +0.000 OA
ATOM     15  C4* UNL     1       7.362   5.030  18.025  0.00  0.00    +0.000 C 
ATOM     16  C3* UNL     1       7.336   5.570  16.598  0.00  0.00    +0.000 C 
ATOM     17  C2* UNL     1       5.995   6.284  16.507  0.00  0.00    +0.000 C 
BRANCH  16  18
ATOM     18  O3* UNL     1       7.335   4.503  15.628  0.00  0.00    +0.000 OA
ATOM     19  H3* UNL     1       6.524   4.564  15.089  0.00  0.00    +0.000 HD
ENDBRANCH  16  18
BRANCH  17  20
ATOM     20  O2* UNL     1       5.521   6.319  15.160  0.00  0.00    +0.000 OA
ATOM     21  H2* UNL     1       6.119   5.736  14.644  0.00  0.00    +0.000 HD
ENDBRANCH  17  20
BRANCH  15  22
ATOM     22  C5* UNL     1       8.042   5.983  19.009  0.00  0.00    +0.000 C 
BRANCH  22  23
ATOM     23  O5* UNL     1       8.416   5.279  20.191  0.00  0.00    +0.000 OA
ATOM     24  H5* UNL     1       7.629   4.765  20.456  0.00  0.00    +0.000 HD
ENDBRANCH  22  23
ENDBRANCH  15  22
ENDBRANCH   3  13
BRANCH   1  26
ATOM     25  N   UNL     1       1.199   9.472  19.550  0.00  0.00    +0.000 N 
ATOM     26  C   UNL     1       1.834   9.019  18.421  0.00  0.00    +0.000 C 
ATOM     27  O   UNL     1       1.828   9.655  17.371  0.00  0.00    +0.000 OA
ATOM     28  H   UNL     1       1.165   8.879  20.374  0.00  0.00    +0.000 HD
BRANCH  25  29
ATOM     29  C   UNL     1       0.508  10.741  19.618  0.00  0.00    +0.000 C 
BRANCH  29  30
ATOM     30  C   UNL     1      -0.985  10.591  19.370  0.00  0.00    +0.000 C 
BRANCH  30  32
ATOM     31  N   UNL     1      -1.392  10.081  17.044  0.00  0.00    +0.000 NA
ATOM     32  C   UNL     1      -1.302  10.996  17.948  0.00  0.00    +0.000 C 
ATOM     33  N   UNL     1      -1.503  12.310  17.658  0.00  0.00    +0.000 N 
ATOM     34  H   UNL     1      -1.641  10.505  16.148  0.00  0.00    +0.000 HD
ATOM     35  H   UNL     1      -1.406  12.599  16.692  0.00  0.00    +0.000 HD
ATOM     36  H   UNL     1      -1.161  12.994  18.324  0.00  0.00    +0.000 HD
ENDBRANCH  30  32
ENDBRANCH  29  30
ENDBRANCH  25  29
ENDBRANCH   1  26
BRANCH   9  37
ATOM     37  O   UNL     1       0.514   7.108  20.974  0.00  0.00    +0.000 OA
ATOM     38  H   UNL     1      -0.266   6.617  20.653  0.00  0.00    +0.000 HD
ENDBRANCH   9  37
TORSDOF 10
ENDMDL
MODEL 5
REMARK VINA RESULT:      -7.4      1.109      1.247
REMARK  Name = 
REMARK  10 active torsions:
REMARK  status: ('A' for Active; 'I' for Inactive)
REMARK    1  A    between atoms: C_2  and  C_4
REMARK    2  A    between atoms: C_4  and  C_5
REMARK    3  A    between atoms: C_5  and  N_6
REMARK    4  A    between atoms: C_7  and  C_9
REMARK    5  A    between atoms: N_11  and  C1*_12
REMARK    6  A    between atoms: C4*_14  and  C5*_15
REMARK    7  A    between atoms: C5*_15  and  O5*_16
REMARK    8  A    between atoms: C3*_17  and  O3*_18
REMARK    9  A    between atoms: C2*_19  and  O2*_20
REMARK   10  A    between atoms: C_26  and  O_27
REMARK                            x       y       z     vdW  Elec       q    Type
REMARK                         _______ _______ _______ _____ _____    ______ ____
ROOT
ATOM      1  C   UNL     1       2.476   6.482  19.389  0.00  0.00    +0.000 A 
ATOM      2  C   UNL     1       3.623   6.687  18.632  0.00  0.00    +0.000 A 
ATOM      3  N   UNL     1       4.108   5.477  18.198  0.00  0.00    +0.000 N 
ATOM      4  C   UNL     1       3.286   4.480  18.656  0.00  0.00    +0.000 A 
ATOM      5  N   UNL     1       3.438   3.165  18.428  0.00  0.00    +0.000 NA
ATOM      6  C   UNL     1       2.465   2.412  18.952  0.00  0.00    +0.000 A 
ATOM      7  N   UNL     1       2.514   1.055  18.711  0.00  0.00    +0.000 N 
ATOM      8  N   UNL     1       1.443   2.844  19.698  0.00  0.00    +0.000 NA
ATOM      9  C   UNL     1       1.348   4.158  19.911  0.00  0.00    +0.000 A 
ATOM     10  C   UNL     1       2.264   5.065  19.392  0.00  0.00    +0.000 A 
ATOM     11  H   UNL     1       3.445   0.740  18.496  0.00  0.00    +0.000 HD
ATOM     12  H   UNL     1       1.985   0.543  19.404  0.00  0.00    +0.000 HD
ENDROOT
BRANCH   3  13
ATOM     13  C1* UNL     1       5.298   5.313  17.376  0.00  0.00    +0.000 C 
ATOM     14  O4* UNL     1       6.354   4.728  18.169  0.00  0.00    +0.000 OA
ATOM     15  C4* UNL     1       7.596   5.409  17.861  0.00  0.00    +0.000 C 
ATOM     16  C3* UNL     1       7.323   6.290  16.646  0.00  0.00    +0.000 C 
ATOM     17  C2* UNL     1       5.837   6.601  16.752  0.00  0.00    +0.000 C 
BRANCH  16  18
ATOM     18  O3* UNL     1       7.538   5.574  15.413  0.00  0.00    +0.000 OA
ATOM     19  H3* UNL     1       8.497   5.496  15.253  0.00  0.00    +0.000 HD
ENDBRANCH  16  18
BRANCH  17  20
ATOM     20  O2* UNL     1       5.276   6.872  15.467  0.00  0.00    +0.000 OA
ATOM     21  H2* UNL     1       4.791   6.060  15.203  0.00  0.00    +0.000 HD
ENDBRANCH  17  20
BRANCH  15  22
ATOM     22  C5* UNL     1       8.065   6.204  19.080  0.00  0.00    +0.000 C 
BRANCH  22  23
ATOM     23  O5* UNL     1       7.788   5.477  20.275  0.00  0.00    +0.000 OA
ATOM     24  H5* UNL     1       7.927   4.535  20.052  0.00  0.00    +0.000 HD
ENDBRANCH  22  23
ENDBRANCH  15  22
ENDBRANCH   3  13
BRANCH   1  26
ATOM     25  N   UNL     1       1.639   8.736  19.281  0.00  0.00    +0.000 N 
ATOM     26  C   UNL     1       1.733   7.578  20.012  0.00  0.00    +0.000 C 
ATOM     27  O   UNL     1       1.218   7.465  21.121  0.00  0.00    +0.000 OA
ATOM     28  H   UNL     1       2.145   8.812  18.403  0.00  0.00    +0.000 HD
BRANCH  25  29
ATOM     29  C   UNL     1       0.904   9.899  19.725  0.00  0.00    +0.000 C 
BRANCH  29  30
ATOM     30  C   UNL     1       0.677  10.896  18.599  0.00  0.00    +0.000 C 
BRANCH  30  32
ATOM     31  N   UNL     1       1.872  12.632  19.781  0.00  0.00    +0.000 NA
ATOM     32  C   UNL     1       1.722  11.987  18.675  0.00  0.00    +0.000 C 
ATOM     33  N   UNL     1       2.491  12.249  17.584  0.00  0.00    +0.000 N 
ATOM     34  H   UNL     1       2.631  13.309  19.684  0.00  0.00    +0.000 HD
ATOM     35  H   UNL     1       2.951  13.150  17.538  0.00  0.00    +0.000 HD
ATOM     36  H   UNL     1       2.159  11.914  16.686  0.00  0.00    +0.000 HD
ENDBRANCH  30  32
ENDBRANCH  29  30
ENDBRANCH  25  29
ENDBRANCH   1  26
BRANCH   9  37
ATOM     37  O   UNL     1       0.265   4.523  20.659  0.00  0.00    +0.000 OA
ATOM     38  H   UNL     1       0.638   5.286  21.140  0.00  0.00    +0.000 HD
ENDBRANCH   9  37
TORSDOF 10
ENDMDL
MODEL 6
REMARK VINA RESULT:      -7.3      1.735      2.537
REMARK  Name = 
REMARK  10 active torsions:
REMARK  status: ('A' for Active; 'I' for Inactive)
REMARK    1  A    between atoms: C_2  and  C_4
REMARK    2  A    between atoms: C_4  and  C_5
REMARK    3  A    between atoms: C_5  and  N_6
REMARK    4  A    between atoms: C_7  and  C_9
REMARK    5  A    between atoms: N_11  and  C1*_12
REMARK    6  A    between atoms: C4*_14  and  C5*_15
REMARK    7  A    between atoms: C5*_15  and  O5*_16
REMARK    8  A    between atoms: C3*_17  and  O3*_18
REMARK    9  A    between atoms: C2*_19  and  O2*_20
REMARK   10  A    between atoms: C_26  and  O_27
REMARK                            x       y       z     vdW  Elec       q    Type
REMARK                         _______ _______ _______ _____ _____    ______ ____
ROOT
ATOM      1  C   UNL     1       2.535   7.464  18.644  0.00  0.00    +0.000 A 
ATOM      2  C   UNL     1       3.589   7.174  17.787  0.00  0.00    +0.000 A 
ATOM      3  N   UNL     1       4.090   5.930  18.083  0.00  0.00    +0.000 N 
ATOM      4  C   UNL     1       3.370   5.396  19.119  0.00  0.00    +0.000 A 
ATOM      5  N   UNL     1       3.566   4.190  19.678  0.00  0.00    +0.000 NA
ATOM      6  C   UNL     1       2.689   3.895  20.643  0.00  0.00    +0.000 A 
ATOM      7  N   UNL     1       2.784   2.649  21.227  0.00  0.00    +0.000 N 
ATOM      8  N   UNL     1       1.725   4.695  21.109  0.00  0.00    +0.000 NA
ATOM      9  C   UNL     1       1.584   5.890  20.533  0.00  0.00    +0.000 A 
ATOM     10  C   UNL     1       2.396   6.314  19.489  0.00  0.00    +0.000 A 
ATOM     11  H   UNL     1       3.705   2.254  21.133  0.00  0.00    +0.000 HD
ATOM     12  H   UNL     1       2.353   2.642  22.141  0.00  0.00    +0.000 HD
ENDROOT
BRANCH   3  13
ATOM     13  C1* UNL     1       5.201   5.302  17.382  0.00  0.00    +0.000 C 
ATOM     14  O4* UNL     1       6.090   4.688  18.340  0.00  0.00    +0.000 OA
ATOM     15  C4* UNL     1       7.457   4.964  17.948  0.00  0.00    +0.000 C 
ATOM     16  C3* UNL     1       7.398   5.574  16.551  0.00  0.00    +0.000 C 
ATOM     17  C2* UNL     1       6.031   6.243  16.507  0.00  0.00    +0.000 C 
BRANCH  16  18
ATOM     18  O3* UNL     1       7.426   4.559  15.528  0.00  0.00    +0.000 OA
ATOM     19  H3* UNL     1       7.988   3.821  15.828  0.00  0.00    +0.000 HD
ENDBRANCH  16  18
BRANCH  17  20
ATOM     20  O2* UNL     1       5.543   6.328  15.167  0.00  0.00    +0.000 OA
ATOM     21  H2* UNL     1       4.602   6.599  15.235  0.00  0.00    +0.000 HD
ENDBRANCH  17  20
BRANCH  15  22
ATOM     22  C5* UNL     1       8.112   5.891  18.974  0.00  0.00    +0.000 C 
BRANCH  22  23
ATOM     23  O5* UNL     1       7.854   5.417  20.294  0.00  0.00    +0.000 OA
ATOM     24  H5* UNL     1       8.686   5.546  20.791  0.00  0.00    +0.000 HD
ENDBRANCH  22  23
ENDBRANCH  15  22
ENDBRANCH   3  13
BRANCH   1  26
ATOM     25  N   UNL     1       1.151   9.093  19.749  0.00  0.00    +0.000 N 
ATOM     26  C   UNL     1       1.800   8.729  18.596  0.00  0.00    +0.000 C 
ATOM     27  O   UNL     1       1.772   9.425  17.585  0.00  0.00    +0.000 OA
ATOM     28  H   UNL     1       1.137   8.452  20.536  0.00  0.00    +0.000 HD
BRANCH  25  29
ATOM     29  C   UNL     1       0.417  10.332  19.890  0.00  0.00    +0.000 C 
BRANCH  29  30
ATOM     30  C   UNL     1       0.383  10.814  21.331  0.00  0.00    +0.000 C 
BRANCH  30  32
ATOM     31  N   UNL     1      -0.616   9.060  22.659  0.00  0.00    +0.000 NA
ATOM     32  C   UNL     1       0.472   9.625  22.262  0.00  0.00    +0.000 C 
ATOM     33  N   UNL     1       1.696   9.168  22.643  0.00  0.00    +0.000 N 
ATOM     34  H   UNL     1      -0.392   8.258  23.253  0.00  0.00    +0.000 HD
ATOM     35  H   UNL     1       1.746   8.598  23.478  0.00  0.00    +0.000 HD
ATOM     36  H   UNL     1       2.485   9.794  22.529  0.00  0.00    +0.000 HD
ENDBRANCH  30  32
ENDBRANCH  29  30
ENDBRANCH  25  29
ENDBRANCH   1  26
BRANCH   9  37
ATOM     37  O   UNL     1       0.562   6.638  21.046  0.00  0.00    +0.000 OA
ATOM     38  H   UNL     1      -0.174   6.002  20.960  0.00  0.00    +0.000 HD
ENDBRANCH   9  37
TORSDOF 10
ENDMDL
MODEL 7
REMARK VINA RESULT:      -7.2      3.473      6.549
REMARK  Name = 
REMARK  10 active torsions:
REMARK  status: ('A' for Active; 'I' for Inactive)
REMARK    1  A    between atoms: C_2  and  C_4
REMARK    2  A    between atoms: C_4  and  C_5
REMARK    3  A    between atoms: C_5  and  N_6
REMARK    4  A    between atoms: C_7  and  C_9
REMARK    5  A    between atoms: N_11  and  C1*_12
REMARK    6  A    between atoms: C4*_14  and  C5*_15
REMARK    7  A    between atoms: C5*_15  and  O5*_16
REMARK    8  A    between atoms: C3*_17  and  O3*_18
REMARK    9  A    between atoms: C2*_19  and  O2*_20
REMARK   10  A    between atoms: C_26  and  O_27
REMARK                            x       y       z     vdW  Elec       q    Type
REMARK                         _______ _______ _______ _____ _____    ______ ____
ROOT
ATOM      1  C   UNL     1       6.427   5.326  17.745  0.00  0.00    +0.000 A 
ATOM      2  C   UNL     1       5.328   4.759  18.380  0.00  0.00    +0.000 A 
ATOM      3  N   UNL     1       4.551   4.107  17.455  0.00  0.00    +0.000 N 
ATOM      4  C   UNL     1       5.132   4.232  16.219  0.00  0.00    +0.000 A 
ATOM      5  N   UNL     1       4.661   3.719  15.071  0.00  0.00    +0.000 NA
ATOM      6  C   UNL     1       5.450   3.949  14.016  0.00  0.00    +0.000 A 
ATOM      7  N   UNL     1       5.069   3.403  12.808  0.00  0.00    +0.000 N 
ATOM      8  N   UNL     1       6.578   4.667  14.011  0.00  0.00    +0.000 NA
ATOM      9  C   UNL     1       6.993   5.170  15.175  0.00  0.00    +0.000 A 
ATOM     10  C   UNL     1       6.296   4.975  16.361  0.00  0.00    +0.000 A 
ATOM     11  H   UNL     1       4.080   3.217  12.769  0.00  0.00    +0.000 HD
ATOM     12  H   UNL     1       5.492   3.899  12.035  0.00  0.00    +0.000 HD
ENDROOT
BRANCH   3  13
ATOM     13  C1* UNL     1       3.320   3.396  17.768  0.00  0.00    +0.000 C 
ATOM     14  O4* UNL     1       2.342   4.328  18.279  0.00  0.00    +0.000 OA
ATOM     15  C4* UNL     1       1.666   3.718  19.407  0.00  0.00    +0.000 C 
ATOM     16  C3* UNL     1       2.088   2.252  19.431  0.00  0.00    +0.000 C 
ATOM     17  C2* UNL     1       3.467   2.263  18.786  0.00  0.00    +0.000 C 
BRANCH  16  18
ATOM     18  O3* UNL     1       1.224   1.439  18.613  0.00  0.00    +0.000 OA
ATOM     19  H3* UNL     1       1.771   0.867  18.042  0.00  0.00    +0.000 HD
ENDBRANCH  16  18
BRANCH  17  20
ATOM     20  O2* UNL     1       3.759   1.005  18.176  0.00  0.00    +0.000 OA
ATOM     21  H2* UNL     1       3.825   0.355  18.908  0.00  0.00    +0.000 HD
ENDBRANCH  17  20
BRANCH  15  22
ATOM     22  C5* UNL     1       2.029   4.463  20.692  0.00  0.00    +0.000 C 
BRANCH  22  23
ATOM     23  O5* UNL     1       2.619   5.722  20.377  0.00  0.00    +0.000 OA
ATOM     24  H5* UNL     1       3.375   5.824  20.988  0.00  0.00    +0.000 HD
ENDBRANCH  22  23
ENDBRANCH  15  22
ENDBRANCH   3  13
BRANCH   1  26
ATOM     25  N   UNL     1       7.679   7.368  17.972  0.00  0.00    +0.000 N 
ATOM     26  C   UNL     1       7.437   6.108  18.458  0.00  0.00    +0.000 C 
ATOM     27  O   UNL     1       8.030   5.663  19.438  0.00  0.00    +0.000 OA
ATOM     28  H   UNL     1       7.222   7.667  17.114  0.00  0.00    +0.000 HD
BRANCH  25  29
ATOM     29  C   UNL     1       8.611   8.291  18.582  0.00  0.00    +0.000 C 
BRANCH  29  30
ATOM     30  C   UNL     1       8.416   9.713  18.083  0.00  0.00    +0.000 C 
BRANCH  30  32
ATOM     31  N   UNL     1       9.408  10.674  20.065  0.00  0.00    +0.000 NA
ATOM     32  C   UNL     1       9.399  10.630  18.777  0.00  0.00    +0.000 C 
ATOM     33  N   UNL     1      10.262  11.370  18.030  0.00  0.00    +0.000 N 
ATOM     34  H   UNL     1      10.143  11.309  20.383  0.00  0.00    +0.000 HD
ATOM     35  H   UNL     1      10.684  12.182  18.464  0.00  0.00    +0.000 HD
ATOM     36  H   UNL     1      10.037  11.503  17.050  0.00  0.00    +0.000 HD
ENDBRANCH  30  32
ENDBRANCH  29  30
ENDBRANCH  25  29
ENDBRANCH   1  26
BRANCH   9  37
ATOM     37  O   UNL     1       8.164   5.868  15.093  0.00  0.00    +0.000 OA
ATOM     38  H   UNL     1       8.789   5.190  15.414  0.00  0.00    +0.000 HD
ENDBRANCH   9  37
TORSDOF 10
ENDMDL
MODEL 8
REMARK VINA RESULT:      -7.2      3.007      6.605
REMARK  Name = 
REMARK  10 active torsions:
REMARK  status: ('A' for Active; 'I' for Inactive)
REMARK    1  A    between atoms: C_2  and  C_4
REMARK    2  A    between atoms: C_4  and  C_5
REMARK    3  A    between atoms: C_5  and  N_6
REMARK    4  A    between atoms: C_7  and  C_9
REMARK    5  A    between atoms: N_11  and  C1*_12
REMARK    6  A    between atoms: C4*_14  and  C5*_15
REMARK    7  A    between atoms: C5*_15  and  O5*_16
REMARK    8  A    between atoms: C3*_17  and  O3*_18
REMARK    9  A    between atoms: C2*_19  and  O2*_20
REMARK   10  A    between atoms: C_26  and  O_27
REMARK                            x       y       z     vdW  Elec       q    Type
REMARK                         _______ _______ _______ _____ _____    ______ ____
ROOT
ATOM      1  C   UNL     1       4.446   5.981  17.833  0.00  0.00    +0.000 A 
ATOM      2  C   UNL     1       3.564   7.053  17.871  0.00  0.00    +0.000 A 
ATOM      3  N   UNL     1       2.610   6.828  18.832  0.00  0.00    +0.000 N 
ATOM      4  C   UNL     1       2.862   5.622  19.434  0.00  0.00    +0.000 A 
ATOM      5  N   UNL     1       2.143   5.070  20.425  0.00  0.00    +0.000 NA
ATOM      6  C   UNL     1       2.636   3.906  20.863  0.00  0.00    +0.000 A 
ATOM      7  N   UNL     1       1.992   3.303  21.922  0.00  0.00    +0.000 N 
ATOM      8  N   UNL     1       3.697   3.259  20.369  0.00  0.00    +0.000 NA
ATOM      9  C   UNL     1       4.365   3.842  19.372  0.00  0.00    +0.000 A 
ATOM     10  C   UNL     1       3.992   5.072  18.845  0.00  0.00    +0.000 A 
ATOM     11  H   UNL     1       1.033   3.599  22.003  0.00  0.00    +0.000 HD
ATOM     12  H   UNL     1       2.189   2.312  21.951  0.00  0.00    +0.000 HD
ENDROOT
BRANCH   3  13
ATOM     13  C1* UNL     1       1.525   7.747  19.148  0.00  0.00    +0.000 C 
ATOM     14  O4* UNL     1       1.284   8.613  18.018  0.00  0.00    +0.000 OA
ATOM     15  C4* UNL     1       1.075   9.962  18.504  0.00  0.00    +0.000 C 
ATOM     16  C3* UNL     1       0.946   9.867  20.021  0.00  0.00    +0.000 C 
ATOM     17  C2* UNL     1       1.761   8.630  20.374  0.00  0.00    +0.000 C 
BRANCH  16  18
ATOM     18  O3* UNL     1      -0.417   9.628  20.423  0.00  0.00    +0.000 OA
ATOM     19  H3* UNL     1      -0.419   9.102  21.245  0.00  0.00    +0.000 HD
ENDBRANCH  16  18
BRANCH  17  20
ATOM     20  O2* UNL     1       1.290   8.034  21.585  0.00  0.00    +0.000 OA
ATOM     21  H2* UNL     1       0.784   7.236  21.319  0.00  0.00    +0.000 HD
ENDBRANCH  17  20
BRANCH  15  22
ATOM     22  C5* UNL     1       2.233  10.857  18.060  0.00  0.00    +0.000 C 
BRANCH  22  23
ATOM     23  O5* UNL     1       1.788  12.205  17.934  0.00  0.00    +0.000 OA
ATOM     24  H5* UNL     1       1.004  12.175  17.351  0.00  0.00    +0.000 HD
ENDBRANCH  22  23
ENDBRANCH  15  22
ENDBRANCH   3  13
BRANCH   1  26
ATOM     25  N   UNL     1       5.901   4.657  16.447  0.00  0.00    +0.000 N 
ATOM     26  C   UNL     1       5.568   5.911  16.896  0.00  0.00    +0.000 C 
ATOM     27  O   UNL     1       6.171   6.916  16.530  0.00  0.00    +0.000 OA
ATOM     28  H   UNL     1       5.426   3.847  16.835  0.00  0.00    +0.000 HD
BRANCH  25  29
ATOM     29  C   UNL     1       6.953   4.412  15.484  0.00  0.00    +0.000 C 
BRANCH  29  30
ATOM     30  C   UNL     1       6.402   4.158  14.090  0.00  0.00    +0.000 C 
BRANCH  30  32
ATOM     31  N   UNL     1       8.168   5.668  13.429  0.00  0.00    +0.000 NA
ATOM     32  C   UNL     1       7.341   4.750  13.063  0.00  0.00    +0.000 C 
ATOM     33  N   UNL     1       7.306   4.288  11.783  0.00  0.00    +0.000 N 
ATOM     34  H   UNL     1       8.753   5.942  12.636  0.00  0.00    +0.000 HD
ATOM     35  H   UNL     1       7.696   4.878  11.059  0.00  0.00    +0.000 HD
ATOM     36  H   UNL     1       6.479   3.778  11.493  0.00  0.00    +0.000 HD
ENDBRANCH  30  32
ENDBRANCH  29  30
ENDBRANCH  25  29
ENDBRANCH   1  26
BRANCH   9  37
ATOM     37  O   UNL     1       5.449   3.133  18.940  0.00  0.00    +0.000 OA
ATOM     38  H   UNL     1       6.076   3.320  19.665  0.00  0.00    +0.000 HD
ENDBRANCH   9  37
TORSDOF 10
ENDMDL
MODEL 9
REMARK VINA RESULT:      -7.1      1.925      2.799
REMARK  Name = 
REMARK  10 active torsions:
REMARK  status: ('A' for Active; 'I' for Inactive)
REMARK    1  A    between atoms: C_2  and  C_4
REMARK    2  A    between atoms: C_4  and  C_5
REMARK    3  A    between atoms: C_5  and  N_6
REMARK    4  A    between atoms: C_7  and  C_9
REMARK    5  A    between atoms: N_11  and  C1*_12
REMARK    6  A    between atoms: C4*_14  and  C5*_15
REMARK    7  A    between atoms: C5*_15  and  O5*_16
REMARK    8  A    between atoms: C3*_17  and  O3*_18
REMARK    9  A    between atoms: C2*_19  and  O2*_20
REMARK   10  A    between atoms: C_26  and  O_27
REMARK                            x       y       z     vdW  Elec       q    Type
REMARK                         _______ _______ _______ _____ _____    ______ ____
ROOT
ATOM      1  C   UNL     1       2.494   8.087  18.410  0.00  0.00    +0.000 A 
ATOM      2  C   UNL     1       3.500   7.589  17.590  0.00  0.00    +0.000 A 
ATOM      3  N   UNL     1       3.886   6.351  18.042  0.00  0.00    +0.000 N 
ATOM      4  C   UNL     1       3.139   6.027  19.145  0.00  0.00    +0.000 A 
ATOM      5  N   UNL     1       3.232   4.890  19.854  0.00  0.00    +0.000 NA
ATOM      6  C   UNL     1       2.350   4.808  20.856  0.00  0.00    +0.000 A 
ATOM      7  N   UNL     1       2.338   3.645  21.597  0.00  0.00    +0.000 N 
ATOM      8  N   UNL     1       1.475   5.751  21.221  0.00  0.00    +0.000 NA
ATOM      9  C   UNL     1       1.436   6.870  20.495  0.00  0.00    +0.000 A 
ATOM     10  C   UNL     1       2.265   7.075  19.399  0.00  0.00    +0.000 A 
ATOM     11  H   UNL     1       3.216   3.154  21.548  0.00  0.00    +0.000 HD
ATOM     12  H   UNL     1       1.927   3.797  22.507  0.00  0.00    +0.000 HD
ENDROOT
BRANCH   3  13
ATOM     13  C1* UNL     1       4.919   5.533  17.421  0.00  0.00    +0.000 C 
ATOM     14  O4* UNL     1       5.734   4.926  18.447  0.00  0.00    +0.000 OA
ATOM     15  C4* UNL     1       7.123   5.006  18.042  0.00  0.00    +0.000 C 
ATOM     16  C3* UNL     1       7.131   5.471  16.589  0.00  0.00    +0.000 C 
ATOM     17  C2* UNL     1       5.848   6.280  16.463  0.00  0.00    +0.000 C 
BRANCH  16  18
ATOM     18  O3* UNL     1       7.043   4.358  15.677  0.00  0.00    +0.000 OA
ATOM     19  H3* UNL     1       6.179   4.384  15.226  0.00  0.00    +0.000 HD
ENDBRANCH  16  18
BRANCH  17  20
ATOM     20  O2* UNL     1       5.371   6.280  15.116  0.00  0.00    +0.000 OA
ATOM     21  H2* UNL     1       6.144   6.061  14.552  0.00  0.00    +0.000 HD
ENDBRANCH  17  20
BRANCH  15  22
ATOM     22  C5* UNL     1       7.879   5.954  18.975  0.00  0.00    +0.000 C 
BRANCH  22  23
ATOM     23  O5* UNL     1       7.844   5.457  20.310  0.00  0.00    +0.000 OA
ATOM     24  H5* UNL     1       7.182   4.738  20.310  0.00  0.00    +0.000 HD
ENDBRANCH  22  23
ENDBRANCH  15  22
ENDBRANCH   3  13
BRANCH   1  26
ATOM     25  N   UNL     1       0.620   9.565  18.717  0.00  0.00    +0.000 N 
ATOM     26  C   UNL     1       1.882   9.400  18.202  0.00  0.00    +0.000 C 
ATOM     27  O   UNL     1       2.466  10.302  17.608  0.00  0.00    +0.000 OA
ATOM     28  H   UNL     1       0.144   8.769  19.133  0.00  0.00    +0.000 HD
BRANCH  25  29
ATOM     29  C   UNL     1      -0.112  10.810  18.642  0.00  0.00    +0.000 C 
BRANCH  29  30
ATOM     30  C   UNL     1      -0.503  11.326  20.017  0.00  0.00    +0.000 C 
BRANCH  30  32
ATOM     31  N   UNL     1       1.014  10.607  21.755  0.00  0.00    +0.000 NA
ATOM     32  C   UNL     1       0.739  11.496  20.863  0.00  0.00    +0.000 C 
ATOM     33  N   UNL     1       1.548  12.570  20.651  0.00  0.00    +0.000 N 
ATOM     34  H   UNL     1       1.894  10.844  22.218  0.00  0.00    +0.000 HD
ATOM     35  H   UNL     1       2.178  12.839  21.396  0.00  0.00    +0.000 HD
ATOM     36  H   UNL     1       1.156  13.357  20.145  0.00  0.00    +0.000 HD
ENDBRANCH  30  32
ENDBRANCH  29  30
ENDBRANCH  25  29
ENDBRANCH   1  26
BRANCH   9  37
ATOM     37  O   UNL     1       0.500   7.772  20.913  0.00  0.00    +0.000 OA
ATOM     38  H   UNL     1       0.310   8.224  20.070  0.00  0.00    +0.000 HD
ENDBRANCH   9  37
TORSDOF 10
ENDMDL
