MODEL 1
REMARK VINA RESULT:      -8.5      0.000      0.000
REMARK  Name = 
REMARK  3 active torsions:
REMARK  status: ('A' for Active; 'I' for Inactive)
REMARK    1  A    between atoms: C_4  and  C_5
REMARK    2  A    between atoms: C_8  and  C_9
REMARK    3  A    between atoms: C_14  and  C_15
REMARK                            x       y       z     vdW  Elec       q    Type
REMARK                         _______ _______ _______ _____ _____    ______ ____
ROOT
ATOM      1  C   UNL     1       1.239   8.149  20.475  0.00  0.00    +0.000 A 
ATOM      2  C   UNL     1       1.517   6.860  20.889  0.00  0.00    +0.000 A 
ATOM      3  C   UNL     1       2.366   6.240  19.944  0.00  0.00    +0.000 A 
ATOM      4  C   UNL     1       2.938   4.963  19.865  0.00  0.00    +0.000 A 
ATOM      5  C   UNL     1       3.773   4.651  18.792  0.00  0.00    +0.000 A 
ATOM      6  C   UNL     1       4.062   5.579  17.783  0.00  0.00    +0.000 A 
ATOM      7  C   UNL     1       3.488   6.871  17.852  0.00  0.00    +0.000 A 
ATOM      8  C   UNL     1       2.630   7.169  18.937  0.00  0.00    +0.000 A 
ATOM      9  N   UNL     1       1.895   8.302  19.263  0.00  0.00    +0.000 N 
ATOM     10  H   UNL     1       1.860   9.138  18.694  0.00  0.00    +0.000 HD
ENDROOT
BRANCH   1  14
ATOM     11  C   UNL     1      -1.129  11.213  22.414  0.00  0.00    +0.000 A 
ATOM     12  C   UNL     1      -0.825  11.291  21.052  0.00  0.00    +0.000 A 
ATOM     13  C   UNL     1      -0.058  10.285  20.434  0.00  0.00    +0.000 A 
ATOM     14  C   UNL     1       0.423   9.172  21.150  0.00  0.00    +0.000 A 
ATOM     15  C   UNL     1       0.137   9.111  22.515  0.00  0.00    +0.000 A 
ATOM     16  C   UNL     1      -0.627  10.115  23.131  0.00  0.00    +0.000 A 
BRANCH  11  20
ATOM     17  C   UNL     1      -3.629  13.155  24.113  0.00  0.00    +0.000 A 
ATOM     18  C   UNL     1      -2.650  14.113  24.042  0.00  0.00    +0.000 A 
ATOM     19  N   UNL     1      -1.593  13.493  23.428  0.00  0.00    +0.000 N 
ATOM     20  C   UNL     1      -1.961  12.198  23.124  0.00  0.00    +0.000 A 
ATOM     21  N   UNL     1      -3.194  11.983  23.556  0.00  0.00    +0.000 NA
ATOM     22  H   UNL     1      -0.702  13.918  23.223  0.00  0.00    +0.000 HD
ENDBRANCH  11  20
ENDBRANCH   1  14
BRANCH   6  23
ATOM     23  C   UNL     1       4.922   5.112  16.679  0.00  0.00    +0.000 A 
ATOM     24  N   UNL     1       5.247   5.817  15.605  0.00  0.00    +0.000 NA
ATOM     25  C   UNL     1       6.155   5.075  14.900  0.00  0.00    +0.000 A 
ATOM     26  C   UNL     1       6.380   3.882  15.526  0.00  0.00    +0.000 A 
ATOM     27  N   UNL     1       5.570   3.898  16.631  0.00  0.00    +0.000 N 
ATOM     28  H   UNL     1       5.498   3.170  17.324  0.00  0.00    +0.000 HD
ENDBRANCH   6  23
TORSDOF 3
ENDMDL
MODEL 2
REMARK VINA RESULT:      -8.4      0.207      1.224
REMARK  Name = 
REMARK  3 active torsions:
REMARK  status: ('A' for Active; 'I' for Inactive)
REMARK    1  A    between atoms: C_4  and  C_5
REMARK    2  A    between atoms: C_8  and  C_9
REMARK    3  A    between atoms: C_14  and  C_15
REMARK                            x       y       z     vdW  Elec       q    Type
REMARK                         _______ _______ _______ _____ _____    ______ ____
ROOT
ATOM      1  C   UNL     1       1.272   8.287  20.426  0.00  0.00    +0.000 A 
ATOM      2  C   UNL     1       1.613   7.019  20.858  0.00  0.00    +0.000 A 
ATOM      3  C   UNL     1       2.444   6.406  19.892  0.00  0.00    +0.000 A 
ATOM      4  C   UNL     1       3.057   5.148  19.819  0.00  0.00    +0.000 A 
ATOM      5  C   UNL     1       3.858   4.839  18.720  0.00  0.00    +0.000 A 
ATOM      6  C   UNL     1       4.073   5.752  17.678  0.00  0.00    +0.000 A 
ATOM      7  C   UNL     1       3.457   7.024  17.742  0.00  0.00    +0.000 A 
ATOM      8  C   UNL     1       2.634   7.319  18.855  0.00  0.00    +0.000 A 
ATOM      9  N   UNL     1       1.874   8.434  19.185  0.00  0.00    +0.000 N 
ATOM     10  H   UNL     1       1.785   9.254  18.600  0.00  0.00    +0.000 HD
ENDROOT
BRANCH   1  14
ATOM     11  C   UNL     1      -1.178  11.203  22.489  0.00  0.00    +0.000 A 
ATOM     12  C   UNL     1      -0.652  10.096  23.162  0.00  0.00    +0.000 A 
ATOM     13  C   UNL     1       0.147   9.159  22.480  0.00  0.00    +0.000 A 
ATOM     14  C   UNL     1       0.450   9.297  21.112  0.00  0.00    +0.000 A 
ATOM     15  C   UNL     1      -0.097  10.391  20.438  0.00  0.00    +0.000 A 
ATOM     16  C   UNL     1      -0.894  11.325  21.119  0.00  0.00    +0.000 A 
BRANCH  11  20
ATOM     17  C   UNL     1      -2.589  14.113  24.051  0.00  0.00    +0.000 A 
ATOM     18  C   UNL     1      -3.669  13.279  24.177  0.00  0.00    +0.000 A 
ATOM     19  N   UNL     1      -3.282  12.107  23.583  0.00  0.00    +0.000 N 
ATOM     20  C   UNL     1      -1.983  12.249  23.138  0.00  0.00    +0.000 A 
ATOM     21  N   UNL     1      -1.564  13.476  23.405  0.00  0.00    +0.000 NA
ATOM     22  H   UNL     1      -3.848  11.277  23.498  0.00  0.00    +0.000 HD
ENDBRANCH  11  20
ENDBRANCH   1  14
BRANCH   6  23
ATOM     23  C   UNL     1       4.903   5.288  16.551  0.00  0.00    +0.000 A 
ATOM     24  N   UNL     1       5.514   6.070  15.672  0.00  0.00    +0.000 NA
ATOM     25  C   UNL     1       6.277   5.258  14.878  0.00  0.00    +0.000 A 
ATOM     26  C   UNL     1       6.120   3.952  15.246  0.00  0.00    +0.000 A 
ATOM     27  N   UNL     1       5.223   3.977  16.281  0.00  0.00    +0.000 N 
ATOM     28  H   UNL     1       4.892   3.177  16.798  0.00  0.00    +0.000 HD
ENDBRANCH   6  23
TORSDOF 3
ENDMDL
MODEL 3
REMARK VINA RESULT:      -8.4      0.281      1.227
REMARK  Name = 
REMARK  3 active torsions:
REMARK  status: ('A' for Active; 'I' for Inactive)
REMARK    1  A    between atoms: C_4  and  C_5
REMARK    2  A    between atoms: C_8  and  C_9
REMARK    3  A    between atoms: C_14  and  C_15
REMARK                            x       y       z     vdW  Elec       q    Type
REMARK                         _______ _______ _______ _____ _____    ______ ____
ROOT
ATOM      1  C   UNL     1       1.405   8.090  20.326  0.00  0.00    +0.000 A 
ATOM      2  C   UNL     1       1.680   6.795  20.722  0.00  0.00    +0.000 A 
ATOM      3  C   UNL     1       2.529   6.187  19.769  0.00  0.00    +0.000 A 
ATOM      4  C   UNL     1       3.099   4.910  19.672  0.00  0.00    +0.000 A 
ATOM      5  C   UNL     1       3.934   4.612  18.596  0.00  0.00    +0.000 A 
ATOM      6  C   UNL     1       4.227   5.554  17.600  0.00  0.00    +0.000 A 
ATOM      7  C   UNL     1       3.655   6.845  17.688  0.00  0.00    +0.000 A 
ATOM      8  C   UNL     1       2.796   7.130  18.776  0.00  0.00    +0.000 A 
ATOM      9  N   UNL     1       2.064   8.260  19.117  0.00  0.00    +0.000 N 
ATOM     10  H   UNL     1       2.031   9.104  18.561  0.00  0.00    +0.000 HD
ENDROOT
BRANCH   1  14
ATOM     11  C   UNL     1      -1.017  11.019  22.402  0.00  0.00    +0.000 A 
ATOM     12  C   UNL     1      -0.458   9.934  23.082  0.00  0.00    +0.000 A 
ATOM     13  C   UNL     1       0.331   8.992  22.395  0.00  0.00    +0.000 A 
ATOM     14  C   UNL     1       0.591   9.105  21.015  0.00  0.00    +0.000 A 
ATOM     15  C   UNL     1       0.011  10.178  20.337  0.00  0.00    +0.000 A 
ATOM     16  C   UNL     1      -0.776  11.116  21.021  0.00  0.00    +0.000 A 
BRANCH  11  20
ATOM     17  C   UNL     1      -3.457  13.149  23.957  0.00  0.00    +0.000 A 
ATOM     18  C   UNL     1      -2.424  14.048  23.892  0.00  0.00    +0.000 A 
ATOM     19  N   UNL     1      -1.384  13.352  23.333  0.00  0.00    +0.000 N 
ATOM     20  C   UNL     1      -1.814  12.070  23.054  0.00  0.00    +0.000 A 
ATOM     21  N   UNL     1      -3.070  11.937  23.450  0.00  0.00    +0.000 NA
ATOM     22  H   UNL     1      -0.464  13.720  23.146  0.00  0.00    +0.000 HD
ENDBRANCH  11  20
ENDBRANCH   1  14
BRANCH   6  23
ATOM     23  C   UNL     1       5.087   5.101  16.491  0.00  0.00    +0.000 A 
ATOM     24  N   UNL     1       5.385   3.839  16.215  0.00  0.00    +0.000 NA
ATOM     25  C   UNL     1       6.094   3.845  15.044  0.00  0.00    +0.000 A 
ATOM     26  C   UNL     1       6.264   5.125  14.599  0.00  0.00    +0.000 A 
ATOM     27  N   UNL     1       5.655   5.915  15.538  0.00  0.00    +0.000 N 
ATOM     28  H   UNL     1       5.585   6.920  15.511  0.00  0.00    +0.000 HD
ENDBRANCH   6  23
TORSDOF 3
ENDMDL
MODEL 4
REMARK VINA RESULT:      -8.4      0.162      1.041
REMARK  Name = 
REMARK  3 active torsions:
REMARK  status: ('A' for Active; 'I' for Inactive)
REMARK    1  A    between atoms: C_4  and  C_5
REMARK    2  A    between atoms: C_8  and  C_9
REMARK    3  A    between atoms: C_14  and  C_15
REMARK                            x       y       z     vdW  Elec       q    Type
REMARK                         _______ _______ _______ _____ _____    ______ ____
ROOT
ATOM      1  C   UNL     1       1.243   8.216  20.448  0.00  0.00    +0.000 A 
ATOM      2  C   UNL     1       1.537   6.932  20.865  0.00  0.00    +0.000 A 
ATOM      3  C   UNL     1       2.392   6.319  19.919  0.00  0.00    +0.000 A 
ATOM      4  C   UNL     1       2.979   5.049  19.842  0.00  0.00    +0.000 A 
ATOM      5  C   UNL     1       3.815   4.745  18.768  0.00  0.00    +0.000 A 
ATOM      6  C   UNL     1       4.090   5.674  17.756  0.00  0.00    +0.000 A 
ATOM      7  C   UNL     1       3.502   6.958  17.823  0.00  0.00    +0.000 A 
ATOM      8  C   UNL     1       2.642   7.249  18.910  0.00  0.00    +0.000 A 
ATOM      9  N   UNL     1       1.895   8.374  19.234  0.00  0.00    +0.000 N 
ATOM     10  H   UNL     1       1.848   9.209  18.664  0.00  0.00    +0.000 HD
ENDROOT
BRANCH   1  14
ATOM     11  C   UNL     1      -1.153  11.258  22.388  0.00  0.00    +0.000 A 
ATOM     12  C   UNL     1      -0.792  11.373  21.043  0.00  0.00    +0.000 A 
ATOM     13  C   UNL     1      -0.017  10.374  20.424  0.00  0.00    +0.000 A 
ATOM     14  C   UNL     1       0.417   9.231  21.123  0.00  0.00    +0.000 A 
ATOM     15  C   UNL     1       0.074   9.132  22.472  0.00  0.00    +0.000 A 
ATOM     16  C   UNL     1      -0.698  10.128  23.089  0.00  0.00    +0.000 A 
BRANCH  11  20
ATOM     17  C   UNL     1      -2.684  14.029  24.085  0.00  0.00    +0.000 A 
ATOM     18  C   UNL     1      -3.707  13.127  24.219  0.00  0.00    +0.000 A 
ATOM     19  N   UNL     1      -3.270  11.998  23.577  0.00  0.00    +0.000 N 
ATOM     20  C   UNL     1      -1.998  12.234  23.095  0.00  0.00    +0.000 A 
ATOM     21  N   UNL     1      -1.645  13.476  23.387  0.00  0.00    +0.000 NA
ATOM     22  H   UNL     1      -3.787  11.138  23.485  0.00  0.00    +0.000 HD
ENDBRANCH  11  20
ENDBRANCH   1  14
BRANCH   6  23
ATOM     23  C   UNL     1       4.953   5.214  16.652  0.00  0.00    +0.000 A 
ATOM     24  N   UNL     1       5.306   3.957  16.423  0.00  0.00    +0.000 NA
ATOM     25  C   UNL     1       5.996   3.945  15.241  0.00  0.00    +0.000 A 
ATOM     26  C   UNL     1       6.098   5.211  14.739  0.00  0.00    +0.000 A 
ATOM     27  N   UNL     1       5.468   6.012  15.655  0.00  0.00    +0.000 N 
ATOM     28  H   UNL     1       5.350   7.011  15.587  0.00  0.00    +0.000 HD
ENDBRANCH   6  23
TORSDOF 3
ENDMDL
MODEL 5
REMARK VINA RESULT:      -8.2      1.599      2.677
REMARK  Name = 
REMARK  3 active torsions:
REMARK  status: ('A' for Active; 'I' for Inactive)
REMARK    1  A    between atoms: C_4  and  C_5
REMARK    2  A    between atoms: C_8  and  C_9
REMARK    3  A    between atoms: C_14  and  C_15
REMARK                            x       y       z     vdW  Elec       q    Type
REMARK                         _______ _______ _______ _____ _____    ______ ____
ROOT
ATOM      1  C   UNL     1       2.598   7.358  18.709  0.00  0.00    +0.000 A 
ATOM      2  C   UNL     1       2.868   6.024  18.949  0.00  0.00    +0.000 A 
ATOM      3  C   UNL     1       3.732   5.535  17.942  0.00  0.00    +0.000 A 
ATOM      4  C   UNL     1       4.304   4.279  17.701  0.00  0.00    +0.000 A 
ATOM      5  C   UNL     1       5.156   4.113  16.609  0.00  0.00    +0.000 A 
ATOM      6  C   UNL     1       5.463   5.168  15.739  0.00  0.00    +0.000 A 
ATOM      7  C   UNL     1       4.889   6.440  15.974  0.00  0.00    +0.000 A 
ATOM      8  C   UNL     1       4.013   6.592  17.075  0.00  0.00    +0.000 A 
ATOM      9  N   UNL     1       3.275   7.672  17.539  0.00  0.00    +0.000 N 
ATOM     10  H   UNL     1       3.249   8.578  17.089  0.00  0.00    +0.000 HD
ENDROOT
BRANCH   1  14
ATOM     11  C   UNL     1       0.141  10.017  21.087  0.00  0.00    +0.000 A 
ATOM     12  C   UNL     1       0.681   8.851  21.635  0.00  0.00    +0.000 A 
ATOM     13  C   UNL     1       1.482   7.998  20.852  0.00  0.00    +0.000 A 
ATOM     14  C   UNL     1       1.773   8.283  19.503  0.00  0.00    +0.000 A 
ATOM     15  C   UNL     1       1.211   9.437  18.953  0.00  0.00    +0.000 A 
ATOM     16  C   UNL     1       0.412  10.286  19.735  0.00  0.00    +0.000 A 
BRANCH  11  20
ATOM     17  C   UNL     1      -1.747  11.955  23.450  0.00  0.00    +0.000 A 
ATOM     18  C   UNL     1      -1.984  12.717  22.336  0.00  0.00    +0.000 A 
ATOM     19  N   UNL     1      -1.285  12.103  21.331  0.00  0.00    +0.000 N 
ATOM     20  C   UNL     1      -0.667  10.982  21.849  0.00  0.00    +0.000 A 
ATOM     21  N   UNL     1      -0.931  10.900  23.143  0.00  0.00    +0.000 NA
ATOM     22  H   UNL     1      -1.241  12.411  20.372  0.00  0.00    +0.000 HD
ENDBRANCH  11  20
ENDBRANCH   1  14
BRANCH   6  23
ATOM     23  C   UNL     1       6.340   4.852  14.597  0.00  0.00    +0.000 A 
ATOM     24  N   UNL     1       6.085   3.954  13.656  0.00  0.00    +0.000 NA
ATOM     25  C   UNL     1       7.079   4.062  12.721  0.00  0.00    +0.000 A 
ATOM     26  C   UNL     1       7.979   5.018  13.096  0.00  0.00    +0.000 A 
ATOM     27  N   UNL     1       7.525   5.487  14.300  0.00  0.00    +0.000 N 
ATOM     28  H   UNL     1       7.952   6.214  14.852  0.00  0.00    +0.000 HD
ENDBRANCH   6  23
TORSDOF 3
ENDMDL
MODEL 6
REMARK VINA RESULT:      -8.2      0.938     10.085
REMARK  Name = 
REMARK  3 active torsions:
REMARK  status: ('A' for Active; 'I' for Inactive)
REMARK    1  A    between atoms: C_4  and  C_5
REMARK    2  A    between atoms: C_8  and  C_9
REMARK    3  A    between atoms: C_14  and  C_15
REMARK                            x       y       z     vdW  Elec       q    Type
REMARK                         _______ _______ _______ _____ _____    ______ ____
ROOT
ATOM      1  C   UNL     1       1.559   8.408  20.005  0.00  0.00    +0.000 A 
ATOM      2  C   UNL     1       1.322   8.207  21.352  0.00  0.00    +0.000 A 
ATOM      3  C   UNL     1       0.407   9.181  21.815  0.00  0.00    +0.000 A 
ATOM      4  C   UNL     1      -0.160   9.440  23.070  0.00  0.00    +0.000 A 
ATOM      5  C   UNL     1      -1.072  10.485  23.207  0.00  0.00    +0.000 A 
ATOM      6  C   UNL     1      -1.445  11.292  22.123  0.00  0.00    +0.000 A 
ATOM      7  C   UNL     1      -0.877  11.040  20.852  0.00  0.00    +0.000 A 
ATOM      8  C   UNL     1       0.061   9.986  20.730  0.00  0.00    +0.000 A 
ATOM      9  N   UNL     1       0.809   9.522  19.656  0.00  0.00    +0.000 N 
ATOM     10  H   UNL     1       0.795   9.936  18.733  0.00  0.00    +0.000 HD
ENDROOT
BRANCH   1  14
ATOM     11  C   UNL     1       4.116   6.075  17.402  0.00  0.00    +0.000 A 
ATOM     12  C   UNL     1       3.674   5.564  18.625  0.00  0.00    +0.000 A 
ATOM     13  C   UNL     1       2.839   6.332  19.459  0.00  0.00    +0.000 A 
ATOM     14  C   UNL     1       2.416   7.627  19.099  0.00  0.00    +0.000 A 
ATOM     15  C   UNL     1       2.880   8.141  17.887  0.00  0.00    +0.000 A 
ATOM     16  C   UNL     1       3.713   7.376  17.057  0.00  0.00    +0.000 A 
BRANCH  11  20
ATOM     17  C   UNL     1       5.949   3.704  15.422  0.00  0.00    +0.000 A 
ATOM     18  C   UNL     1       6.434   4.853  14.852  0.00  0.00    +0.000 A 
ATOM     19  N   UNL     1       5.786   5.870  15.501  0.00  0.00    +0.000 N 
ATOM     20  C   UNL     1       4.952   5.321  16.455  0.00  0.00    +0.000 A 
ATOM     21  N   UNL     1       5.035   4.001  16.396  0.00  0.00    +0.000 NA
ATOM     22  H   UNL     1       5.908   6.855  15.321  0.00  0.00    +0.000 HD
ENDBRANCH  11  20
ENDBRANCH   1  14
BRANCH   6  23
ATOM     23  C   UNL     1      -2.384  12.393  22.408  0.00  0.00    +0.000 A 
ATOM     24  N   UNL     1      -2.273  13.635  21.959  0.00  0.00    +0.000 NA
ATOM     25  C   UNL     1      -3.405  14.301  22.342  0.00  0.00    +0.000 A 
ATOM     26  C   UNL     1      -4.221  13.474  23.061  0.00  0.00    +0.000 A 
ATOM     27  N   UNL     1      -3.551  12.280  23.129  0.00  0.00    +0.000 N 
ATOM     28  H   UNL     1      -3.879  11.442  23.582  0.00  0.00    +0.000 HD
ENDBRANCH   6  23
TORSDOF 3
ENDMDL
MODEL 7
REMARK VINA RESULT:      -8.2      1.622      2.553
REMARK  Name = 
REMARK  3 active torsions:
REMARK  status: ('A' for Active; 'I' for Inactive)
REMARK    1  A    between atoms: C_4  and  C_5
REMARK    2  A    between atoms: C_8  and  C_9
REMARK    3  A    between atoms: C_14  and  C_15
REMARK                            x       y       z     vdW  Elec       q    Type
REMARK                         _______ _______ _______ _____ _____    ______ ____
ROOT
ATOM      1  C   UNL     1       2.636   7.315  18.674  0.00  0.00    +0.000 A 
ATOM      2  C   UNL     1       2.790   5.950  18.822  0.00  0.00    +0.000 A 
ATOM      3  C   UNL     1       3.653   5.466  17.813  0.00  0.00    +0.000 A 
ATOM      4  C   UNL     1       4.134   4.188  17.497  0.00  0.00    +0.000 A 
ATOM      5  C   UNL     1       5.015   4.033  16.427  0.00  0.00    +0.000 A 
ATOM      6  C   UNL     1       5.439   5.119  15.650  0.00  0.00    +0.000 A 
ATOM      7  C   UNL     1       4.958   6.414  15.960  0.00  0.00    +0.000 A 
ATOM      8  C   UNL     1       4.052   6.556  17.038  0.00  0.00    +0.000 A 
ATOM      9  N   UNL     1       3.383   7.657  17.556  0.00  0.00    +0.000 N 
ATOM     10  H   UNL     1       3.447   8.592  17.175  0.00  0.00    +0.000 HD
ENDROOT
BRANCH   1  14
ATOM     11  C   UNL     1       0.371  10.109  21.088  0.00  0.00    +0.000 A 
ATOM     12  C   UNL     1       0.740  10.422  19.777  0.00  0.00    +0.000 A 
ATOM     13  C   UNL     1       1.472   9.502  19.002  0.00  0.00    +0.000 A 
ATOM     14  C   UNL     1       1.854   8.244  19.507  0.00  0.00    +0.000 A 
ATOM     15  C   UNL     1       1.504   7.946  20.825  0.00  0.00    +0.000 A 
ATOM     16  C   UNL     1       0.775   8.863  21.597  0.00  0.00    +0.000 A 
BRANCH  11  20
ATOM     17  C   UNL     1      -1.794  11.712  23.463  0.00  0.00    +0.000 A 
ATOM     18  C   UNL     1      -1.416  12.826  22.759  0.00  0.00    +0.000 A 
ATOM     19  N   UNL     1      -0.541  12.365  21.811  0.00  0.00    +0.000 N 
ATOM     20  C   UNL     1      -0.431  10.995  21.946  0.00  0.00    +0.000 A 
ATOM     21  N   UNL     1      -1.178  10.597  22.963  0.00  0.00    +0.000 NA
ATOM     22  H   UNL     1      -0.069  12.930  21.123  0.00  0.00    +0.000 HD
ENDBRANCH  11  20
ENDBRANCH   1  14
BRANCH   6  23
ATOM     23  C   UNL     1       6.335   4.816  14.519  0.00  0.00    +0.000 A 
ATOM     24  N   UNL     1       6.114   3.901  13.586  0.00  0.00    +0.000 NA
ATOM     25  C   UNL     1       7.112   4.028  12.658  0.00  0.00    +0.000 A 
ATOM     26  C   UNL     1       7.982   5.014  13.030  0.00  0.00    +0.000 A 
ATOM     27  N   UNL     1       7.503   5.483  14.225  0.00  0.00    +0.000 N 
ATOM     28  H   UNL     1       7.904   6.228  14.773  0.00  0.00    +0.000 HD
ENDBRANCH   6  23
TORSDOF 3
ENDMDL
MODEL 8
REMARK VINA RESULT:      -8.1      1.152      1.823
REMARK  Name = 
REMARK  3 active torsions:
REMARK  status: ('A' for Active; 'I' for Inactive)
REMARK    1  A    between atoms: C_4  and  C_5
REMARK    2  A    between atoms: C_8  and  C_9
REMARK    3  A    between atoms: C_14  and  C_15
REMARK                            x       y       z     vdW  Elec       q    Type
REMARK                         _______ _______ _______ _____ _____    ______ ____
ROOT
ATOM      1  C   UNL     1       2.124   7.751  19.455  0.00  0.00    +0.000 A 
ATOM      2  C   UNL     1       2.318   6.410  19.731  0.00  0.00    +0.000 A 
ATOM      3  C   UNL     1       3.164   5.850  18.747  0.00  0.00    +0.000 A 
ATOM      4  C   UNL     1       3.668   4.558  18.543  0.00  0.00    +0.000 A 
ATOM      5  C   UNL     1       4.521   4.318  17.465  0.00  0.00    +0.000 A 
ATOM      6  C   UNL     1       4.894   5.333  16.574  0.00  0.00    +0.000 A 
ATOM      7  C   UNL     1       4.389   6.640  16.770  0.00  0.00    +0.000 A 
ATOM      8  C   UNL     1       3.511   6.867  17.858  0.00  0.00    +0.000 A 
ATOM      9  N   UNL     1       2.829   7.998  18.286  0.00  0.00    +0.000 N 
ATOM     10  H   UNL     1       2.858   8.892  17.814  0.00  0.00    +0.000 HD
ENDROOT
BRANCH   1  14
ATOM     11  C   UNL     1      -0.196  10.601  21.747  0.00  0.00    +0.000 A 
ATOM     12  C   UNL     1       0.443   9.525  22.369  0.00  0.00    +0.000 A 
ATOM     13  C   UNL     1       1.198   8.609  21.612  0.00  0.00    +0.000 A 
ATOM     14  C   UNL     1       1.343   8.739  20.217  0.00  0.00    +0.000 A 
ATOM     15  C   UNL     1       0.683   9.801  19.598  0.00  0.00    +0.000 A 
ATOM     16  C   UNL     1      -0.070  10.714  20.352  0.00  0.00    +0.000 A 
BRANCH  11  20
ATOM     17  C   UNL     1      -2.486  12.609  23.651  0.00  0.00    +0.000 A 
ATOM     18  C   UNL     1      -1.651  13.611  23.229  0.00  0.00    +0.000 A 
ATOM     19  N   UNL     1      -0.683  12.977  22.495  0.00  0.00    +0.000 N 
ATOM     20  C   UNL     1      -0.965  11.626  22.471  0.00  0.00    +0.000 A 
ATOM     21  N   UNL     1      -2.052  11.396  23.190  0.00  0.00    +0.000 NA
ATOM     22  H   UNL     1       0.096  13.426  22.039  0.00  0.00    +0.000 HD
ENDBRANCH  11  20
ENDBRANCH   1  14
BRANCH   6  23
ATOM     23  C   UNL     1       5.764   4.940  15.450  0.00  0.00    +0.000 A 
ATOM     24  N   UNL     1       5.468   4.037  14.526  0.00  0.00    +0.000 NA
ATOM     25  C   UNL     1       6.477   4.066  13.602  0.00  0.00    +0.000 A 
ATOM     26  C   UNL     1       7.426   4.978  13.965  0.00  0.00    +0.000 A 
ATOM     27  N   UNL     1       6.986   5.500  15.153  0.00  0.00    +0.000 N 
ATOM     28  H   UNL     1       7.448   6.215  15.694  0.00  0.00    +0.000 HD
ENDBRANCH   6  23
TORSDOF 3
ENDMDL
MODEL 9
REMARK VINA RESULT:      -8.0      0.959     10.062
REMARK  Name = 
REMARK  3 active torsions:
REMARK  status: ('A' for Active; 'I' for Inactive)
REMARK    1  A    between atoms: C_4  and  C_5
REMARK    2  A    between atoms: C_8  and  C_9
REMARK    3  A    between atoms: C_14  and  C_15
REMARK                            x       y       z     vdW  Elec       q    Type
REMARK                         _______ _______ _______ _____ _____    ______ ____
ROOT
ATOM      1  C   UNL     1       1.619   8.415  20.059  0.00  0.00    +0.000 A 
ATOM      2  C   UNL     1       1.343   8.186  21.394  0.00  0.00    +0.000 A 
ATOM      3  C   UNL     1       0.424   9.159  21.852  0.00  0.00    +0.000 A 
ATOM      4  C   UNL     1      -0.175   9.396  23.097  0.00  0.00    +0.000 A 
ATOM      5  C   UNL     1      -1.082  10.447  23.231  0.00  0.00    +0.000 A 
ATOM      6  C   UNL     1      -1.416  11.281  22.156  0.00  0.00    +0.000 A 
ATOM      7  C   UNL     1      -0.815  11.051  20.896  0.00  0.00    +0.000 A 
ATOM      8  C   UNL     1       0.115   9.991  20.776  0.00  0.00    +0.000 A 
ATOM      9  N   UNL     1       0.890   9.543  19.714  0.00  0.00    +0.000 N 
ATOM     10  H   UNL     1       0.905   9.977  18.800  0.00  0.00    +0.000 HD
ENDROOT
BRANCH   1  14
ATOM     11  C   UNL     1       4.157   6.181  17.352  0.00  0.00    +0.000 A 
ATOM     12  C   UNL     1       3.695   7.457  17.020  0.00  0.00    +0.000 A 
ATOM     13  C   UNL     1       2.874   8.174  17.911  0.00  0.00    +0.000 A 
ATOM     14  C   UNL     1       2.494   7.644  19.160  0.00  0.00    +0.000 A 
ATOM     15  C   UNL     1       2.938   6.360  19.477  0.00  0.00    +0.000 A 
ATOM     16  C   UNL     1       3.755   5.645  18.587  0.00  0.00    +0.000 A 
BRANCH  11  20
ATOM     17  C   UNL     1       6.626   4.821  15.126  0.00  0.00    +0.000 A 
ATOM     18  C   UNL     1       5.920   3.670  15.363  0.00  0.00    +0.000 A 
ATOM     19  N   UNL     1       4.935   4.034  16.243  0.00  0.00    +0.000 N 
ATOM     20  C   UNL     1       5.053   5.387  16.497  0.00  0.00    +0.000 A 
ATOM     21  N   UNL     1       6.093   5.865  15.832  0.00  0.00    +0.000 NA
ATOM     22  H   UNL     1       4.236   3.420  16.630  0.00  0.00    +0.000 HD
ENDBRANCH  11  20
ENDBRANCH   1  14
BRANCH   6  23
ATOM     23  C   UNL     1      -2.352  12.384  22.439  0.00  0.00    +0.000 A 
ATOM     24  N   UNL     1      -2.232  13.628  21.997  0.00  0.00    +0.000 NA
ATOM     25  C   UNL     1      -3.365  14.297  22.374  0.00  0.00    +0.000 A 
ATOM     26  C   UNL     1      -4.190  13.470  23.082  0.00  0.00    +0.000 A 
ATOM     27  N   UNL     1      -3.526  12.273  23.150  0.00  0.00    +0.000 N 
ATOM     28  H   UNL     1      -3.862  11.434  23.595  0.00  0.00    +0.000 HD
ENDBRANCH   6  23
TORSDOF 3
ENDMDL
