MODEL 1
REMARK VINA RESULT:      -7.3      0.000      0.000
REMARK  Name = 
REMARK  13 active torsions:
REMARK  status: ('A' for Active; 'I' for Inactive)
REMARK    1  A    between atoms: C_1  and  O_2
REMARK    2  A    between atoms: O_2  and  C_3
REMARK    3  A    between atoms: C_6  and  C_7
REMARK    4  A    between atoms: C_7  and  C_8
REMARK    5  A    between atoms: C_8  and  C_9
REMARK    6  A    between atoms: C_9  and  C_11
REMARK    7  A    between atoms: C_12  and  O_13
REMARK    8  A    between atoms: C_15  and  O_16
REMARK    9  A    between atoms: O_16  and  C_17
REMARK   10  A    between atoms: C_17  and  C_18
REMARK   11  A    between atoms: C_18  and  N_19
REMARK   12  A    between atoms: C_21  and  O_22
REMARK   13  A    between atoms: C_24  and  O_25
REMARK                            x       y       z     vdW  Elec       q    Type
REMARK                         _______ _______ _______ _____ _____    ______ ____
ROOT
ATOM      1  C   UNL     1       6.301   6.238  17.817  0.00  0.00    +0.000 A 
ATOM      2  C   UNL     1       6.304   5.533  19.026  0.00  0.00    +0.000 A 
ATOM      3  C   UNL     1       5.186   4.814  19.447  0.00  0.00    +0.000 A 
ATOM      4  C   UNL     1       4.013   4.818  18.690  0.00  0.00    +0.000 A 
ATOM      5  C   UNL     1       3.986   5.526  17.491  0.00  0.00    +0.000 A 
ATOM      6  C   UNL     1       5.120   6.226  17.056  0.00  0.00    +0.000 A 
ENDROOT
BRANCH   1   7
ATOM      7  C   UNL     1       7.552   6.950  17.410  0.00  0.00    +0.000 C 
ATOM      8  O   UNL     1       8.009   6.731  16.284  0.00  0.00    +0.000 OA
BRANCH   7   9
ATOM      9  C   UNL     1       8.151   7.980  18.344  0.00  0.00    +0.000 C 
BRANCH   9  10
ATOM     10  C   UNL     1       7.972   9.417  17.862  0.00  0.00    +0.000 C 
BRANCH  10  14
ATOM     11  C   UNL     1      10.998  12.023  19.566  0.00  0.00    +0.000 A 
ATOM     12  C   UNL     1      10.979  11.734  18.196  0.00  0.00    +0.000 A 
ATOM     13  C   UNL     1      10.014  10.885  17.645  0.00  0.00    +0.000 A 
ATOM     14  C   UNL     1       9.046  10.297  18.462  0.00  0.00    +0.000 A 
ATOM     15  C   UNL     1       9.049  10.592  19.833  0.00  0.00    +0.000 A 
ATOM     16  C   UNL     1      10.019  11.446  20.382  0.00  0.00    +0.000 A 
BRANCH  11  18
ATOM     17  C   UNL     1      11.757  14.264  19.923  0.00  0.00    +0.000 C 
ATOM     18  O   UNL     1      12.015  12.869  19.917  0.00  0.00    +0.000 OA
ENDBRANCH  11  18
BRANCH  16  19
ATOM     19  O   UNL     1       9.968  11.701  21.725  0.00  0.00    +0.000 OA
ATOM     20  H   UNL     1       9.606  10.925  22.183  0.00  0.00    +0.000 HD
ENDBRANCH  16  19
ENDBRANCH  10  14
ENDBRANCH   9  10
ENDBRANCH   7   9
ENDBRANCH   1   7
BRANCH   2  21
ATOM     21  O   UNL     1       7.375   5.483  19.883  0.00  0.00    +0.000 OA
ATOM     22  H   UNL     1       8.175   5.757  19.373  0.00  0.00    +0.000 HD
ENDBRANCH   2  21
BRANCH   6  23
ATOM     23  O   UNL     1       5.031   6.926  15.886  0.00  0.00    +0.000 OA
ATOM     24  H   UNL     1       4.195   6.721  15.436  0.00  0.00    +0.000 HD
ENDBRANCH   6  23
BRANCH   4  25
ATOM     25  O   UNL     1       2.848   4.177  19.042  0.00  0.00    +0.000 OA
BRANCH  25  26
ATOM     26  C   UNL     1       3.014   3.194  20.071  0.00  0.00    +0.000 C 
BRANCH  26  27
ATOM     27  C   UNL     1       1.938   3.320  21.147  0.00  0.00    +0.000 C 
BRANCH  27  28
ATOM     28  N   UNL     1       0.610   3.191  20.544  0.00  0.00    +0.000 NA
ATOM     29  H   UNL     1       0.013   2.621  21.144  0.00  0.00    +0.000 HD
ATOM     30  H   UNL     1       0.679   2.699  19.655  0.00  0.00    +0.000 HD
ENDBRANCH  27  28
ENDBRANCH  26  27
ENDBRANCH  25  26
ENDBRANCH   4  25
TORSDOF 12
ENDMDL
MODEL 2
REMARK VINA RESULT:      -7.3      1.305      2.370
REMARK  Name = 
REMARK  13 active torsions:
REMARK  status: ('A' for Active; 'I' for Inactive)
REMARK    1  A    between atoms: C_1  and  O_2
REMARK    2  A    between atoms: O_2  and  C_3
REMARK    3  A    between atoms: C_6  and  C_7
REMARK    4  A    between atoms: C_7  and  C_8
REMARK    5  A    between atoms: C_8  and  C_9
REMARK    6  A    between atoms: C_9  and  C_11
REMARK    7  A    between atoms: C_12  and  O_13
REMARK    8  A    between atoms: C_15  and  O_16
REMARK    9  A    between atoms: O_16  and  C_17
REMARK   10  A    between atoms: C_17  and  C_18
REMARK   11  A    between atoms: C_18  and  N_19
REMARK   12  A    between atoms: C_21  and  O_22
REMARK   13  A    between atoms: C_24  and  O_25
REMARK                            x       y       z     vdW  Elec       q    Type
REMARK                         _______ _______ _______ _____ _____    ______ ____
ROOT
ATOM      1  C   UNL     1       6.090   6.261  17.787  0.00  0.00    +0.000 A 
ATOM      2  C   UNL     1       4.905   6.222  17.043  0.00  0.00    +0.000 A 
ATOM      3  C   UNL     1       3.771   5.571  17.524  0.00  0.00    +0.000 A 
ATOM      4  C   UNL     1       3.802   4.899  18.747  0.00  0.00    +0.000 A 
ATOM      5  C   UNL     1       4.977   4.914  19.495  0.00  0.00    +0.000 A 
ATOM      6  C   UNL     1       6.109   5.592  19.022  0.00  0.00    +0.000 A 
ENDROOT
BRANCH   1   7
ATOM      7  C   UNL     1       7.254   7.016  17.226  0.00  0.00    +0.000 C 
ATOM      8  O   UNL     1       7.926   6.479  16.340  0.00  0.00    +0.000 OA
BRANCH   7   9
ATOM      9  C   UNL     1       7.503   8.437  17.688  0.00  0.00    +0.000 C 
BRANCH   9  10
ATOM     10  C   UNL     1       8.699   8.572  18.626  0.00  0.00    +0.000 C 
BRANCH  10  14
ATOM     11  C   UNL     1       9.601  12.755  19.357  0.00  0.00    +0.000 A 
ATOM     12  C   UNL     1       9.796  11.787  20.351  0.00  0.00    +0.000 A 
ATOM     13  C   UNL     1       9.495  10.441  20.124  0.00  0.00    +0.000 A 
ATOM     14  C   UNL     1       8.981  10.034  18.891  0.00  0.00    +0.000 A 
ATOM     15  C   UNL     1       8.796  10.994  17.885  0.00  0.00    +0.000 A 
ATOM     16  C   UNL     1       9.101  12.344  18.117  0.00  0.00    +0.000 A 
BRANCH  11  18
ATOM     17  C   UNL     1      11.327  14.356  19.787  0.00  0.00    +0.000 C 
ATOM     18  O   UNL     1       9.950  14.014  19.765  0.00  0.00    +0.000 OA
ENDBRANCH  11  18
BRANCH  16  19
ATOM     19  O   UNL     1       8.905  13.234  17.096  0.00  0.00    +0.000 OA
ATOM     20  H   UNL     1       8.005  13.591  17.154  0.00  0.00    +0.000 HD
ENDBRANCH  16  19
ENDBRANCH  10  14
ENDBRANCH   9  10
ENDBRANCH   7   9
ENDBRANCH   1   7
BRANCH   2  21
ATOM     21  O   UNL     1       4.754   6.804  15.809  0.00  0.00    +0.000 OA
ATOM     22  H   UNL     1       5.250   7.658  15.822  0.00  0.00    +0.000 HD
ENDBRANCH   2  21
BRANCH   6  23
ATOM     23  O   UNL     1       7.243   5.553  19.783  0.00  0.00    +0.000 OA
ATOM     24  H   UNL     1       7.017   5.381  20.712  0.00  0.00    +0.000 HD
ENDBRANCH   6  23
BRANCH   4  25
ATOM     25  O   UNL     1       2.750   4.194  19.284  0.00  0.00    +0.000 OA
BRANCH  25  26
ATOM     26  C   UNL     1       2.336   3.075  18.491  0.00  0.00    +0.000 C 
BRANCH  26  27
ATOM     27  C   UNL     1       0.933   2.608  18.870  0.00  0.00    +0.000 C 
BRANCH  27  28
ATOM     28  N   UNL     1       0.593   3.083  20.213  0.00  0.00    +0.000 NA
ATOM     29  H   UNL     1       0.479   4.097  20.201  0.00  0.00    +0.000 HD
ATOM     30  H   UNL     1       1.359   2.887  20.854  0.00  0.00    +0.000 HD
ENDBRANCH  27  28
ENDBRANCH  26  27
ENDBRANCH  25  26
ENDBRANCH   4  25
TORSDOF 12
ENDMDL
MODEL 3
REMARK VINA RESULT:      -7.3      1.262      2.320
REMARK  Name = 
REMARK  13 active torsions:
REMARK  status: ('A' for Active; 'I' for Inactive)
REMARK    1  A    between atoms: C_1  and  O_2
REMARK    2  A    between atoms: O_2  and  C_3
REMARK    3  A    between atoms: C_6  and  C_7
REMARK    4  A    between atoms: C_7  and  C_8
REMARK    5  A    between atoms: C_8  and  C_9
REMARK    6  A    between atoms: C_9  and  C_11
REMARK    7  A    between atoms: C_12  and  O_13
REMARK    8  A    between atoms: C_15  and  O_16
REMARK    9  A    between atoms: O_16  and  C_17
REMARK   10  A    between atoms: C_17  and  C_18
REMARK   11  A    between atoms: C_18  and  N_19
REMARK   12  A    between atoms: C_21  and  O_22
REMARK   13  A    between atoms: C_24  and  O_25
REMARK                            x       y       z     vdW  Elec       q    Type
REMARK                         _______ _______ _______ _____ _____    ______ ____
ROOT
ATOM      1  C   UNL     1       6.156   6.245  17.832  0.00  0.00    +0.000 A 
ATOM      2  C   UNL     1       5.033   6.345  17.002  0.00  0.00    +0.000 A 
ATOM      3  C   UNL     1       3.804   5.806  17.380  0.00  0.00    +0.000 A 
ATOM      4  C   UNL     1       3.674   5.109  18.583  0.00  0.00    +0.000 A 
ATOM      5  C   UNL     1       4.784   4.986  19.416  0.00  0.00    +0.000 A 
ATOM      6  C   UNL     1       6.012   5.551  19.046  0.00  0.00    +0.000 A 
ENDROOT
BRANCH   1   7
ATOM      7  C   UNL     1       7.430   6.885  17.380  0.00  0.00    +0.000 C 
ATOM      8  O   UNL     1       7.913   6.527  16.301  0.00  0.00    +0.000 OA
BRANCH   7   9
ATOM      9  C   UNL     1       8.022   8.011  18.203  0.00  0.00    +0.000 C 
BRANCH   9  10
ATOM     10  C   UNL     1       8.237   9.297  17.411  0.00  0.00    +0.000 C 
BRANCH  10  14
ATOM     11  C   UNL     1       9.812  12.401  20.005  0.00  0.00    +0.000 A 
ATOM     12  C   UNL     1       9.755  11.066  20.425  0.00  0.00    +0.000 A 
ATOM     13  C   UNL     1       9.237  10.065  19.598  0.00  0.00    +0.000 A 
ATOM     14  C   UNL     1       8.754  10.384  18.327  0.00  0.00    +0.000 A 
ATOM     15  C   UNL     1       8.821  11.716  17.893  0.00  0.00    +0.000 A 
ATOM     16  C   UNL     1       9.343  12.717  18.726  0.00  0.00    +0.000 A 
BRANCH  11  18
ATOM     17  C   UNL     1       9.468  13.849  21.879  0.00  0.00    +0.000 C 
ATOM     18  O   UNL     1      10.348  13.234  20.950  0.00  0.00    +0.000 OA
ENDBRANCH  11  18
BRANCH  16  19
ATOM     19  O   UNL     1       9.387  13.998  18.246  0.00  0.00    +0.000 OA
ATOM     20  H   UNL     1      10.312  14.284  18.185  0.00  0.00    +0.000 HD
ENDBRANCH  16  19
ENDBRANCH  10  14
ENDBRANCH   9  10
ENDBRANCH   7   9
ENDBRANCH   1   7
BRANCH   2  21
ATOM     21  O   UNL     1       5.037   6.965  15.777  0.00  0.00    +0.000 OA
ATOM     22  H   UNL     1       5.875   6.712  15.320  0.00  0.00    +0.000 HD
ENDBRANCH   2  21
BRANCH   6  23
ATOM     23  O   UNL     1       7.076   5.379  19.887  0.00  0.00    +0.000 OA
ATOM     24  H   UNL     1       7.886   5.726  19.477  0.00  0.00    +0.000 HD
ENDBRANCH   6  23
BRANCH   4  25
ATOM     25  O   UNL     1       2.518   4.507  19.021  0.00  0.00    +0.000 OA
BRANCH  25  26
ATOM     26  C   UNL     1       2.280   4.658  20.426  0.00  0.00    +0.000 C 
BRANCH  26  27
ATOM     27  C   UNL     1       1.568   3.440  21.009  0.00  0.00    +0.000 C 
BRANCH  27  28
ATOM     28  N   UNL     1       2.274   2.972  22.203  0.00  0.00    +0.000 NA
ATOM     29  H   UNL     1       1.685   3.105  23.026  0.00  0.00    +0.000 HD
ATOM     30  H   UNL     1       3.109   3.534  22.354  0.00  0.00    +0.000 HD
ENDBRANCH  27  28
ENDBRANCH  26  27
ENDBRANCH  25  26
ENDBRANCH   4  25
TORSDOF 12
ENDMDL
MODEL 4
REMARK VINA RESULT:      -7.2      3.943      7.545
REMARK  Name = 
REMARK  13 active torsions:
REMARK  status: ('A' for Active; 'I' for Inactive)
REMARK    1  A    between atoms: C_1  and  O_2
REMARK    2  A    between atoms: O_2  and  C_3
REMARK    3  A    between atoms: C_6  and  C_7
REMARK    4  A    between atoms: C_7  and  C_8
REMARK    5  A    between atoms: C_8  and  C_9
REMARK    6  A    between atoms: C_9  and  C_11
REMARK    7  A    between atoms: C_12  and  O_13
REMARK    8  A    between atoms: C_15  and  O_16
REMARK    9  A    between atoms: O_16  and  C_17
REMARK   10  A    between atoms: C_17  and  C_18
REMARK   11  A    between atoms: C_18  and  N_19
REMARK   12  A    between atoms: C_21  and  O_22
REMARK   13  A    between atoms: C_24  and  O_25
REMARK                            x       y       z     vdW  Elec       q    Type
REMARK                         _______ _______ _______ _____ _____    ______ ____
ROOT
ATOM      1  C   UNL     1       5.478   5.364  17.464  0.00  0.00    +0.000 A 
ATOM      2  C   UNL     1       6.282   5.024  18.559  0.00  0.00    +0.000 A 
ATOM      3  C   UNL     1       7.318   5.855  18.981  0.00  0.00    +0.000 A 
ATOM      4  C   UNL     1       7.612   7.031  18.289  0.00  0.00    +0.000 A 
ATOM      5  C   UNL     1       6.833   7.380  17.188  0.00  0.00    +0.000 A 
ATOM      6  C   UNL     1       5.774   6.556  16.781  0.00  0.00    +0.000 A 
ENDROOT
BRANCH   1   7
ATOM      7  C   UNL     1       4.357   4.445  17.096  0.00  0.00    +0.000 C 
ATOM      8  O   UNL     1       4.631   3.394  16.509  0.00  0.00    +0.000 OA
BRANCH   7   9
ATOM      9  C   UNL     1       2.949   4.784  17.542  0.00  0.00    +0.000 C 
BRANCH   9  10
ATOM     10  C   UNL     1       2.841   5.098  19.031  0.00  0.00    +0.000 C 
BRANCH  10  14
ATOM     11  C   UNL     1       1.387   9.147  19.613  0.00  0.00    +0.000 A 
ATOM     12  C   UNL     1       1.352   8.208  20.652  0.00  0.00    +0.000 A 
ATOM     13  C   UNL     1       1.807   6.899  20.465  0.00  0.00    +0.000 A 
ATOM     14  C   UNL     1       2.303   6.498  19.223  0.00  0.00    +0.000 A 
ATOM     15  C   UNL     1       2.355   7.436  18.181  0.00  0.00    +0.000 A 
ATOM     16  C   UNL     1       1.898   8.749  18.374  0.00  0.00    +0.000 A 
BRANCH  11  18
ATOM     17  C   UNL     1      -0.507  10.570  19.950  0.00  0.00    +0.000 C 
ATOM     18  O   UNL     1       0.898  10.370  19.985  0.00  0.00    +0.000 OA
ENDBRANCH  11  18
BRANCH  16  19
ATOM     19  O   UNL     1       1.979   9.620  17.322  0.00  0.00    +0.000 OA
ATOM     20  H   UNL     1       2.700   9.344  16.734  0.00  0.00    +0.000 HD
ENDBRANCH  16  19
ENDBRANCH  10  14
ENDBRANCH   9  10
ENDBRANCH   7   9
ENDBRANCH   1   7
BRANCH   2  21
ATOM     21  O   UNL     1       6.127   3.877  19.297  0.00  0.00    +0.000 OA
ATOM     22  H   UNL     1       5.904   4.147  20.220  0.00  0.00    +0.000 HD
ENDBRANCH   2  21
BRANCH   6  23
ATOM     23  O   UNL     1       5.058   6.931  15.679  0.00  0.00    +0.000 OA
ATOM     24  H   UNL     1       5.164   6.272  14.972  0.00  0.00    +0.000 HD
ENDBRANCH   6  23
BRANCH   4  25
ATOM     25  O   UNL     1       8.638   7.891  18.602  0.00  0.00    +0.000 OA
BRANCH  25  26
ATOM     26  C   UNL     1       8.410   9.244  18.189  0.00  0.00    +0.000 C 
BRANCH  26  27
ATOM     27  C   UNL     1       9.190  10.234  19.050  0.00  0.00    +0.000 C 
BRANCH  27  28
ATOM     28  N   UNL     1       9.903  11.186  18.197  0.00  0.00    +0.000 NA
ATOM     29  H   UNL     1      10.609  11.679  18.746  0.00  0.00    +0.000 HD
ATOM     30  H   UNL     1       9.258  11.896  17.856  0.00  0.00    +0.000 HD
ENDBRANCH  27  28
ENDBRANCH  26  27
ENDBRANCH  25  26
ENDBRANCH   4  25
TORSDOF 12
ENDMDL
MODEL 5
REMARK VINA RESULT:      -7.1      1.364      1.417
REMARK  Name = 
REMARK  13 active torsions:
REMARK  status: ('A' for Active; 'I' for Inactive)
REMARK    1  A    between atoms: C_1  and  O_2
REMARK    2  A    between atoms: O_2  and  C_3
REMARK    3  A    between atoms: C_6  and  C_7
REMARK    4  A    between atoms: C_7  and  C_8
REMARK    5  A    between atoms: C_8  and  C_9
REMARK    6  A    between atoms: C_9  and  C_11
REMARK    7  A    between atoms: C_12  and  O_13
REMARK    8  A    between atoms: C_15  and  O_16
REMARK    9  A    between atoms: O_16  and  C_17
REMARK   10  A    between atoms: C_17  and  C_18
REMARK   11  A    between atoms: C_18  and  N_19
REMARK   12  A    between atoms: C_21  and  O_22
REMARK   13  A    between atoms: C_24  and  O_25
REMARK                            x       y       z     vdW  Elec       q    Type
REMARK                         _______ _______ _______ _____ _____    ______ ____
ROOT
ATOM      1  C   UNL     1       5.946   5.956  17.591  0.00  0.00    +0.000 A 
ATOM      2  C   UNL     1       6.299   4.766  18.237  0.00  0.00    +0.000 A 
ATOM      3  C   UNL     1       5.335   3.947  18.823  0.00  0.00    +0.000 A 
ATOM      4  C   UNL     1       3.990   4.320  18.821  0.00  0.00    +0.000 A 
ATOM      5  C   UNL     1       3.620   5.510  18.196  0.00  0.00    +0.000 A 
ATOM      6  C   UNL     1       4.588   6.318  17.584  0.00  0.00    +0.000 A 
ENDROOT
BRANCH   1   7
ATOM      7  C   UNL     1       7.030   6.761  16.947  0.00  0.00    +0.000 C 
ATOM      8  O   UNL     1       7.620   6.276  15.976  0.00  0.00    +0.000 OA
BRANCH   7   9
ATOM      9  C   UNL     1       7.293   8.169  17.438  0.00  0.00    +0.000 C 
BRANCH   9  10
ATOM     10  C   UNL     1       8.395   8.251  18.491  0.00  0.00    +0.000 C 
BRANCH  10  14
ATOM     11  C   UNL     1       9.465  12.409  19.131  0.00  0.00    +0.000 A 
ATOM     12  C   UNL     1       8.872  11.990  17.933  0.00  0.00    +0.000 A 
ATOM     13  C   UNL     1       8.537  10.650  17.718  0.00  0.00    +0.000 A 
ATOM     14  C   UNL     1       8.799   9.693  18.701  0.00  0.00    +0.000 A 
ATOM     15  C   UNL     1       9.379  10.107  19.909  0.00  0.00    +0.000 A 
ATOM     16  C   UNL     1       9.712  11.454  20.122  0.00  0.00    +0.000 A 
BRANCH  11  18
ATOM     17  C   UNL     1       9.582  14.486  17.947  0.00  0.00    +0.000 C 
ATOM     18  O   UNL     1       9.721  13.754  19.155  0.00  0.00    +0.000 OA
ENDBRANCH  11  18
BRANCH  16  19
ATOM     19  O   UNL     1      10.271  11.798  21.322  0.00  0.00    +0.000 OA
ATOM     20  H   UNL     1      10.668  11.010  21.726  0.00  0.00    +0.000 HD
ENDBRANCH  16  19
ENDBRANCH  10  14
ENDBRANCH   9  10
ENDBRANCH   7   9
ENDBRANCH   1   7
BRANCH   2  21
ATOM     21  O   UNL     1       7.588   4.306  18.348  0.00  0.00    +0.000 OA
ATOM     22  H   UNL     1       7.639   3.763  19.171  0.00  0.00    +0.000 HD
ENDBRANCH   2  21
BRANCH   6  23
ATOM     23  O   UNL     1       4.175   7.487  17.008  0.00  0.00    +0.000 OA
ATOM     24  H   UNL     1       4.453   8.243  17.551  0.00  0.00    +0.000 HD
ENDBRANCH   6  23
BRANCH   4  25
ATOM     25  O   UNL     1       2.974   3.603  19.409  0.00  0.00    +0.000 OA
BRANCH  25  26
ATOM     26  C   UNL     1       2.252   4.331  20.409  0.00  0.00    +0.000 C 
BRANCH  26  27
ATOM     27  C   UNL     1       1.665   3.400  21.466  0.00  0.00    +0.000 C 
BRANCH  27  28
ATOM     28  N   UNL     1       2.692   2.471  21.942  0.00  0.00    +0.000 NA
ATOM     29  H   UNL     1       2.254   1.713  22.467  0.00  0.00    +0.000 HD
ATOM     30  H   UNL     1       3.315   2.948  22.591  0.00  0.00    +0.000 HD
ENDBRANCH  27  28
ENDBRANCH  26  27
ENDBRANCH  25  26
ENDBRANCH   4  25
TORSDOF 12
ENDMDL
MODEL 6
REMARK VINA RESULT:      -7.1      0.872      2.269
REMARK  Name = 
REMARK  13 active torsions:
REMARK  status: ('A' for Active; 'I' for Inactive)
REMARK    1  A    between atoms: C_1  and  O_2
REMARK    2  A    between atoms: O_2  and  C_3
REMARK    3  A    between atoms: C_6  and  C_7
REMARK    4  A    between atoms: C_7  and  C_8
REMARK    5  A    between atoms: C_8  and  C_9
REMARK    6  A    between atoms: C_9  and  C_11
REMARK    7  A    between atoms: C_12  and  O_13
REMARK    8  A    between atoms: C_15  and  O_16
REMARK    9  A    between atoms: O_16  and  C_17
REMARK   10  A    between atoms: C_17  and  C_18
REMARK   11  A    between atoms: C_18  and  N_19
REMARK   12  A    between atoms: C_21  and  O_22
REMARK   13  A    between atoms: C_24  and  O_25
REMARK                            x       y       z     vdW  Elec       q    Type
REMARK                         _______ _______ _______ _____ _____    ______ ____
ROOT
ATOM      1  C   UNL     1       6.088   6.216  17.853  0.00  0.00    +0.000 A 
ATOM      2  C   UNL     1       4.967   6.452  17.048  0.00  0.00    +0.000 A 
ATOM      3  C   UNL     1       3.686   6.104  17.472  0.00  0.00    +0.000 A 
ATOM      4  C   UNL     1       3.492   5.465  18.698  0.00  0.00    +0.000 A 
ATOM      5  C   UNL     1       4.597   5.208  19.507  0.00  0.00    +0.000 A 
ATOM      6  C   UNL     1       5.882   5.583  19.091  0.00  0.00    +0.000 A 
ENDROOT
BRANCH   1   7
ATOM      7  C   UNL     1       7.426   6.657  17.351  0.00  0.00    +0.000 C 
ATOM      8  O   UNL     1       7.813   6.223  16.261  0.00  0.00    +0.000 OA
BRANCH   7   9
ATOM      9  C   UNL     1       8.207   7.687  18.140  0.00  0.00    +0.000 C 
BRANCH   9  10
ATOM     10  C   UNL     1       7.819   9.126  17.815  0.00  0.00    +0.000 C 
BRANCH  10  14
ATOM     11  C   UNL     1      10.897  11.774  19.350  0.00  0.00    +0.000 A 
ATOM     12  C   UNL     1      10.057  11.062  20.215  0.00  0.00    +0.000 A 
ATOM     13  C   UNL     1       9.056  10.218  19.725  0.00  0.00    +0.000 A 
ATOM     14  C   UNL     1       8.869  10.075  18.349  0.00  0.00    +0.000 A 
ATOM     15  C   UNL     1       9.715  10.774  17.475  0.00  0.00    +0.000 A 
ATOM     16  C   UNL     1      10.719  11.619  17.971  0.00  0.00    +0.000 A 
BRANCH  11  18
ATOM     17  C   UNL     1      11.468  13.895  20.301  0.00  0.00    +0.000 C 
ATOM     18  O   UNL     1      11.811  12.548  20.013  0.00  0.00    +0.000 OA
ENDBRANCH  11  18
BRANCH  16  19
ATOM     19  O   UNL     1      11.517  12.270  17.071  0.00  0.00    +0.000 OA
ATOM     20  H   UNL     1      12.269  11.702  16.841  0.00  0.00    +0.000 HD
ENDBRANCH  16  19
ENDBRANCH  10  14
ENDBRANCH   9  10
ENDBRANCH   7   9
ENDBRANCH   1   7
BRANCH   2  21
ATOM     21  O   UNL     1       5.024   7.033  15.805  0.00  0.00    +0.000 OA
ATOM     22  H   UNL     1       5.967   7.012  15.512  0.00  0.00    +0.000 HD
ENDBRANCH   2  21
BRANCH   6  23
ATOM     23  O   UNL     1       6.933   5.284  19.911  0.00  0.00    +0.000 OA
ATOM     24  H   UNL     1       6.918   5.855  20.696  0.00  0.00    +0.000 HD
ENDBRANCH   6  23
BRANCH   4  25
ATOM     25  O   UNL     1       2.275   5.045  19.182  0.00  0.00    +0.000 OA
BRANCH  25  26
ATOM     26  C   UNL     1       2.343   3.846  19.962  0.00  0.00    +0.000 C 
BRANCH  26  27
ATOM     27  C   UNL     1       1.714   2.664  19.229  0.00  0.00    +0.000 C 
BRANCH  27  28
ATOM     28  N   UNL     1       0.285   2.584  19.542  0.00  0.00    +0.000 NA
ATOM     29  H   UNL     1      -0.099   1.712  19.176  0.00  0.00    +0.000 HD
ATOM     30  H   UNL     1      -0.214   3.337  19.073  0.00  0.00    +0.000 HD
ENDBRANCH  27  28
ENDBRANCH  26  27
ENDBRANCH  25  26
ENDBRANCH   4  25
TORSDOF 12
ENDMDL
MODEL 7
REMARK VINA RESULT:      -7.1      1.522      1.843
REMARK  Name = 
REMARK  13 active torsions:
REMARK  status: ('A' for Active; 'I' for Inactive)
REMARK    1  A    between atoms: C_1  and  O_2
REMARK    2  A    between atoms: O_2  and  C_3
REMARK    3  A    between atoms: C_6  and  C_7
REMARK    4  A    between atoms: C_7  and  C_8
REMARK    5  A    between atoms: C_8  and  C_9
REMARK    6  A    between atoms: C_9  and  C_11
REMARK    7  A    between atoms: C_12  and  O_13
REMARK    8  A    between atoms: C_15  and  O_16
REMARK    9  A    between atoms: O_16  and  C_17
REMARK   10  A    between atoms: C_17  and  C_18
REMARK   11  A    between atoms: C_18  and  N_19
REMARK   12  A    between atoms: C_21  and  O_22
REMARK   13  A    between atoms: C_24  and  O_25
REMARK                            x       y       z     vdW  Elec       q    Type
REMARK                         _______ _______ _______ _____ _____    ______ ____
ROOT
ATOM      1  C   UNL     1       5.982   6.238  17.899  0.00  0.00    +0.000 A 
ATOM      2  C   UNL     1       6.283   5.298  18.892  0.00  0.00    +0.000 A 
ATOM      3  C   UNL     1       5.277   4.582  19.538  0.00  0.00    +0.000 A 
ATOM      4  C   UNL     1       3.934   4.820  19.243  0.00  0.00    +0.000 A 
ATOM      5  C   UNL     1       3.613   5.763  18.269  0.00  0.00    +0.000 A 
ATOM      6  C   UNL     1       4.627   6.463  17.600  0.00  0.00    +0.000 A 
ENDROOT
BRANCH   1   7
ATOM      7  C   UNL     1       7.116   6.937  17.218  0.00  0.00    +0.000 C 
ATOM      8  O   UNL     1       7.707   6.345  16.311  0.00  0.00    +0.000 OA
BRANCH   7   9
ATOM      9  C   UNL     1       7.430   8.371  17.593  0.00  0.00    +0.000 C 
BRANCH   9  10
ATOM     10  C   UNL     1       8.633   8.509  18.521  0.00  0.00    +0.000 C 
BRANCH  10  14
ATOM     11  C   UNL     1       9.575  12.696  19.173  0.00  0.00    +0.000 A 
ATOM     12  C   UNL     1       9.913  11.722  20.121  0.00  0.00    +0.000 A 
ATOM     13  C   UNL     1       9.600  10.374  19.920  0.00  0.00    +0.000 A 
ATOM     14  C   UNL     1       8.931   9.972  18.763  0.00  0.00    +0.000 A 
ATOM     15  C   UNL     1       8.601  10.939  17.802  0.00  0.00    +0.000 A 
ATOM     16  C   UNL     1       8.918  12.291  18.006  0.00  0.00    +0.000 A 
BRANCH  11  18
ATOM     17  C   UNL     1      11.237  14.418  19.132  0.00  0.00    +0.000 C 
ATOM     18  O   UNL     1       9.960  13.956  19.545  0.00  0.00    +0.000 OA
ENDBRANCH  11  18
BRANCH  16  19
ATOM     19  O   UNL     1       8.576  13.188  17.031  0.00  0.00    +0.000 OA
ATOM     20  H   UNL     1       8.195  13.979  17.445  0.00  0.00    +0.000 HD
ENDBRANCH  16  19
ENDBRANCH  10  14
ENDBRANCH   9  10
ENDBRANCH   7   9
ENDBRANCH   1   7
BRANCH   2  21
ATOM     21  O   UNL     1       7.558   5.002  19.306  0.00  0.00    +0.000 OA
ATOM     22  H   UNL     1       7.646   4.018  19.312  0.00  0.00    +0.000 HD
ENDBRANCH   2  21
BRANCH   6  23
ATOM     23  O   UNL     1       4.258   7.395  16.673  0.00  0.00    +0.000 OA
ATOM     24  H   UNL     1       4.924   8.101  16.624  0.00  0.00    +0.000 HD
ENDBRANCH   6  23
BRANCH   4  25
ATOM     25  O   UNL     1       2.872   4.196  19.856  0.00  0.00    +0.000 OA
BRANCH  25  26
ATOM     26  C   UNL     1       3.013   2.774  19.959  0.00  0.00    +0.000 C 
BRANCH  26  27
ATOM     27  C   UNL     1       1.956   2.044  19.136  0.00  0.00    +0.000 C 
BRANCH  27  28
ATOM     28  N   UNL     1       2.473   1.758  17.796  0.00  0.00    +0.000 NA
ATOM     29  H   UNL     1       2.096   2.432  17.130  0.00  0.00    +0.000 HD
ATOM     30  H   UNL     1       2.153   0.841  17.490  0.00  0.00    +0.000 HD
ENDBRANCH  27  28
ENDBRANCH  26  27
ENDBRANCH  25  26
ENDBRANCH   4  25
TORSDOF 12
ENDMDL
MODEL 8
REMARK VINA RESULT:      -7.1      1.431      2.257
REMARK  Name = 
REMARK  13 active torsions:
REMARK  status: ('A' for Active; 'I' for Inactive)
REMARK    1  A    between atoms: C_1  and  O_2
REMARK    2  A    between atoms: O_2  and  C_3
REMARK    3  A    between atoms: C_6  and  C_7
REMARK    4  A    between atoms: C_7  and  C_8
REMARK    5  A    between atoms: C_8  and  C_9
REMARK    6  A    between atoms: C_9  and  C_11
REMARK    7  A    between atoms: C_12  and  O_13
REMARK    8  A    between atoms: C_15  and  O_16
REMARK    9  A    between atoms: O_16  and  C_17
REMARK   10  A    between atoms: C_17  and  C_18
REMARK   11  A    between atoms: C_18  and  N_19
REMARK   12  A    between atoms: C_21  and  O_22
REMARK   13  A    between atoms: C_24  and  O_25
REMARK                            x       y       z     vdW  Elec       q    Type
REMARK                         _______ _______ _______ _____ _____    ______ ____
ROOT
ATOM      1  C   UNL     1       5.918   6.286  17.792  0.00  0.00    +0.000 A 
ATOM      2  C   UNL     1       4.686   6.418  17.141  0.00  0.00    +0.000 A 
ATOM      3  C   UNL     1       3.509   5.942  17.716  0.00  0.00    +0.000 A 
ATOM      4  C   UNL     1       3.537   5.278  18.944  0.00  0.00    +0.000 A 
ATOM      5  C   UNL     1       4.756   5.123  19.601  0.00  0.00    +0.000 A 
ATOM      6  C   UNL     1       5.935   5.626  19.033  0.00  0.00    +0.000 A 
ENDROOT
BRANCH   1   7
ATOM      7  C   UNL     1       7.133   6.859  17.133  0.00  0.00    +0.000 C 
ATOM      8  O   UNL     1       7.720   6.173  16.291  0.00  0.00    +0.000 OA
BRANCH   7   9
ATOM      9  C   UNL     1       7.536   8.286  17.445  0.00  0.00    +0.000 C 
BRANCH   9  10
ATOM     10  C   UNL     1       8.569   8.397  18.562  0.00  0.00    +0.000 C 
BRANCH  10  14
ATOM     11  C   UNL     1       9.521  12.578  19.236  0.00  0.00    +0.000 A 
ATOM     12  C   UNL     1       8.940  12.152  18.035  0.00  0.00    +0.000 A 
ATOM     13  C   UNL     1       8.644  10.805  17.809  0.00  0.00    +0.000 A 
ATOM     14  C   UNL     1       8.932   9.848  18.784  0.00  0.00    +0.000 A 
ATOM     15  C   UNL     1       9.500  10.268  19.996  0.00  0.00    +0.000 A 
ATOM     16  C   UNL     1       9.795  11.622  20.220  0.00  0.00    +0.000 A 
BRANCH  11  18
ATOM     17  C   UNL     1       8.625  14.784  19.478  0.00  0.00    +0.000 C 
ATOM     18  O   UNL     1       9.739  13.929  19.272  0.00  0.00    +0.000 OA
ENDBRANCH  11  18
BRANCH  16  19
ATOM     19  O   UNL     1      10.344  11.972  21.423  0.00  0.00    +0.000 OA
ATOM     20  H   UNL     1      10.668  12.886  21.371  0.00  0.00    +0.000 HD
ENDBRANCH  16  19
ENDBRANCH  10  14
ENDBRANCH   9  10
ENDBRANCH   7   9
ENDBRANCH   1   7
BRANCH   2  21
ATOM     21  O   UNL     1       4.527   7.011  15.913  0.00  0.00    +0.000 OA
ATOM     22  H   UNL     1       3.604   7.359  15.870  0.00  0.00    +0.000 HD
ENDBRANCH   2  21
BRANCH   6  23
ATOM     23  O   UNL     1       7.106   5.424  19.706  0.00  0.00    +0.000 OA
ATOM     24  H   UNL     1       7.571   4.651  19.346  0.00  0.00    +0.000 HD
ENDBRANCH   6  23
BRANCH   4  25
ATOM     25  O   UNL     1       2.438   4.737  19.569  0.00  0.00    +0.000 OA
BRANCH  25  26
ATOM     26  C   UNL     1       1.608   3.949  18.708  0.00  0.00    +0.000 C 
BRANCH  26  27
ATOM     27  C   UNL     1       1.902   2.458  18.856  0.00  0.00    +0.000 C 
BRANCH  27  28
ATOM     28  N   UNL     1       2.207   1.876  17.547  0.00  0.00    +0.000 NA
ATOM     29  H   UNL     1       1.391   1.951  16.938  0.00  0.00    +0.000 HD
ATOM     30  H   UNL     1       2.399   0.881  17.647  0.00  0.00    +0.000 HD
ENDBRANCH  27  28
ENDBRANCH  26  27
ENDBRANCH  25  26
ENDBRANCH   4  25
TORSDOF 12
ENDMDL
MODEL 9
REMARK VINA RESULT:      -7.1      1.580      1.839
REMARK  Name = 
REMARK  13 active torsions:
REMARK  status: ('A' for Active; 'I' for Inactive)
REMARK    1  A    between atoms: C_1  and  O_2
REMARK    2  A    between atoms: O_2  and  C_3
REMARK    3  A    between atoms: C_6  and  C_7
REMARK    4  A    between atoms: C_7  and  C_8
REMARK    5  A    between atoms: C_8  and  C_9
REMARK    6  A    between atoms: C_9  and  C_11
REMARK    7  A    between atoms: C_12  and  O_13
REMARK    8  A    between atoms: C_15  and  O_16
REMARK    9  A    between atoms: O_16  and  C_17
REMARK   10  A    between atoms: C_17  and  C_18
REMARK   11  A    between atoms: C_18  and  N_19
REMARK   12  A    between atoms: C_21  and  O_22
REMARK   13  A    between atoms: C_24  and  O_25
REMARK                            x       y       z     vdW  Elec       q    Type
REMARK                         _______ _______ _______ _____ _____    ______ ____
ROOT
ATOM      1  C   UNL     1       5.792   5.927  17.470  0.00  0.00    +0.000 A 
ATOM      2  C   UNL     1       6.048   4.689  18.070  0.00  0.00    +0.000 A 
ATOM      3  C   UNL     1       5.008   3.869  18.507  0.00  0.00    +0.000 A 
ATOM      4  C   UNL     1       3.681   4.286  18.398  0.00  0.00    +0.000 A 
ATOM      5  C   UNL     1       3.407   5.522  17.817  0.00  0.00    +0.000 A 
ATOM      6  C   UNL     1       4.452   6.334  17.353  0.00  0.00    +0.000 A 
ENDROOT
BRANCH   1   7
ATOM      7  C   UNL     1       6.956   6.733  16.986  0.00  0.00    +0.000 C 
ATOM      8  O   UNL     1       7.670   6.255  16.099  0.00  0.00    +0.000 OA
BRANCH   7   9
ATOM      9  C   UNL     1       7.155   8.135  17.523  0.00  0.00    +0.000 C 
BRANCH   9  10
ATOM     10  C   UNL     1       8.400   8.284  18.392  0.00  0.00    +0.000 C 
BRANCH  10  14
ATOM     11  C   UNL     1       9.435  12.476  18.837  0.00  0.00    +0.000 A 
ATOM     12  C   UNL     1       9.929  11.510  19.723  0.00  0.00    +0.000 A 
ATOM     13  C   UNL     1       9.588  10.161  19.591  0.00  0.00    +0.000 A 
ATOM     14  C   UNL     1       8.733   9.749  18.567  0.00  0.00    +0.000 A 
ATOM     15  C   UNL     1       8.245  10.708  17.667  0.00  0.00    +0.000 A 
ATOM     16  C   UNL     1       8.591  12.061  17.803  0.00  0.00    +0.000 A 
BRANCH  11  18
ATOM     17  C   UNL     1      11.213  14.077  18.793  0.00  0.00    +0.000 C 
ATOM     18  O   UNL     1       9.876  13.739  19.128  0.00  0.00    +0.000 OA
ENDBRANCH  11  18
BRANCH  16  19
ATOM     19  O   UNL     1       8.088  12.949  16.892  0.00  0.00    +0.000 OA
ATOM     20  H   UNL     1       8.355  13.848  17.142  0.00  0.00    +0.000 HD
ENDBRANCH  16  19
ENDBRANCH  10  14
ENDBRANCH   9  10
ENDBRANCH   7   9
ENDBRANCH   1   7
BRANCH   2  21
ATOM     21  O   UNL     1       7.306   4.181  18.276  0.00  0.00    +0.000 OA
ATOM     22  H   UNL     1       7.235   3.196  18.256  0.00  0.00    +0.000 HD
ENDBRANCH   2  21
BRANCH   6  23
ATOM     23  O   UNL     1       4.130   7.548  16.816  0.00  0.00    +0.000 OA
ATOM     24  H   UNL     1       4.833   7.844  16.214  0.00  0.00    +0.000 HD
ENDBRANCH   6  23
BRANCH   4  25
ATOM     25  O   UNL     1       2.593   3.569  18.838  0.00  0.00    +0.000 OA
BRANCH  25  26
ATOM     26  C   UNL     1       2.889   2.662  19.907  0.00  0.00    +0.000 C 
BRANCH  26  27
ATOM     27  C   UNL     1       1.719   2.541  20.880  0.00  0.00    +0.000 C 
BRANCH  27  28
ATOM     28  N   UNL     1       2.078   3.132  22.171  0.00  0.00    +0.000 NA
ATOM     29  H   UNL     1       1.445   3.903  22.385  0.00  0.00    +0.000 HD
ATOM     30  H   UNL     1       3.012   3.533  22.120  0.00  0.00    +0.000 HD
ENDBRANCH  27  28
ENDBRANCH  26  27
ENDBRANCH  25  26
ENDBRANCH   4  25
TORSDOF 12
ENDMDL
