MODEL 1
REMARK VINA RESULT:      -7.6      0.000      0.000
REMARK  Name = 
REMARK  3 active torsions:
REMARK  status: ('A' for Active; 'I' for Inactive)
REMARK    1  A    between atoms: C_1  and  N_2
REMARK    2  A    between atoms: C_3  and  S_4
REMARK    3  A    between atoms: S_4  and  C_7
REMARK                            x       y       z     vdW  Elec       q    Type
REMARK                         _______ _______ _______ _____ _____    ______ ____
ROOT
ATOM      1  C   UNL     1       3.757   6.713  17.838  0.00  0.00    +0.000 C 
ATOM      2  N   UNL     1       4.050   5.497  18.567  0.00  0.00    +0.000 N 
ATOM      3  C   UNL     1       5.228   4.768  18.553  0.00  0.00    +0.000 A 
ATOM      4  C   UNL     1       4.993   3.637  19.323  0.00  0.00    +0.000 A 
ATOM      5  C   UNL     1       3.686   3.701  19.858  0.00  0.00    +0.000 A 
ATOM      6  C   UNL     1       2.940   2.860  20.705  0.00  0.00    +0.000 A 
ATOM      7  C   UNL     1       1.653   3.244  21.096  0.00  0.00    +0.000 A 
ATOM      8  C   UNL     1       1.115   4.452  20.661  0.00  0.00    +0.000 A 
ATOM      9  C   UNL     1       1.838   5.298  19.813  0.00  0.00    +0.000 A 
ATOM     10  C   UNL     1       3.123   4.895  19.410  0.00  0.00    +0.000 A 
ENDROOT
BRANCH   3  11
ATOM     11  S   UNL     1       6.733   5.249  17.720  0.00  0.00    +0.000 S 
ATOM     12  O   UNL     1       6.784   6.691  17.827  0.00  0.00    +0.000 OA
ATOM     13  O   UNL     1       7.761   4.398  18.290  0.00  0.00    +0.000 OA
BRANCH  11  14
ATOM     14  C   UNL     1       6.602   4.821  16.005  0.00  0.00    +0.000 A 
ATOM     15  C   UNL     1       5.559   3.974  15.609  0.00  0.00    +0.000 A 
ATOM     16  C   UNL     1       5.464   3.569  14.275  0.00  0.00    +0.000 A 
ATOM     17  C   UNL     1       6.407   4.015  13.348  0.00  0.00    +0.000 A 
ATOM     18 CL   UNL     1       6.321   3.474  11.717  0.00  0.00    +0.000 Cl
ATOM     19  C   UNL     1       7.426   4.885  13.737  0.00  0.00    +0.000 A 
ATOM     20  C   UNL     1       7.526   5.295  15.069  0.00  0.00    +0.000 A 
ENDBRANCH  11  14
ENDBRANCH   3  11
TORSDOF 2
ENDMDL
MODEL 2
REMARK VINA RESULT:      -7.6      2.260      3.560
REMARK  Name = 
REMARK  3 active torsions:
REMARK  status: ('A' for Active; 'I' for Inactive)
REMARK    1  A    between atoms: C_1  and  N_2
REMARK    2  A    between atoms: C_3  and  S_4
REMARK    3  A    between atoms: S_4  and  C_7
REMARK                            x       y       z     vdW  Elec       q    Type
REMARK                         _______ _______ _______ _____ _____    ______ ____
ROOT
ATOM      1  C   UNL     1       2.690   5.076  20.803  0.00  0.00    +0.000 C 
ATOM      2  N   UNL     1       2.858   5.931  19.647  0.00  0.00    +0.000 N 
ATOM      3  C   UNL     1       3.626   5.684  18.520  0.00  0.00    +0.000 A 
ATOM      4  C   UNL     1       3.552   6.833  17.743  0.00  0.00    +0.000 A 
ATOM      5  C   UNL     1       2.691   7.764  18.368  0.00  0.00    +0.000 A 
ATOM      6  C   UNL     1       2.243   9.054  18.027  0.00  0.00    +0.000 A 
ATOM      7  C   UNL     1       1.331   9.708  18.862  0.00  0.00    +0.000 A 
ATOM      8  C   UNL     1       0.859   9.087  20.014  0.00  0.00    +0.000 A 
ATOM      9  C   UNL     1       1.297   7.808  20.374  0.00  0.00    +0.000 A 
ATOM     10  C   UNL     1       2.230   7.166  19.539  0.00  0.00    +0.000 A 
ENDROOT
BRANCH   3  11
ATOM     11  S   UNL     1       4.491   4.162  18.169  0.00  0.00    +0.000 S 
ATOM     12  O   UNL     1       5.419   3.989  19.266  0.00  0.00    +0.000 OA
ATOM     13  O   UNL     1       3.444   3.197  17.887  0.00  0.00    +0.000 OA
BRANCH  11  14
ATOM     14  C   UNL     1       5.424   4.364  16.676  0.00  0.00    +0.000 A 
ATOM     15  C   UNL     1       6.746   4.814  16.773  0.00  0.00    +0.000 A 
ATOM     16  C   UNL     1       7.488   5.042  15.611  0.00  0.00    +0.000 A 
ATOM     17  C   UNL     1       6.906   4.816  14.364  0.00  0.00    +0.000 A 
ATOM     18 CL   UNL     1       7.801   5.146  12.932  0.00  0.00    +0.000 Cl
ATOM     19  C   UNL     1       5.600   4.335  14.268  0.00  0.00    +0.000 A 
ATOM     20  C   UNL     1       4.852   4.104  15.426  0.00  0.00    +0.000 A 
ENDBRANCH  11  14
ENDBRANCH   3  11
TORSDOF 2
ENDMDL
MODEL 3
REMARK VINA RESULT:      -7.6      0.296      1.124
REMARK  Name = 
REMARK  3 active torsions:
REMARK  status: ('A' for Active; 'I' for Inactive)
REMARK    1  A    between atoms: C_1  and  N_2
REMARK    2  A    between atoms: C_3  and  S_4
REMARK    3  A    between atoms: S_4  and  C_7
REMARK                            x       y       z     vdW  Elec       q    Type
REMARK                         _______ _______ _______ _____ _____    ______ ____
ROOT
ATOM      1  C   UNL     1       3.451   6.374  17.820  0.00  0.00    +0.000 C 
ATOM      2  N   UNL     1       3.834   5.227  18.616  0.00  0.00    +0.000 N 
ATOM      3  C   UNL     1       5.074   4.611  18.665  0.00  0.00    +0.000 A 
ATOM      4  C   UNL     1       4.922   3.502  19.487  0.00  0.00    +0.000 A 
ATOM      5  C   UNL     1       3.601   3.471  19.989  0.00  0.00    +0.000 A 
ATOM      6  C   UNL     1       2.913   2.606  20.860  0.00  0.00    +0.000 A 
ATOM      7  C   UNL     1       1.586   2.888  21.202  0.00  0.00    +0.000 A 
ATOM      8  C   UNL     1       0.952   4.018  20.695  0.00  0.00    +0.000 A 
ATOM      9  C   UNL     1       1.617   4.886  19.822  0.00  0.00    +0.000 A 
ATOM     10  C   UNL     1       2.944   4.584  19.468  0.00  0.00    +0.000 A 
ENDROOT
BRANCH   3  11
ATOM     11  S   UNL     1       6.550   5.188  17.843  0.00  0.00    +0.000 S 
ATOM     12  O   UNL     1       6.471   6.632  17.884  0.00  0.00    +0.000 OA
ATOM     13  O   UNL     1       7.636   4.458  18.473  0.00  0.00    +0.000 OA
BRANCH  11  14
ATOM     14  C   UNL     1       6.500   4.675  16.147  0.00  0.00    +0.000 A 
ATOM     15  C   UNL     1       7.480   5.163  15.274  0.00  0.00    +0.000 A 
ATOM     16  C   UNL     1       7.432   4.826  13.919  0.00  0.00    +0.000 A 
ATOM     17  C   UNL     1       6.410   4.004  13.447  0.00  0.00    +0.000 A 
ATOM     18 CL   UNL     1       6.320   3.632  11.770  0.00  0.00    +0.000 Cl
ATOM     19  C   UNL     1       5.452   3.490  14.323  0.00  0.00    +0.000 A 
ATOM     20  C   UNL     1       5.495   3.822  15.680  0.00  0.00    +0.000 A 
ENDBRANCH  11  14
ENDBRANCH   3  11
TORSDOF 2
ENDMDL
MODEL 4
REMARK VINA RESULT:      -7.4      2.276      3.344
REMARK  Name = 
REMARK  3 active torsions:
REMARK  status: ('A' for Active; 'I' for Inactive)
REMARK    1  A    between atoms: C_1  and  N_2
REMARK    2  A    between atoms: C_3  and  S_4
REMARK    3  A    between atoms: S_4  and  C_7
REMARK                            x       y       z     vdW  Elec       q    Type
REMARK                         _______ _______ _______ _____ _____    ______ ____
ROOT
ATOM      1  C   UNL     1       2.661   4.556  20.980  0.00  0.00    +0.000 C 
ATOM      2  N   UNL     1       2.770   5.517  19.903  0.00  0.00    +0.000 N 
ATOM      3  C   UNL     1       3.497   5.388  18.729  0.00  0.00    +0.000 A 
ATOM      4  C   UNL     1       3.374   6.601  18.064  0.00  0.00    +0.000 A 
ATOM      5  C   UNL     1       2.525   7.455  18.804  0.00  0.00    +0.000 A 
ATOM      6  C   UNL     1       2.045   8.762  18.601  0.00  0.00    +0.000 A 
ATOM      7  C   UNL     1       1.157   9.320  19.526  0.00  0.00    +0.000 A 
ATOM      8  C   UNL     1       0.740   8.588  20.633  0.00  0.00    +0.000 A 
ATOM      9  C   UNL     1       1.211   7.290  20.857  0.00  0.00    +0.000 A 
ATOM     10  C   UNL     1       2.119   6.744  19.932  0.00  0.00    +0.000 A 
ENDROOT
BRANCH   3  11
ATOM     11  S   UNL     1       4.370   3.921  18.207  0.00  0.00    +0.000 S 
ATOM     12  O   UNL     1       5.266   3.602  19.297  0.00  0.00    +0.000 OA
ATOM     13  O   UNL     1       3.331   3.005  17.772  0.00  0.00    +0.000 OA
BRANCH  11  14
ATOM     14  C   UNL     1       5.345   4.311  16.780  0.00  0.00    +0.000 A 
ATOM     15  C   UNL     1       4.748   4.206  15.517  0.00  0.00    +0.000 A 
ATOM     16  C   UNL     1       5.507   4.448  14.369  0.00  0.00    +0.000 A 
ATOM     17  C   UNL     1       6.853   4.795  14.491  0.00  0.00    +0.000 A 
ATOM     18 CL   UNL     1       7.802   5.040  13.076  0.00  0.00    +0.000 Cl
ATOM     19  C   UNL     1       7.438   4.932  15.750  0.00  0.00    +0.000 A 
ATOM     20  C   UNL     1       6.685   4.692  16.902  0.00  0.00    +0.000 A 
ENDBRANCH  11  14
ENDBRANCH   3  11
TORSDOF 2
ENDMDL
MODEL 5
REMARK VINA RESULT:      -7.4      3.077      6.457
REMARK  Name = 
REMARK  3 active torsions:
REMARK  status: ('A' for Active; 'I' for Inactive)
REMARK    1  A    between atoms: C_1  and  N_2
REMARK    2  A    between atoms: C_3  and  S_4
REMARK    3  A    between atoms: S_4  and  C_7
REMARK                            x       y       z     vdW  Elec       q    Type
REMARK                         _______ _______ _______ _____ _____    ______ ____
ROOT
ATOM      1  C   UNL     1       7.446   5.827  17.106  0.00  0.00    +0.000 C 
ATOM      2  N   UNL     1       6.638   4.987  16.247  0.00  0.00    +0.000 N 
ATOM      3  C   UNL     1       5.555   4.203  16.612  0.00  0.00    +0.000 A 
ATOM      4  C   UNL     1       5.179   3.509  15.470  0.00  0.00    +0.000 A 
ATOM      5  C   UNL     1       5.996   3.911  14.389  0.00  0.00    +0.000 A 
ATOM      6  C   UNL     1       6.048   3.561  13.027  0.00  0.00    +0.000 A 
ATOM      7  C   UNL     1       6.972   4.193  12.189  0.00  0.00    +0.000 A 
ATOM      8  C   UNL     1       7.827   5.169  12.692  0.00  0.00    +0.000 A 
ATOM      9  C   UNL     1       7.796   5.525  14.044  0.00  0.00    +0.000 A 
ATOM     10  C   UNL     1       6.877   4.870  14.884  0.00  0.00    +0.000 A 
ENDROOT
BRANCH   3  11
ATOM     11  S   UNL     1       4.809   4.158  18.234  0.00  0.00    +0.000 S 
ATOM     12  O   UNL     1       3.897   3.035  18.203  0.00  0.00    +0.000 OA
ATOM     13  O   UNL     1       5.926   4.216  19.159  0.00  0.00    +0.000 OA
BRANCH  11  14
ATOM     14  C   UNL     1       3.864   5.638  18.472  0.00  0.00    +0.000 A 
ATOM     15  C   UNL     1       3.060   5.739  19.614  0.00  0.00    +0.000 A 
ATOM     16  C   UNL     1       2.257   6.867  19.800  0.00  0.00    +0.000 A 
ATOM     17  C   UNL     1       2.265   7.885  18.847  0.00  0.00    +0.000 A 
ATOM     18 CL   UNL     1       1.236   9.250  19.049  0.00  0.00    +0.000 Cl
ATOM     19  C   UNL     1       3.090   7.800  17.726  0.00  0.00    +0.000 A 
ATOM     20  C   UNL     1       3.898   6.675  17.534  0.00  0.00    +0.000 A 
ENDBRANCH  11  14
ENDBRANCH   3  11
TORSDOF 2
ENDMDL
MODEL 6
REMARK VINA RESULT:      -7.2      3.184      3.825
REMARK  Name = 
REMARK  3 active torsions:
REMARK  status: ('A' for Active; 'I' for Inactive)
REMARK    1  A    between atoms: C_1  and  N_2
REMARK    2  A    between atoms: C_3  and  S_4
REMARK    3  A    between atoms: S_4  and  C_7
REMARK                            x       y       z     vdW  Elec       q    Type
REMARK                         _______ _______ _______ _____ _____    ______ ____
ROOT
ATOM      1  C   UNL     1       3.462   6.675  17.973  0.00  0.00    +0.000 C 
ATOM      2  N   UNL     1       3.554   5.231  18.013  0.00  0.00    +0.000 N 
ATOM      3  C   UNL     1       4.432   4.422  17.309  0.00  0.00    +0.000 A 
ATOM      4  C   UNL     1       4.069   3.114  17.599  0.00  0.00    +0.000 A 
ATOM      5  C   UNL     1       3.002   3.120  18.526  0.00  0.00    +0.000 A 
ATOM      6  C   UNL     1       2.268   2.107  19.170  0.00  0.00    +0.000 A 
ATOM      7  C   UNL     1       1.278   2.456  20.094  0.00  0.00    +0.000 A 
ATOM      8  C   UNL     1       1.026   3.793  20.386  0.00  0.00    +0.000 A 
ATOM      9  C   UNL     1       1.740   4.815  19.752  0.00  0.00    +0.000 A 
ATOM     10  C   UNL     1       2.720   4.455  18.809  0.00  0.00    +0.000 A 
ENDROOT
BRANCH   3  11
ATOM     11  S   UNL     1       5.770   4.999  16.277  0.00  0.00    +0.000 S 
ATOM     12  O   UNL     1       6.613   3.843  16.063  0.00  0.00    +0.000 OA
ATOM     13  O   UNL     1       5.120   5.691  15.179  0.00  0.00    +0.000 OA
BRANCH  11  14
ATOM     14  C   UNL     1       6.702   6.212  17.171  0.00  0.00    +0.000 A 
ATOM     15  C   UNL     1       6.634   7.547  16.752  0.00  0.00    +0.000 A 
ATOM     16  C   UNL     1       7.404   8.517  17.398  0.00  0.00    +0.000 A 
ATOM     17  C   UNL     1       8.233   8.149  18.457  0.00  0.00    +0.000 A 
ATOM     18 CL   UNL     1       9.223   9.334  19.218  0.00  0.00    +0.000 Cl
ATOM     19  C   UNL     1       8.276   6.825  18.896  0.00  0.00    +0.000 A 
ATOM     20  C   UNL     1       7.507   5.850  18.256  0.00  0.00    +0.000 A 
ENDBRANCH  11  14
ENDBRANCH   3  11
TORSDOF 2
ENDMDL
MODEL 7
REMARK VINA RESULT:      -7.1      3.084      6.489
REMARK  Name = 
REMARK  3 active torsions:
REMARK  status: ('A' for Active; 'I' for Inactive)
REMARK    1  A    between atoms: C_1  and  N_2
REMARK    2  A    between atoms: C_3  and  S_4
REMARK    3  A    between atoms: S_4  and  C_7
REMARK                            x       y       z     vdW  Elec       q    Type
REMARK                         _______ _______ _______ _____ _____    ______ ____
ROOT
ATOM      1  C   UNL     1       7.458   5.661  17.257  0.00  0.00    +0.000 C 
ATOM      2  N   UNL     1       6.576   4.905  16.394  0.00  0.00    +0.000 N 
ATOM      3  C   UNL     1       5.443   4.196  16.759  0.00  0.00    +0.000 A 
ATOM      4  C   UNL     1       4.998   3.559  15.608  0.00  0.00    +0.000 A 
ATOM      5  C   UNL     1       5.827   3.924  14.523  0.00  0.00    +0.000 A 
ATOM      6  C   UNL     1       5.832   3.604  13.152  0.00  0.00    +0.000 A 
ATOM      7  C   UNL     1       6.788   4.185  12.313  0.00  0.00    +0.000 A 
ATOM      8  C   UNL     1       7.722   5.082  12.823  0.00  0.00    +0.000 A 
ATOM      9  C   UNL     1       7.738   5.408  14.184  0.00  0.00    +0.000 A 
ATOM     10  C   UNL     1       6.785   4.803  15.024  0.00  0.00    +0.000 A 
ENDROOT
BRANCH   3  11
ATOM     11  S   UNL     1       4.720   4.167  18.391  0.00  0.00    +0.000 S 
ATOM     12  O   UNL     1       3.870   2.997  18.412  0.00  0.00    +0.000 OA
ATOM     13  O   UNL     1       5.843   4.319  19.298  0.00  0.00    +0.000 OA
BRANCH  11  14
ATOM     14  C   UNL     1       3.698   5.602  18.591  0.00  0.00    +0.000 A 
ATOM     15  C   UNL     1       3.727   6.584  17.592  0.00  0.00    +0.000 A 
ATOM     16  C   UNL     1       2.980   7.753  17.749  0.00  0.00    +0.000 A 
ATOM     17  C   UNL     1       2.210   7.934  18.898  0.00  0.00    +0.000 A 
ATOM     18 CL   UNL     1       1.332   9.397  19.116  0.00  0.00    +0.000 Cl
ATOM     19  C   UNL     1       2.156   6.941  19.877  0.00  0.00    +0.000 A 
ATOM     20  C   UNL     1       2.899   5.767  19.726  0.00  0.00    +0.000 A 
ENDBRANCH  11  14
ENDBRANCH   3  11
TORSDOF 2
ENDMDL
MODEL 8
REMARK VINA RESULT:      -7.1      3.115      3.718
REMARK  Name = 
REMARK  3 active torsions:
REMARK  status: ('A' for Active; 'I' for Inactive)
REMARK    1  A    between atoms: C_1  and  N_2
REMARK    2  A    between atoms: C_3  and  S_4
REMARK    3  A    between atoms: S_4  and  C_7
REMARK                            x       y       z     vdW  Elec       q    Type
REMARK                         _______ _______ _______ _____ _____    ______ ____
ROOT
ATOM      1  C   UNL     1       3.530   6.694  17.934  0.00  0.00    +0.000 C 
ATOM      2  N   UNL     1       3.567   5.250  18.036  0.00  0.00    +0.000 N 
ATOM      3  C   UNL     1       4.391   4.376  17.345  0.00  0.00    +0.000 A 
ATOM      4  C   UNL     1       3.986   3.098  17.703  0.00  0.00    +0.000 A 
ATOM      5  C   UNL     1       2.949   3.187  18.660  0.00  0.00    +0.000 A 
ATOM      6  C   UNL     1       2.196   2.234  19.368  0.00  0.00    +0.000 A 
ATOM      7  C   UNL     1       1.248   2.662  20.304  0.00  0.00    +0.000 A 
ATOM      8  C   UNL     1       1.058   4.020  20.543  0.00  0.00    +0.000 A 
ATOM      9  C   UNL     1       1.792   4.984  19.843  0.00  0.00    +0.000 A 
ATOM     10  C   UNL     1       2.728   4.544  18.890  0.00  0.00    +0.000 A 
ENDROOT
BRANCH   3  11
ATOM     11  S   UNL     1       5.718   4.853  16.249  0.00  0.00    +0.000 S 
ATOM     12  O   UNL     1       6.511   3.657  16.068  0.00  0.00    +0.000 OA
ATOM     13  O   UNL     1       5.062   5.518  15.138  0.00  0.00    +0.000 OA
BRANCH  11  14
ATOM     14  C   UNL     1       6.721   6.070  17.059  0.00  0.00    +0.000 A 
ATOM     15  C   UNL     1       7.429   5.692  18.207  0.00  0.00    +0.000 A 
ATOM     16  C   UNL     1       8.179   6.643  18.903  0.00  0.00    +0.000 A 
ATOM     17  C   UNL     1       8.220   7.960  18.447  0.00  0.00    +0.000 A 
ATOM     18 CL   UNL     1       9.101   9.143  19.333  0.00  0.00    +0.000 Cl
ATOM     19  C   UNL     1       7.542   8.329  17.284  0.00  0.00    +0.000 A 
ATOM     20  C   UNL     1       6.790   7.383  16.582  0.00  0.00    +0.000 A 
ENDBRANCH  11  14
ENDBRANCH   3  11
TORSDOF 2
ENDMDL
MODEL 9
REMARK VINA RESULT:      -7.0      3.774      6.641
REMARK  Name = 
REMARK  3 active torsions:
REMARK  status: ('A' for Active; 'I' for Inactive)
REMARK    1  A    between atoms: C_1  and  N_2
REMARK    2  A    between atoms: C_3  and  S_4
REMARK    3  A    between atoms: S_4  and  C_7
REMARK                            x       y       z     vdW  Elec       q    Type
REMARK                         _______ _______ _______ _____ _____    ______ ____
ROOT
ATOM      1  C   UNL     1       5.781   5.461  19.267  0.00  0.00    +0.000 C 
ATOM      2  N   UNL     1       5.135   4.950  18.077  0.00  0.00    +0.000 N 
ATOM      3  C   UNL     1       3.829   4.504  17.952  0.00  0.00    +0.000 A 
ATOM      4  C   UNL     1       3.708   4.020  16.656  0.00  0.00    +0.000 A 
ATOM      5  C   UNL     1       4.927   4.221  15.968  0.00  0.00    +0.000 A 
ATOM      6  C   UNL     1       5.358   3.950  14.656  0.00  0.00    +0.000 A 
ATOM      7  C   UNL     1       6.647   4.325  14.264  0.00  0.00    +0.000 A 
ATOM      8  C   UNL     1       7.495   4.972  15.158  0.00  0.00    +0.000 A 
ATOM      9  C   UNL     1       7.088   5.244  16.469  0.00  0.00    +0.000 A 
ATOM     10  C   UNL     1       5.797   4.845  16.859  0.00  0.00    +0.000 A 
ENDROOT
BRANCH   3  11
ATOM     11  S   UNL     1       2.579   4.590  19.224  0.00  0.00    +0.000 S 
ATOM     12  O   UNL     1       1.422   3.923  18.668  0.00  0.00    +0.000 OA
ATOM     13  O   UNL     1       3.239   4.114  20.426  0.00  0.00    +0.000 OA
BRANCH  11  14
ATOM     14  C   UNL     1       2.162   6.290  19.504  0.00  0.00    +0.000 A 
ATOM     15  C   UNL     1       1.624   6.648  20.747  0.00  0.00    +0.000 A 
ATOM     16  C   UNL     1       1.229   7.968  20.977  0.00  0.00    +0.000 A 
ATOM     17  C   UNL     1       1.376   8.920  19.968  0.00  0.00    +0.000 A 
ATOM     18 CL   UNL     1       0.840  10.533  20.233  0.00  0.00    +0.000 Cl
ATOM     19  C   UNL     1       1.943   8.571  18.742  0.00  0.00    +0.000 A 
ATOM     20  C   UNL     1       2.342   7.252  18.505  0.00  0.00    +0.000 A 
ENDBRANCH  11  14
ENDBRANCH   3  11
TORSDOF 2
ENDMDL
