MODEL 1
REMARK VINA RESULT:      -8.9      0.000      0.000
REMARK  Name = 
REMARK  5 active torsions:
REMARK  status: ('A' for Active; 'I' for Inactive)
REMARK    1  A    between atoms: C_1  and  S_2
REMARK    2  A    between atoms: S_2  and  C_5
REMARK    3  A    between atoms: C_8  and  C_9
REMARK    4  A    between atoms: C_12  and  C_13
REMARK    5  A    between atoms: C_17  and  C_18
REMARK                            x       y       z     vdW  Elec       q    Type
REMARK                         _______ _______ _______ _____ _____    ______ ____
ROOT
ATOM      1  C   UNL     1       4.114   6.653  17.304  0.00  0.00    +0.000 A 
ATOM      2  N   UNL     1       4.833   7.422  16.476  0.00  0.00    +0.000 NA
ATOM      3  O   UNL     1       5.695   6.587  15.808  0.00  0.00    +0.000 OA
ATOM      4  C   UNL     1       5.502   5.303  16.202  0.00  0.00    +0.000 A 
ATOM      5  C   UNL     1       4.497   5.264  17.157  0.00  0.00    +0.000 A 
ENDROOT
BRANCH   1   9
ATOM      6  C   UNL     1       1.351   8.576  19.924  0.00  0.00    +0.000 A 
ATOM      7  C   UNL     1       1.914   7.355  20.299  0.00  0.00    +0.000 A 
ATOM      8  C   UNL     1       2.788   6.702  19.421  0.00  0.00    +0.000 A 
ATOM      9  C   UNL     1       3.082   7.251  18.160  0.00  0.00    +0.000 A 
ATOM     10  C   UNL     1       2.408   8.419  17.765  0.00  0.00    +0.000 A 
ATOM     11  C   UNL     1       1.574   9.100  18.651  0.00  0.00    +0.000 A 
BRANCH   6  13
ATOM     12  C   UNL     1      -0.669  10.497  19.988  0.00  0.00    +0.000 C 
ATOM     13  S   UNL     1       0.308   9.465  21.055  0.00  0.00    +0.000 S 
ATOM     14  O   UNL     1       1.159  10.326  21.850  0.00  0.00    +0.000 OA
ATOM     15  O   UNL     1      -0.579   8.506  21.680  0.00  0.00    +0.000 OA
ENDBRANCH   6  13
ENDBRANCH   1   9
BRANCH   5  16
ATOM     16  C   UNL     1       3.974   4.045  17.775  0.00  0.00    +0.000 A 
ATOM     17  C   UNL     1       4.576   3.474  18.906  0.00  0.00    +0.000 A 
ATOM     18  C   UNL     1       4.049   2.322  19.499  0.00  0.00    +0.000 A 
ATOM     19  C   UNL     1       2.876   1.757  19.012  0.00  0.00    +0.000 A 
ATOM     20  C   UNL     1       2.249   2.321  17.908  0.00  0.00    +0.000 A 
ATOM     21  C   UNL     1       2.818   3.429  17.271  0.00  0.00    +0.000 A 
ENDBRANCH   5  16
BRANCH   4  22
ATOM     22  C   UNL     1       6.358   4.306  15.527  0.00  0.00    +0.000 C 
ATOM     23  F   UNL     1       6.573   4.590  14.216  0.00  0.00    +0.000 F 
ATOM     24  F   UNL     1       7.587   4.220  16.099  0.00  0.00    +0.000 F 
ATOM     25  F   UNL     1       5.819   3.059  15.568  0.00  0.00    +0.000 F 
ENDBRANCH   4  22
TORSDOF 4
ENDMDL
MODEL 2
REMARK VINA RESULT:      -8.8      0.208      1.177
REMARK  Name = 
REMARK  5 active torsions:
REMARK  status: ('A' for Active; 'I' for Inactive)
REMARK    1  A    between atoms: C_1  and  S_2
REMARK    2  A    between atoms: S_2  and  C_5
REMARK    3  A    between atoms: C_8  and  C_9
REMARK    4  A    between atoms: C_12  and  C_13
REMARK    5  A    between atoms: C_17  and  C_18
REMARK                            x       y       z     vdW  Elec       q    Type
REMARK                         _______ _______ _______ _____ _____    ______ ____
ROOT
ATOM      1  C   UNL     1       4.182   6.708  17.317  0.00  0.00    +0.000 A 
ATOM      2  N   UNL     1       4.930   7.478  16.516  0.00  0.00    +0.000 NA
ATOM      3  O   UNL     1       5.810   6.642  15.872  0.00  0.00    +0.000 OA
ATOM      4  C   UNL     1       5.599   5.357  16.255  0.00  0.00    +0.000 A 
ATOM      5  C   UNL     1       4.563   5.319  17.178  0.00  0.00    +0.000 A 
ENDROOT
BRANCH   1   9
ATOM      6  C   UNL     1       1.344   8.636  19.853  0.00  0.00    +0.000 A 
ATOM      7  C   UNL     1       1.901   7.418  20.250  0.00  0.00    +0.000 A 
ATOM      8  C   UNL     1       2.800   6.764  19.398  0.00  0.00    +0.000 A 
ATOM      9  C   UNL     1       3.125   7.307  18.143  0.00  0.00    +0.000 A 
ATOM     10  C   UNL     1       2.458   8.471  17.724  0.00  0.00    +0.000 A 
ATOM     11  C   UNL     1       1.599   9.154  18.584  0.00  0.00    +0.000 A 
BRANCH   6  13
ATOM     12  C   UNL     1      -0.809  10.408  19.846  0.00  0.00    +0.000 C 
ATOM     13  S   UNL     1       0.268   9.527  20.951  0.00  0.00    +0.000 S 
ATOM     14  O   UNL     1       1.074  10.502  21.657  0.00  0.00    +0.000 OA
ATOM     15  O   UNL     1      -0.530   8.555  21.669  0.00  0.00    +0.000 OA
ENDBRANCH   6  13
ENDBRANCH   1   9
BRANCH   5  16
ATOM     16  C   UNL     1       4.017   4.099  17.773  0.00  0.00    +0.000 A 
ATOM     17  C   UNL     1       2.946   3.409  17.188  0.00  0.00    +0.000 A 
ATOM     18  C   UNL     1       2.451   2.230  17.757  0.00  0.00    +0.000 A 
ATOM     19  C   UNL     1       3.059   1.687  18.882  0.00  0.00    +0.000 A 
ATOM     20  C   UNL     1       4.138   2.340  19.463  0.00  0.00    +0.000 A 
ATOM     21  C   UNL     1       4.584   3.557  18.937  0.00  0.00    +0.000 A 
ENDBRANCH   5  16
BRANCH   4  22
ATOM     22  C   UNL     1       6.471   4.360  15.604  0.00  0.00    +0.000 C 
ATOM     23  F   UNL     1       5.810   3.227  15.246  0.00  0.00    +0.000 F 
ATOM     24  F   UNL     1       7.032   4.841  14.464  0.00  0.00    +0.000 F 
ATOM     25  F   UNL     1       7.494   3.971  16.410  0.00  0.00    +0.000 F 
ENDBRANCH   4  22
TORSDOF 4
ENDMDL
MODEL 3
REMARK VINA RESULT:      -8.7      0.761      1.573
REMARK  Name = 
REMARK  5 active torsions:
REMARK  status: ('A' for Active; 'I' for Inactive)
REMARK    1  A    between atoms: C_1  and  S_2
REMARK    2  A    between atoms: S_2  and  C_5
REMARK    3  A    between atoms: C_8  and  C_9
REMARK    4  A    between atoms: C_12  and  C_13
REMARK    5  A    between atoms: C_17  and  C_18
REMARK                            x       y       z     vdW  Elec       q    Type
REMARK                         _______ _______ _______ _____ _____    ______ ____
ROOT
ATOM      1  C   UNL     1       4.200   6.727  17.321  0.00  0.00    +0.000 A 
ATOM      2  N   UNL     1       4.994   7.463  16.532  0.00  0.00    +0.000 NA
ATOM      3  O   UNL     1       5.872   6.594  15.933  0.00  0.00    +0.000 OA
ATOM      4  C   UNL     1       5.616   5.322  16.331  0.00  0.00    +0.000 A 
ATOM      5  C   UNL     1       4.550   5.326  17.219  0.00  0.00    +0.000 A 
ENDROOT
BRANCH   1   9
ATOM      6  C   UNL     1       1.328   8.782  19.715  0.00  0.00    +0.000 A 
ATOM      7  C   UNL     1       1.881   7.589  20.183  0.00  0.00    +0.000 A 
ATOM      8  C   UNL     1       2.792   6.892  19.379  0.00  0.00    +0.000 A 
ATOM      9  C   UNL     1       3.132   7.367  18.100  0.00  0.00    +0.000 A 
ATOM     10  C   UNL     1       2.470   8.506  17.612  0.00  0.00    +0.000 A 
ATOM     11  C   UNL     1       1.599   9.233  18.424  0.00  0.00    +0.000 A 
BRANCH   6  13
ATOM     12  C   UNL     1      -0.461   8.508  21.836  0.00  0.00    +0.000 C 
ATOM     13  S   UNL     1       0.238   9.729  20.751  0.00  0.00    +0.000 S 
ATOM     14  O   UNL     1      -0.826  10.241  19.912  0.00  0.00    +0.000 OA
ATOM     15  O   UNL     1       1.055  10.618  21.550  0.00  0.00    +0.000 OA
ENDBRANCH   6  13
ENDBRANCH   1   9
BRANCH   5  16
ATOM     16  C   UNL     1       3.953   4.132  17.818  0.00  0.00    +0.000 A 
ATOM     17  C   UNL     1       2.818   3.520  17.268  0.00  0.00    +0.000 A 
ATOM     18  C   UNL     1       2.274   2.364  17.838  0.00  0.00    +0.000 A 
ATOM     19  C   UNL     1       2.893   1.763  18.927  0.00  0.00    +0.000 A 
ATOM     20  C   UNL     1       4.034   2.338  19.473  0.00  0.00    +0.000 A 
ATOM     21  C   UNL     1       4.533   3.534  18.948  0.00  0.00    +0.000 A 
ENDBRANCH   5  16
BRANCH   4  22
ATOM     22  C   UNL     1       6.484   4.291  15.727  0.00  0.00    +0.000 C 
ATOM     23  F   UNL     1       7.597   4.033  16.463  0.00  0.00    +0.000 F 
ATOM     24  F   UNL     1       5.841   3.101  15.591  0.00  0.00    +0.000 F 
ATOM     25  F   UNL     1       6.915   4.647  14.489  0.00  0.00    +0.000 F 
ENDBRANCH   4  22
TORSDOF 4
ENDMDL
MODEL 4
REMARK VINA RESULT:      -8.7      1.819      2.322
REMARK  Name = 
REMARK  5 active torsions:
REMARK  status: ('A' for Active; 'I' for Inactive)
REMARK    1  A    between atoms: C_1  and  S_2
REMARK    2  A    between atoms: S_2  and  C_5
REMARK    3  A    between atoms: C_8  and  C_9
REMARK    4  A    between atoms: C_12  and  C_13
REMARK    5  A    between atoms: C_17  and  C_18
REMARK                            x       y       z     vdW  Elec       q    Type
REMARK                         _______ _______ _______ _____ _____    ______ ____
ROOT
ATOM      1  C   UNL     1       3.023   7.085  18.155  0.00  0.00    +0.000 A 
ATOM      2  N   UNL     1       3.836   7.558  17.201  0.00  0.00    +0.000 NA
ATOM      3  O   UNL     1       4.534   6.484  16.706  0.00  0.00    +0.000 OA
ATOM      4  C   UNL     1       4.145   5.345  17.333  0.00  0.00    +0.000 A 
ATOM      5  C   UNL     1       3.172   5.650  18.273  0.00  0.00    +0.000 A 
ENDROOT
BRANCH   1   9
ATOM      6  C   UNL     1       0.676   9.900  20.337  0.00  0.00    +0.000 A 
ATOM      7  C   UNL     1       1.109   8.734  20.970  0.00  0.00    +0.000 A 
ATOM      8  C   UNL     1       1.843   7.789  20.242  0.00  0.00    +0.000 A 
ATOM      9  C   UNL     1       2.124   7.992  18.879  0.00  0.00    +0.000 A 
ATOM     10  C   UNL     1       1.574   9.118  18.243  0.00  0.00    +0.000 A 
ATOM     11  C   UNL     1       0.883  10.087  18.970  0.00  0.00    +0.000 A 
BRANCH   6  13
ATOM     12  C   UNL     1      -0.655  10.312  22.752  0.00  0.00    +0.000 C 
ATOM     13  S   UNL     1      -0.182  11.153  21.260  0.00  0.00    +0.000 S 
ATOM     14  O   UNL     1      -1.391  11.482  20.532  0.00  0.00    +0.000 OA
ATOM     15  O   UNL     1       0.781  12.175  21.612  0.00  0.00    +0.000 OA
ENDBRANCH   6  13
ENDBRANCH   1   9
BRANCH   5  16
ATOM     16  C   UNL     1       2.475   4.668  19.106  0.00  0.00    +0.000 A 
ATOM     17  C   UNL     1       1.403   3.911  18.612  0.00  0.00    +0.000 A 
ATOM     18  C   UNL     1       0.763   2.959  19.413  0.00  0.00    +0.000 A 
ATOM     19  C   UNL     1       1.224   2.702  20.698  0.00  0.00    +0.000 A 
ATOM     20  C   UNL     1       2.301   3.423  21.199  0.00  0.00    +0.000 A 
ATOM     21  C   UNL     1       2.892   4.425  20.424  0.00  0.00    +0.000 A 
ENDBRANCH   5  16
BRANCH   4  22
ATOM     22  C   UNL     1       4.809   4.113  16.861  0.00  0.00    +0.000 C 
ATOM     23  F   UNL     1       4.840   4.010  15.506  0.00  0.00    +0.000 F 
ATOM     24  F   UNL     1       6.103   4.044  17.270  0.00  0.00    +0.000 F 
ATOM     25  F   UNL     1       4.193   2.992  17.318  0.00  0.00    +0.000 F 
ENDBRANCH   4  22
TORSDOF 4
ENDMDL
MODEL 5
REMARK VINA RESULT:      -8.6      1.602      1.931
REMARK  Name = 
REMARK  5 active torsions:
REMARK  status: ('A' for Active; 'I' for Inactive)
REMARK    1  A    between atoms: C_1  and  S_2
REMARK    2  A    between atoms: S_2  and  C_5
REMARK    3  A    between atoms: C_8  and  C_9
REMARK    4  A    between atoms: C_12  and  C_13
REMARK    5  A    between atoms: C_17  and  C_18
REMARK                            x       y       z     vdW  Elec       q    Type
REMARK                         _______ _______ _______ _____ _____    ______ ____
ROOT
ATOM      1  C   UNL     1       3.118   7.045  18.052  0.00  0.00    +0.000 A 
ATOM      2  N   UNL     1       3.928   7.541  17.107  0.00  0.00    +0.000 NA
ATOM      3  O   UNL     1       4.633   6.481  16.592  0.00  0.00    +0.000 OA
ATOM      4  C   UNL     1       4.251   5.328  17.198  0.00  0.00    +0.000 A 
ATOM      5  C   UNL     1       3.276   5.609  18.144  0.00  0.00    +0.000 A 
ENDROOT
BRANCH   1   9
ATOM      6  C   UNL     1       0.752   9.804  20.286  0.00  0.00    +0.000 A 
ATOM      7  C   UNL     1       1.188   8.625  20.895  0.00  0.00    +0.000 A 
ATOM      8  C   UNL     1       1.928   7.700  20.149  0.00  0.00    +0.000 A 
ATOM      9  C   UNL     1       2.213   7.933  18.792  0.00  0.00    +0.000 A 
ATOM     10  C   UNL     1       1.660   9.070  18.179  0.00  0.00    +0.000 A 
ATOM     11  C   UNL     1       0.963  10.020  18.924  0.00  0.00    +0.000 A 
BRANCH   6  13
ATOM     12  C   UNL     1      -1.357  11.619  20.105  0.00  0.00    +0.000 C 
ATOM     13  S   UNL     1      -0.114  11.033  21.233  0.00  0.00    +0.000 S 
ATOM     14  O   UNL     1       0.808  12.121  21.484  0.00  0.00    +0.000 OA
ATOM     15  O   UNL     1      -0.786  10.354  22.321  0.00  0.00    +0.000 OA
ENDBRANCH   6  13
ENDBRANCH   1   9
BRANCH   5  16
ATOM     16  C   UNL     1       2.585   4.608  18.957  0.00  0.00    +0.000 A 
ATOM     17  C   UNL     1       2.977   4.330  20.274  0.00  0.00    +0.000 A 
ATOM     18  C   UNL     1       2.291   3.388  21.047  0.00  0.00    +0.000 A 
ATOM     19  C   UNL     1       1.161   2.755  20.540  0.00  0.00    +0.000 A 
ATOM     20  C   UNL     1       0.740   3.035  19.247  0.00  0.00    +0.000 A 
ATOM     21  C   UNL     1       1.471   3.921  18.450  0.00  0.00    +0.000 A 
ENDBRANCH   5  16
BRANCH   4  22
ATOM     22  C   UNL     1       4.924   4.110  16.704  0.00  0.00    +0.000 C 
ATOM     23  F   UNL     1       4.358   2.964  17.165  0.00  0.00    +0.000 F 
ATOM     24  F   UNL     1       4.890   4.024  15.348  0.00  0.00    +0.000 F 
ATOM     25  F   UNL     1       6.233   4.066  17.066  0.00  0.00    +0.000 F 
ENDBRANCH   4  22
TORSDOF 4
ENDMDL
MODEL 6
REMARK VINA RESULT:      -8.6      0.757      1.071
REMARK  Name = 
REMARK  5 active torsions:
REMARK  status: ('A' for Active; 'I' for Inactive)
REMARK    1  A    between atoms: C_1  and  S_2
REMARK    2  A    between atoms: S_2  and  C_5
REMARK    3  A    between atoms: C_8  and  C_9
REMARK    4  A    between atoms: C_12  and  C_13
REMARK    5  A    between atoms: C_17  and  C_18
REMARK                            x       y       z     vdW  Elec       q    Type
REMARK                         _______ _______ _______ _____ _____    ______ ____
ROOT
ATOM      1  C   UNL     1       4.274   6.746  17.390  0.00  0.00    +0.000 A 
ATOM      2  N   UNL     1       5.098   7.504  16.656  0.00  0.00    +0.000 NA
ATOM      3  O   UNL     1       6.028   6.659  16.104  0.00  0.00    +0.000 OA
ATOM      4  C   UNL     1       5.775   5.378  16.476  0.00  0.00    +0.000 A 
ATOM      5  C   UNL     1       4.659   5.353  17.299  0.00  0.00    +0.000 A 
ENDROOT
BRANCH   1   9
ATOM      6  C   UNL     1       1.219   8.732  19.610  0.00  0.00    +0.000 A 
ATOM      7  C   UNL     1       1.812   7.583  20.137  0.00  0.00    +0.000 A 
ATOM      8  C   UNL     1       2.784   6.907  19.390  0.00  0.00    +0.000 A 
ATOM      9  C   UNL     1       3.148   7.357  18.109  0.00  0.00    +0.000 A 
ATOM     10  C   UNL     1       2.450   8.445  17.559  0.00  0.00    +0.000 A 
ATOM     11  C   UNL     1       1.516   9.154  18.314  0.00  0.00    +0.000 A 
BRANCH   6  13
ATOM     12  C   UNL     1       0.958  11.107  21.047  0.00  0.00    +0.000 C 
ATOM     13  S   UNL     1       0.047   9.657  20.573  0.00  0.00    +0.000 S 
ATOM     14  O   UNL     1      -0.231   8.894  21.773  0.00  0.00    +0.000 OA
ATOM     15  O   UNL     1      -1.019  10.072  19.686  0.00  0.00    +0.000 OA
ENDBRANCH   6  13
ENDBRANCH   1   9
BRANCH   5  16
ATOM     16  C   UNL     1       4.052   4.142  17.851  0.00  0.00    +0.000 A 
ATOM     17  C   UNL     1       4.526   3.551  19.030  0.00  0.00    +0.000 A 
ATOM     18  C   UNL     1       3.920   2.407  19.558  0.00  0.00    +0.000 A 
ATOM     19  C   UNL     1       2.789   1.871  18.953  0.00  0.00    +0.000 A 
ATOM     20  C   UNL     1       2.285   2.456  17.798  0.00  0.00    +0.000 A 
ATOM     21  C   UNL     1       2.938   3.555  17.230  0.00  0.00    +0.000 A 
ENDBRANCH   5  16
BRANCH   4  22
ATOM     22  C   UNL     1       6.699   4.371  15.917  0.00  0.00    +0.000 C 
ATOM     23  F   UNL     1       6.080   3.207  15.585  0.00  0.00    +0.000 F 
ATOM     24  F   UNL     1       7.305   4.809  14.783  0.00  0.00    +0.000 F 
ATOM     25  F   UNL     1       7.689   4.045  16.789  0.00  0.00    +0.000 F 
ENDBRANCH   4  22
TORSDOF 4
ENDMDL
MODEL 7
REMARK VINA RESULT:      -8.6      1.116      1.654
REMARK  Name = 
REMARK  5 active torsions:
REMARK  status: ('A' for Active; 'I' for Inactive)
REMARK    1  A    between atoms: C_1  and  S_2
REMARK    2  A    between atoms: S_2  and  C_5
REMARK    3  A    between atoms: C_8  and  C_9
REMARK    4  A    between atoms: C_12  and  C_13
REMARK    5  A    between atoms: C_17  and  C_18
REMARK                            x       y       z     vdW  Elec       q    Type
REMARK                         _______ _______ _______ _____ _____    ______ ____
ROOT
ATOM      1  C   UNL     1       3.464   6.829  17.727  0.00  0.00    +0.000 A 
ATOM      2  N   UNL     1       4.310   7.396  16.857  0.00  0.00    +0.000 NA
ATOM      3  O   UNL     1       5.037   6.378  16.291  0.00  0.00    +0.000 OA
ATOM      4  C   UNL     1       4.634   5.182  16.790  0.00  0.00    +0.000 A 
ATOM      5  C   UNL     1       3.621   5.390  17.715  0.00  0.00    +0.000 A 
ENDROOT
BRANCH   1   9
ATOM      6  C   UNL     1       1.001   9.417  20.059  0.00  0.00    +0.000 A 
ATOM      7  C   UNL     1       1.454   8.219  20.615  0.00  0.00    +0.000 A 
ATOM      8  C   UNL     1       2.227   7.349  19.835  0.00  0.00    +0.000 A 
ATOM      9  C   UNL     1       2.527   7.658  18.497  0.00  0.00    +0.000 A 
ATOM     10  C   UNL     1       1.959   8.813  17.933  0.00  0.00    +0.000 A 
ATOM     11  C   UNL     1       1.230   9.708  18.715  0.00  0.00    +0.000 A 
BRANCH   6  13
ATOM     12  C   UNL     1      -1.111  11.231  19.923  0.00  0.00    +0.000 C 
ATOM     13  S   UNL     1       0.093  10.577  21.053  0.00  0.00    +0.000 S 
ATOM     14  O   UNL     1       0.999  11.650  21.410  0.00  0.00    +0.000 OA
ATOM     15  O   UNL     1      -0.613   9.825  22.069  0.00  0.00    +0.000 OA
ENDBRANCH   6  13
ENDBRANCH   1   9
BRANCH   5  16
ATOM     16  C   UNL     1       2.900   4.330  18.420  0.00  0.00    +0.000 A 
ATOM     17  C   UNL     1       1.662   3.853  17.968  0.00  0.00    +0.000 A 
ATOM     18  C   UNL     1       0.997   2.822  18.640  0.00  0.00    +0.000 A 
ATOM     19  C   UNL     1       1.589   2.205  19.737  0.00  0.00    +0.000 A 
ATOM     20  C   UNL     1       2.828   2.644  20.186  0.00  0.00    +0.000 A 
ATOM     21  C   UNL     1       3.456   3.725  19.559  0.00  0.00    +0.000 A 
ENDBRANCH   5  16
BRANCH   4  22
ATOM     22  C   UNL     1       5.329   4.005  16.231  0.00  0.00    +0.000 C 
ATOM     23  F   UNL     1       6.653   3.973  16.537  0.00  0.00    +0.000 F 
ATOM     24  F   UNL     1       4.809   2.838  16.695  0.00  0.00    +0.000 F 
ATOM     25  F   UNL     1       5.246   3.959  14.876  0.00  0.00    +0.000 F 
ENDBRANCH   4  22
TORSDOF 4
ENDMDL
MODEL 8
REMARK VINA RESULT:      -8.5      1.769      2.166
REMARK  Name = 
REMARK  5 active torsions:
REMARK  status: ('A' for Active; 'I' for Inactive)
REMARK    1  A    between atoms: C_1  and  S_2
REMARK    2  A    between atoms: S_2  and  C_5
REMARK    3  A    between atoms: C_8  and  C_9
REMARK    4  A    between atoms: C_12  and  C_13
REMARK    5  A    between atoms: C_17  and  C_18
REMARK                            x       y       z     vdW  Elec       q    Type
REMARK                         _______ _______ _______ _____ _____    ______ ____
ROOT
ATOM      1  C   UNL     1       3.102   7.070  18.049  0.00  0.00    +0.000 A 
ATOM      2  N   UNL     1       3.942   7.524  17.109  0.00  0.00    +0.000 NA
ATOM      3  O   UNL     1       4.631   6.435  16.634  0.00  0.00    +0.000 OA
ATOM      4  C   UNL     1       4.209   5.306  17.260  0.00  0.00    +0.000 A 
ATOM      5  C   UNL     1       3.222   5.633  18.178  0.00  0.00    +0.000 A 
ENDROOT
BRANCH   1   9
ATOM      6  C   UNL     1       0.760   9.939  20.167  0.00  0.00    +0.000 A 
ATOM      7  C   UNL     1       1.154   8.765  20.813  0.00  0.00    +0.000 A 
ATOM      8  C   UNL     1       1.887   7.804  20.105  0.00  0.00    +0.000 A 
ATOM      9  C   UNL     1       2.204   7.998  18.749  0.00  0.00    +0.000 A 
ATOM     10  C   UNL     1       1.692   9.132  18.097  0.00  0.00    +0.000 A 
ATOM     11  C   UNL     1       1.004  10.117  18.805  0.00  0.00    +0.000 A 
BRANCH   6  13
ATOM     12  C   UNL     1       0.887  12.660  20.759  0.00  0.00    +0.000 C 
ATOM     13  S   UNL     1      -0.095  11.211  21.066  0.00  0.00    +0.000 S 
ATOM     14  O   UNL     1       0.008  10.894  22.476  0.00  0.00    +0.000 OA
ATOM     15  O   UNL     1      -1.383  11.404  20.435  0.00  0.00    +0.000 OA
ENDBRANCH   6  13
ENDBRANCH   1   9
BRANCH   5  16
ATOM     16  C   UNL     1       2.491   4.669  19.001  0.00  0.00    +0.000 A 
ATOM     17  C   UNL     1       1.432   3.911  18.483  0.00  0.00    +0.000 A 
ATOM     18  C   UNL     1       0.759   2.976  19.276  0.00  0.00    +0.000 A 
ATOM     19  C   UNL     1       1.174   2.736  20.580  0.00  0.00    +0.000 A 
ATOM     20  C   UNL     1       2.238   3.458  21.106  0.00  0.00    +0.000 A 
ATOM     21  C   UNL     1       2.861   4.445  20.336  0.00  0.00    +0.000 A 
ENDBRANCH   5  16
BRANCH   4  22
ATOM     22  C   UNL     1       4.861   4.060  16.808  0.00  0.00    +0.000 C 
ATOM     23  F   UNL     1       4.837   3.905  15.458  0.00  0.00    +0.000 F 
ATOM     24  F   UNL     1       6.171   4.013  17.166  0.00  0.00    +0.000 F 
ATOM     25  F   UNL     1       4.271   2.955  17.333  0.00  0.00    +0.000 F 
ENDBRANCH   4  22
TORSDOF 4
ENDMDL
MODEL 9
REMARK VINA RESULT:      -8.5      1.763      2.048
REMARK  Name = 
REMARK  5 active torsions:
REMARK  status: ('A' for Active; 'I' for Inactive)
REMARK    1  A    between atoms: C_1  and  S_2
REMARK    2  A    between atoms: S_2  and  C_5
REMARK    3  A    between atoms: C_8  and  C_9
REMARK    4  A    between atoms: C_12  and  C_13
REMARK    5  A    between atoms: C_17  and  C_18
REMARK                            x       y       z     vdW  Elec       q    Type
REMARK                         _______ _______ _______ _____ _____    ______ ____
ROOT
ATOM      1  C   UNL     1       3.110   7.049  18.043  0.00  0.00    +0.000 A 
ATOM      2  N   UNL     1       3.921   7.516  17.085  0.00  0.00    +0.000 NA
ATOM      3  O   UNL     1       4.621   6.439  16.599  0.00  0.00    +0.000 OA
ATOM      4  C   UNL     1       4.235   5.304  17.237  0.00  0.00    +0.000 A 
ATOM      5  C   UNL     1       3.261   5.616  18.174  0.00  0.00    +0.000 A 
ENDROOT
BRANCH   1   9
ATOM      6  C   UNL     1       0.756   9.882  20.196  0.00  0.00    +0.000 A 
ATOM      7  C   UNL     1       1.197   8.725  20.843  0.00  0.00    +0.000 A 
ATOM      8  C   UNL     1       1.933   7.775  20.124  0.00  0.00    +0.000 A 
ATOM      9  C   UNL     1       2.208   7.962  18.758  0.00  0.00    +0.000 A 
ATOM     10  C   UNL     1       1.650   9.076  18.110  0.00  0.00    +0.000 A 
ATOM     11  C   UNL     1       0.958  10.051  18.827  0.00  0.00    +0.000 A 
BRANCH   6  13
ATOM     12  C   UNL     1       0.887  12.592  20.838  0.00  0.00    +0.000 C 
ATOM     13  S   UNL     1      -0.105  11.142  21.107  0.00  0.00    +0.000 S 
ATOM     14  O   UNL     1      -0.022  10.800  22.512  0.00  0.00    +0.000 OA
ATOM     15  O   UNL     1      -1.384  11.353  20.462  0.00  0.00    +0.000 OA
ENDBRANCH   6  13
ENDBRANCH   1   9
BRANCH   5  16
ATOM     16  C   UNL     1       2.565   4.641  19.016  0.00  0.00    +0.000 A 
ATOM     17  C   UNL     1       2.955   4.399  20.341  0.00  0.00    +0.000 A 
ATOM     18  C   UNL     1       2.264   3.482  21.139  0.00  0.00    +0.000 A 
ATOM     19  C   UNL     1       1.133   2.839  20.649  0.00  0.00    +0.000 A 
ATOM     20  C   UNL     1       0.714   3.083  19.347  0.00  0.00    +0.000 A 
ATOM     21  C   UNL     1       1.450   3.943  18.526  0.00  0.00    +0.000 A 
ENDBRANCH   5  16
BRANCH   4  22
ATOM     22  C   UNL     1       4.902   4.070  16.776  0.00  0.00    +0.000 C 
ATOM     23  F   UNL     1       6.202   3.990  17.164  0.00  0.00    +0.000 F 
ATOM     24  F   UNL     1       4.298   2.953  17.261  0.00  0.00    +0.000 F 
ATOM     25  F   UNL     1       4.896   3.961  15.422  0.00  0.00    +0.000 F 
ENDBRANCH   4  22
TORSDOF 4
ENDMDL
