MODEL 1
REMARK VINA RESULT:      -7.7      0.000      0.000
REMARK  Name = 
REMARK  6 active torsions:
REMARK  status: ('A' for Active; 'I' for Inactive)
REMARK    1  A    between atoms: C_1  and  C_2
REMARK    2  A    between atoms: N_9  and  C_10
REMARK    3  A    between atoms: C_13  and  O_14
REMARK    4  A    between atoms: C_15  and  C_16
REMARK    5  A    between atoms: C_16  and  O_18
REMARK    6  A    between atoms: C_21  and  C_22
REMARK                            x       y       z     vdW  Elec       q    Type
REMARK                         _______ _______ _______ _____ _____    ______ ____
ROOT
ATOM      1  C   UNL     1       4.097   1.440  17.524  0.00  0.00    +0.000 C 
ATOM      2  C   UNL     1       4.187   2.937  17.486  0.00  0.00    +0.000 A 
ATOM      3  S   UNL     1       5.117   3.610  16.218  0.00  0.00    +0.000 S 
ATOM      4  C   UNL     1       4.724   5.192  16.665  0.00  0.00    +0.000 A 
ATOM      5  N   UNL     1       5.179   6.197  15.905  0.00  0.00    +0.000 NA
ATOM      6  C   UNL     1       4.786   7.387  16.343  0.00  0.00    +0.000 A 
ATOM      7  N   UNL     1       4.048   7.632  17.426  0.00  0.00    +0.000 NA
ATOM      8  C   UNL     1       3.622   6.602  18.204  0.00  0.00    +0.000 A 
ATOM      9  N   UNL     1       2.910   6.941  19.364  0.00  0.00    +0.000 N 
ATOM     10  C   UNL     1       3.944   5.275  17.812  0.00  0.00    +0.000 A 
ATOM     11  C   UNL     1       3.623   3.921  18.306  0.00  0.00    +0.000 A 
ATOM     12  H   UNL     1       2.991   6.275  20.121  0.00  0.00    +0.000 HD
ENDROOT
BRANCH   9  13
ATOM     13  C   UNL     1       1.993   7.993  19.550  0.00  0.00    +0.000 A 
ATOM     14  C   UNL     1       1.612   8.775  18.455  0.00  0.00    +0.000 A 
ATOM     15  C   UNL     1       0.646   9.772  18.580  0.00  0.00    +0.000 A 
ATOM     16  C   UNL     1       0.042  10.006  19.822  0.00  0.00    +0.000 A 
ATOM     17  C   UNL     1       0.411   9.259  20.943  0.00  0.00    +0.000 A 
ATOM     18  C   UNL     1       1.381   8.249  20.786  0.00  0.00    +0.000 A 
BRANCH  16  19
ATOM     19  O   UNL     1      -0.928  10.969  19.926  0.00  0.00    +0.000 OA
ATOM     20  H   UNL     1      -0.882  11.365  20.817  0.00  0.00    +0.000 HD
ENDBRANCH  16  19
BRANCH  17  21
ATOM     21  C   UNL     1      -0.148   9.456  22.315  0.00  0.00    +0.000 C 
ATOM     22  O   UNL     1       0.033  10.472  22.967  0.00  0.00    +0.000 OA
BRANCH  21  23
ATOM     23  O   UNL     1      -0.879   8.427  22.788  0.00  0.00    +0.000 OA
ATOM     24  H   UNL     1      -0.971   8.453  23.768  0.00  0.00    +0.000 HD
ENDBRANCH  21  23
ENDBRANCH  17  21
ENDBRANCH   9  13
BRANCH  11  25
ATOM     25  C   UNL     1       2.777   3.559  19.463  0.00  0.00    +0.000 A 
ATOM     26  C   UNL     1       3.344   3.045  20.637  0.00  0.00    +0.000 A 
ATOM     27  C   UNL     1       2.544   2.603  21.698  0.00  0.00    +0.000 A 
ATOM     28  C   UNL     1       1.163   2.764  21.644  0.00  0.00    +0.000 A 
ATOM     29  C   UNL     1       0.584   3.343  20.521  0.00  0.00    +0.000 A 
ATOM     30  C   UNL     1       1.381   3.703  19.428  0.00  0.00    +0.000 A 
ENDBRANCH  11  25
TORSDOF 5
ENDMDL
MODEL 2
REMARK VINA RESULT:      -7.1      0.904      2.206
REMARK  Name = 
REMARK  6 active torsions:
REMARK  status: ('A' for Active; 'I' for Inactive)
REMARK    1  A    between atoms: C_1  and  C_2
REMARK    2  A    between atoms: N_9  and  C_10
REMARK    3  A    between atoms: C_13  and  O_14
REMARK    4  A    between atoms: C_15  and  C_16
REMARK    5  A    between atoms: C_16  and  O_18
REMARK    6  A    between atoms: C_21  and  C_22
REMARK                            x       y       z     vdW  Elec       q    Type
REMARK                         _______ _______ _______ _____ _____    ______ ____
ROOT
ATOM      1  C   UNL     1       4.082   1.574  17.364  0.00  0.00    +0.000 C 
ATOM      2  C   UNL     1       4.117   3.072  17.455  0.00  0.00    +0.000 A 
ATOM      3  S   UNL     1       4.986   3.887  16.229  0.00  0.00    +0.000 S 
ATOM      4  C   UNL     1       4.549   5.409  16.823  0.00  0.00    +0.000 A 
ATOM      5  N   UNL     1       4.947   6.492  16.143  0.00  0.00    +0.000 NA
ATOM      6  C   UNL     1       4.524   7.623  16.693  0.00  0.00    +0.000 A 
ATOM      7  N   UNL     1       3.808   7.745  17.812  0.00  0.00    +0.000 NA
ATOM      8  C   UNL     1       3.441   6.636  18.507  0.00  0.00    +0.000 A 
ATOM      9  N   UNL     1       2.750   6.845  19.709  0.00  0.00    +0.000 N 
ATOM     10  C   UNL     1       3.800   5.361  17.992  0.00  0.00    +0.000 A 
ATOM     11  C   UNL     1       3.541   3.958  18.373  0.00  0.00    +0.000 A 
ATOM     12  H   UNL     1       2.877   6.120  20.403  0.00  0.00    +0.000 HD
ENDROOT
BRANCH   9  13
ATOM     13  C   UNL     1       1.802   7.841  20.010  0.00  0.00    +0.000 A 
ATOM     14  C   UNL     1       1.075   7.761  21.202  0.00  0.00    +0.000 A 
ATOM     15  C   UNL     1       0.186   8.768  21.576  0.00  0.00    +0.000 A 
ATOM     16  C   UNL     1       0.009   9.884  20.748  0.00  0.00    +0.000 A 
ATOM     17  C   UNL     1       0.703   9.990  19.540  0.00  0.00    +0.000 A 
ATOM     18  C   UNL     1       1.603   8.964  19.192  0.00  0.00    +0.000 A 
BRANCH  16  19
ATOM     19  O   UNL     1      -0.844  10.883  21.141  0.00  0.00    +0.000 OA
ATOM     20  H   UNL     1      -0.408  11.743  20.994  0.00  0.00    +0.000 HD
ENDBRANCH  16  19
BRANCH  17  21
ATOM     21  C   UNL     1       0.556  11.121  18.574  0.00  0.00    +0.000 C 
ATOM     22  O   UNL     1      -0.507  11.684  18.366  0.00  0.00    +0.000 OA
BRANCH  21  23
ATOM     23  O   UNL     1       1.690  11.486  17.945  0.00  0.00    +0.000 OA
ATOM     24  H   UNL     1       1.792  11.045  17.071  0.00  0.00    +0.000 HD
ENDBRANCH  21  23
ENDBRANCH  17  21
ENDBRANCH   9  13
BRANCH  11  25
ATOM     25  C   UNL     1       2.741   3.465  19.514  0.00  0.00    +0.000 A 
ATOM     26  C   UNL     1       1.341   3.526  19.492  0.00  0.00    +0.000 A 
ATOM     27  C   UNL     1       0.581   3.159  20.609  0.00  0.00    +0.000 A 
ATOM     28  C   UNL     1       1.204   2.626  21.733  0.00  0.00    +0.000 A 
ATOM     29  C   UNL     1       2.586   2.484  21.748  0.00  0.00    +0.000 A 
ATOM     30  C   UNL     1       3.348   2.933  20.663  0.00  0.00    +0.000 A 
ENDBRANCH  11  25
TORSDOF 5
ENDMDL
MODEL 3
REMARK VINA RESULT:      -6.8      6.513      9.819
REMARK  Name = 
REMARK  6 active torsions:
REMARK  status: ('A' for Active; 'I' for Inactive)
REMARK    1  A    between atoms: C_1  and  C_2
REMARK    2  A    between atoms: N_9  and  C_10
REMARK    3  A    between atoms: C_13  and  O_14
REMARK    4  A    between atoms: C_15  and  C_16
REMARK    5  A    between atoms: C_16  and  O_18
REMARK    6  A    between atoms: C_21  and  C_22
REMARK                            x       y       z     vdW  Elec       q    Type
REMARK                         _______ _______ _______ _____ _____    ______ ____
ROOT
ATOM      1  C   UNL     1       3.061  15.165  18.589  0.00  0.00    +0.000 C 
ATOM      2  C   UNL     1       1.944  14.167  18.678  0.00  0.00    +0.000 A 
ATOM      3  S   UNL     1       2.353  12.540  18.346  0.00  0.00    +0.000 S 
ATOM      4  C   UNL     1       0.796  11.993  18.716  0.00  0.00    +0.000 A 
ATOM      5  N   UNL     1       0.563  10.674  18.675  0.00  0.00    +0.000 NA
ATOM      6  C   UNL     1      -0.685  10.367  19.007  0.00  0.00    +0.000 A 
ATOM      7  N   UNL     1      -1.657  11.223  19.324  0.00  0.00    +0.000 NA
ATOM      8  C   UNL     1      -1.411  12.559  19.328  0.00  0.00    +0.000 A 
ATOM      9  N   UNL     1      -2.499  13.400  19.603  0.00  0.00    +0.000 N 
ATOM     10  C   UNL     1      -0.096  13.009  19.031  0.00  0.00    +0.000 A 
ATOM     11  C   UNL     1       0.592  14.315  19.007  0.00  0.00    +0.000 A 
ATOM     12  H   UNL     1      -2.442  14.319  19.184  0.00  0.00    +0.000 HD
ENDROOT
BRANCH   9  13
ATOM     13  C   UNL     1      -3.566  13.185  20.496  0.00  0.00    +0.000 A 
ATOM     14  C   UNL     1      -4.846  12.937  19.991  0.00  0.00    +0.000 A 
ATOM     15  C   UNL     1      -5.912  12.637  20.838  0.00  0.00    +0.000 A 
ATOM     16  C   UNL     1      -5.709  12.585  22.223  0.00  0.00    +0.000 A 
ATOM     17  C   UNL     1      -4.449  12.847  22.766  0.00  0.00    +0.000 A 
ATOM     18  C   UNL     1      -3.386  13.135  21.887  0.00  0.00    +0.000 A 
BRANCH  16  19
ATOM     19  O   UNL     1      -6.757  12.260  23.044  0.00  0.00    +0.000 OA
ATOM     20  H   UNL     1      -7.005  11.330  22.882  0.00  0.00    +0.000 HD
ENDBRANCH  16  19
BRANCH  17  21
ATOM     21  C   UNL     1      -4.140  12.851  24.229  0.00  0.00    +0.000 C 
ATOM     22  O   UNL     1      -3.547  13.764  24.780  0.00  0.00    +0.000 OA
BRANCH  21  23
ATOM     23  O   UNL     1      -4.571  11.769  24.906  0.00  0.00    +0.000 OA
ATOM     24  H   UNL     1      -4.570  11.913  25.881  0.00  0.00    +0.000 HD
ENDBRANCH  21  23
ENDBRANCH  17  21
ENDBRANCH   9  13
BRANCH  11  25
ATOM     25  C   UNL     1       0.025  15.641  19.333  0.00  0.00    +0.000 A 
ATOM     26  C   UNL     1      -0.432  16.497  18.322  0.00  0.00    +0.000 A 
ATOM     27  C   UNL     1      -0.873  17.794  18.613  0.00  0.00    +0.000 A 
ATOM     28  C   UNL     1      -0.963  18.220  19.934  0.00  0.00    +0.000 A 
ATOM     29  C   UNL     1      -0.589  17.359  20.959  0.00  0.00    +0.000 A 
ATOM     30  C   UNL     1      -0.067  16.097  20.658  0.00  0.00    +0.000 A 
ENDBRANCH  11  25
TORSDOF 5
ENDMDL
MODEL 4
REMARK VINA RESULT:      -6.7      7.889     10.063
REMARK  Name = 
REMARK  6 active torsions:
REMARK  status: ('A' for Active; 'I' for Inactive)
REMARK    1  A    between atoms: C_1  and  C_2
REMARK    2  A    between atoms: N_9  and  C_10
REMARK    3  A    between atoms: C_13  and  O_14
REMARK    4  A    between atoms: C_15  and  C_16
REMARK    5  A    between atoms: C_16  and  O_18
REMARK    6  A    between atoms: C_21  and  C_22
REMARK                            x       y       z     vdW  Elec       q    Type
REMARK                         _______ _______ _______ _____ _____    ______ ____
ROOT
ATOM      1  C   UNL     1      -6.759  10.327  18.962  0.00  0.00    +0.000 C 
ATOM      2  C   UNL     1      -5.879  11.384  19.561  0.00  0.00    +0.000 A 
ATOM      3  S   UNL     1      -6.483  12.177  20.951  0.00  0.00    +0.000 S 
ATOM      4  C   UNL     1      -5.063  13.073  21.152  0.00  0.00    +0.000 A 
ATOM      5  N   UNL     1      -4.970  13.879  22.218  0.00  0.00    +0.000 NA
ATOM      6  C   UNL     1      -3.803  14.509  22.279  0.00  0.00    +0.000 A 
ATOM      7  N   UNL     1      -2.805  14.422  21.400  0.00  0.00    +0.000 NA
ATOM      8  C   UNL     1      -2.930  13.624  20.307  0.00  0.00    +0.000 A 
ATOM      9  N   UNL     1      -1.868  13.637  19.392  0.00  0.00    +0.000 N 
ATOM     10  C   UNL     1      -4.120  12.863  20.154  0.00  0.00    +0.000 A 
ATOM     11  C   UNL     1      -4.610  11.850  19.197  0.00  0.00    +0.000 A 
ATOM     12  H   UNL     1      -2.129  13.432  18.436  0.00  0.00    +0.000 HD
ENDROOT
BRANCH   9  13
ATOM     13  C   UNL     1      -0.489  13.746  19.654  0.00  0.00    +0.000 A 
ATOM     14  C   UNL     1       0.084  12.959  20.658  0.00  0.00    +0.000 A 
ATOM     15  C   UNL     1       1.458  12.977  20.894  0.00  0.00    +0.000 A 
ATOM     16  C   UNL     1       2.288  13.798  20.120  0.00  0.00    +0.000 A 
ATOM     17  C   UNL     1       1.749  14.613  19.122  0.00  0.00    +0.000 A 
ATOM     18  C   UNL     1       0.360  14.567  18.896  0.00  0.00    +0.000 A 
BRANCH  16  19
ATOM     19  O   UNL     1       3.641  13.785  20.342  0.00  0.00    +0.000 OA
ATOM     20  H   UNL     1       3.800  13.720  21.302  0.00  0.00    +0.000 HD
ENDBRANCH  16  19
BRANCH  17  21
ATOM     21  C   UNL     1       2.545  15.548  18.269  0.00  0.00    +0.000 C 
ATOM     22  O   UNL     1       2.416  16.761  18.312  0.00  0.00    +0.000 OA
BRANCH  21  23
ATOM     23  O   UNL     1       3.430  14.955  17.444  0.00  0.00    +0.000 OA
ATOM     24  H   UNL     1       4.357  15.043  17.764  0.00  0.00    +0.000 HD
ENDBRANCH  21  23
ENDBRANCH  17  21
ENDBRANCH   9  13
BRANCH  11  25
ATOM     25  C   UNL     1      -3.900  11.299  18.024  0.00  0.00    +0.000 A 
ATOM     26  C   UNL     1      -4.341  11.571  16.722  0.00  0.00    +0.000 A 
ATOM     27  C   UNL     1      -3.739  10.969  15.610  0.00  0.00    +0.000 A 
ATOM     28  C   UNL     1      -2.616  10.165  15.775  0.00  0.00    +0.000 A 
ATOM     29  C   UNL     1      -2.112   9.944  17.052  0.00  0.00    +0.000 A 
ATOM     30  C   UNL     1      -2.771  10.477  18.166  0.00  0.00    +0.000 A 
ENDBRANCH  11  25
TORSDOF 5
ENDMDL
MODEL 5
REMARK VINA RESULT:      -6.6      7.887     10.024
REMARK  Name = 
REMARK  6 active torsions:
REMARK  status: ('A' for Active; 'I' for Inactive)
REMARK    1  A    between atoms: C_1  and  C_2
REMARK    2  A    between atoms: N_9  and  C_10
REMARK    3  A    between atoms: C_13  and  O_14
REMARK    4  A    between atoms: C_15  and  C_16
REMARK    5  A    between atoms: C_16  and  O_18
REMARK    6  A    between atoms: C_21  and  C_22
REMARK                            x       y       z     vdW  Elec       q    Type
REMARK                         _______ _______ _______ _____ _____    ______ ____
ROOT
ATOM      1  C   UNL     1      -6.923  10.113  18.933  0.00  0.00    +0.000 C 
ATOM      2  C   UNL     1      -6.065  11.168  19.565  0.00  0.00    +0.000 A 
ATOM      3  S   UNL     1      -6.687  11.908  20.976  0.00  0.00    +0.000 S 
ATOM      4  C   UNL     1      -5.284  12.824  21.208  0.00  0.00    +0.000 A 
ATOM      5  N   UNL     1      -5.208  13.600  22.297  0.00  0.00    +0.000 NA
ATOM      6  C   UNL     1      -4.053  14.250  22.380  0.00  0.00    +0.000 A 
ATOM      7  N   UNL     1      -3.052  14.208  21.501  0.00  0.00    +0.000 NA
ATOM      8  C   UNL     1      -3.160  13.440  20.385  0.00  0.00    +0.000 A 
ATOM      9  N   UNL     1      -2.097  13.500  19.473  0.00  0.00    +0.000 N 
ATOM     10  C   UNL     1      -4.336  12.662  20.206  0.00  0.00    +0.000 A 
ATOM     11  C   UNL     1      -4.805  11.669  19.219  0.00  0.00    +0.000 A 
ATOM     12  H   UNL     1      -2.353  13.319  18.511  0.00  0.00    +0.000 HD
ENDROOT
BRANCH   9  13
ATOM     13  C   UNL     1      -0.721  13.628  19.742  0.00  0.00    +0.000 A 
ATOM     14  C   UNL     1      -0.038  12.568  20.347  0.00  0.00    +0.000 A 
ATOM     15  C   UNL     1       1.340  12.622  20.556  0.00  0.00    +0.000 A 
ATOM     16  C   UNL     1       2.061  13.755  20.159  0.00  0.00    +0.000 A 
ATOM     17  C   UNL     1       1.410  14.841  19.570  0.00  0.00    +0.000 A 
ATOM     18  C   UNL     1       0.020  14.756  19.360  0.00  0.00    +0.000 A 
BRANCH  16  19
ATOM     19  O   UNL     1       3.420  13.784  20.342  0.00  0.00    +0.000 OA
ATOM     20  H   UNL     1       3.729  14.705  20.248  0.00  0.00    +0.000 HD
ENDBRANCH  16  19
BRANCH  17  21
ATOM     21  C   UNL     1       2.085  16.106  19.146  0.00  0.00    +0.000 C 
ATOM     22  O   UNL     1       3.227  16.391  19.468  0.00  0.00    +0.000 OA
BRANCH  21  23
ATOM     23  O   UNL     1       1.341  16.918  18.370  0.00  0.00    +0.000 OA
ATOM     24  H   UNL     1       1.888  17.581  17.890  0.00  0.00    +0.000 HD
ENDBRANCH  21  23
ENDBRANCH  17  21
ENDBRANCH   9  13
BRANCH  11  25
ATOM     25  C   UNL     1      -4.081  11.166  18.031  0.00  0.00    +0.000 A 
ATOM     26  C   UNL     1      -2.954  10.344  18.169  0.00  0.00    +0.000 A 
ATOM     27  C   UNL     1      -2.202   9.950  17.055  0.00  0.00    +0.000 A 
ATOM     28  C   UNL     1      -2.626  10.285  15.773  0.00  0.00    +0.000 A 
ATOM     29  C   UNL     1      -3.785  11.035  15.608  0.00  0.00    +0.000 A 
ATOM     30  C   UNL     1      -4.484  11.500  16.728  0.00  0.00    +0.000 A 
ENDBRANCH  11  25
TORSDOF 5
ENDMDL
MODEL 6
REMARK VINA RESULT:      -6.6      8.690     10.531
REMARK  Name = 
REMARK  6 active torsions:
REMARK  status: ('A' for Active; 'I' for Inactive)
REMARK    1  A    between atoms: C_1  and  C_2
REMARK    2  A    between atoms: N_9  and  C_10
REMARK    3  A    between atoms: C_13  and  O_14
REMARK    4  A    between atoms: C_15  and  C_16
REMARK    5  A    between atoms: C_16  and  O_18
REMARK    6  A    between atoms: C_21  and  C_22
REMARK                            x       y       z     vdW  Elec       q    Type
REMARK                         _______ _______ _______ _____ _____    ______ ____
ROOT
ATOM      1  C   UNL     1      11.936  13.475  16.414  0.00  0.00    +0.000 C 
ATOM      2  C   UNL     1      11.149  14.414  17.279  0.00  0.00    +0.000 A 
ATOM      3  S   UNL     1      11.383  16.085  16.995  0.00  0.00    +0.000 S 
ATOM      4  C   UNL     1      10.208  16.521  18.130  0.00  0.00    +0.000 A 
ATOM      5  N   UNL     1       9.921  17.822  18.277  0.00  0.00    +0.000 NA
ATOM      6  C   UNL     1       8.969  18.036  19.176  0.00  0.00    +0.000 A 
ATOM      7  N   UNL     1       8.348  17.114  19.911  0.00  0.00    +0.000 NA
ATOM      8  C   UNL     1       8.674  15.802  19.773  0.00  0.00    +0.000 A 
ATOM      9  N   UNL     1       8.028  14.897  20.628  0.00  0.00    +0.000 N 
ATOM     10  C   UNL     1       9.652  15.443  18.806  0.00  0.00    +0.000 A 
ATOM     11  C   UNL     1      10.218  14.177  18.297  0.00  0.00    +0.000 A 
ATOM     12  H   UNL     1       8.557  14.061  20.839  0.00  0.00    +0.000 HD
ENDROOT
BRANCH   9  13
ATOM     13  C   UNL     1       6.702  14.935  21.098  0.00  0.00    +0.000 A 
ATOM     14  C   UNL     1       5.648  14.979  20.180  0.00  0.00    +0.000 A 
ATOM     15  C   UNL     1       4.319  14.934  20.602  0.00  0.00    +0.000 A 
ATOM     16  C   UNL     1       4.024  14.848  21.968  0.00  0.00    +0.000 A 
ATOM     17  C   UNL     1       5.050  14.822  22.916  0.00  0.00    +0.000 A 
ATOM     18  C   UNL     1       6.383  14.856  22.463  0.00  0.00    +0.000 A 
BRANCH  16  19
ATOM     19  O   UNL     1       2.715  14.774  22.369  0.00  0.00    +0.000 OA
ATOM     20  H   UNL     1       2.691  14.624  23.333  0.00  0.00    +0.000 HD
ENDBRANCH  16  19
BRANCH  17  21
ATOM     21  C   UNL     1       4.837  14.766  24.394  0.00  0.00    +0.000 C 
ATOM     22  O   UNL     1       5.190  13.822  25.082  0.00  0.00    +0.000 OA
BRANCH  21  23
ATOM     23  O   UNL     1       4.227  15.844  24.925  0.00  0.00    +0.000 OA
ATOM     24  H   UNL     1       3.292  15.930  24.627  0.00  0.00    +0.000 HD
ENDBRANCH  21  23
ENDBRANCH  17  21
ENDBRANCH   9  13
BRANCH  11  25
ATOM     25  C   UNL     1       9.863  12.801  18.704  0.00  0.00    +0.000 A 
ATOM     26  C   UNL     1      10.338  12.260  19.906  0.00  0.00    +0.000 A 
ATOM     27  C   UNL     1      10.094  10.925  20.249  0.00  0.00    +0.000 A 
ATOM     28  C   UNL     1       9.280  10.136  19.443  0.00  0.00    +0.000 A 
ATOM     29  C   UNL     1       8.733  10.675  18.284  0.00  0.00    +0.000 A 
ATOM     30  C   UNL     1       9.052  11.982  17.901  0.00  0.00    +0.000 A 
ENDBRANCH  11  25
TORSDOF 5
ENDMDL
MODEL 7
REMARK VINA RESULT:      -6.6      6.954     10.739
REMARK  Name = 
REMARK  6 active torsions:
REMARK  status: ('A' for Active; 'I' for Inactive)
REMARK    1  A    between atoms: C_1  and  C_2
REMARK    2  A    between atoms: N_9  and  C_10
REMARK    3  A    between atoms: C_13  and  O_14
REMARK    4  A    between atoms: C_15  and  C_16
REMARK    5  A    between atoms: C_16  and  O_18
REMARK    6  A    between atoms: C_21  and  C_22
REMARK                            x       y       z     vdW  Elec       q    Type
REMARK                         _______ _______ _______ _____ _____    ______ ____
ROOT
ATOM      1  C   UNL     1      -7.881  12.373  22.029  0.00  0.00    +0.000 C 
ATOM      2  C   UNL     1      -6.443  12.768  22.194  0.00  0.00    +0.000 A 
ATOM      3  S   UNL     1      -5.880  12.933  23.800  0.00  0.00    +0.000 S 
ATOM      4  C   UNL     1      -4.297  13.244  23.295  0.00  0.00    +0.000 A 
ATOM      5  N   UNL     1      -3.352  13.402  24.233  0.00  0.00    +0.000 NA
ATOM      6  C   UNL     1      -2.150  13.617  23.714  0.00  0.00    +0.000 A 
ATOM      7  N   UNL     1      -1.847  13.711  22.419  0.00  0.00    +0.000 NA
ATOM      8  C   UNL     1      -2.823  13.581  21.483  0.00  0.00    +0.000 A 
ATOM      9  N   UNL     1      -2.442  13.761  20.145  0.00  0.00    +0.000 N 
ATOM     10  C   UNL     1      -4.148  13.305  21.915  0.00  0.00    +0.000 A 
ATOM     11  C   UNL     1      -5.437  13.020  21.254  0.00  0.00    +0.000 A 
ATOM     12  H   UNL     1      -3.175  14.103  19.538  0.00  0.00    +0.000 HD
ENDROOT
BRANCH   9  13
ATOM     13  C   UNL     1      -1.235  13.389  19.523  0.00  0.00    +0.000 A 
ATOM     14  C   UNL     1      -0.379  14.381  19.035  0.00  0.00    +0.000 A 
ATOM     15  C   UNL     1       0.862  14.058  18.487  0.00  0.00    +0.000 A 
ATOM     16  C   UNL     1       1.266  12.719  18.415  0.00  0.00    +0.000 A 
ATOM     17  C   UNL     1       0.428  11.699  18.874  0.00  0.00    +0.000 A 
ATOM     18  C   UNL     1      -0.814  12.053  19.434  0.00  0.00    +0.000 A 
BRANCH  16  19
ATOM     19  O   UNL     1       2.501  12.416  17.902  0.00  0.00    +0.000 OA
ATOM     20  H   UNL     1       2.784  13.145  17.317  0.00  0.00    +0.000 HD
ENDBRANCH  16  19
BRANCH  17  21
ATOM     21  C   UNL     1       0.753  10.241  18.808  0.00  0.00    +0.000 C 
ATOM     22  O   UNL     1       1.363   9.737  17.879  0.00  0.00    +0.000 OA
BRANCH  21  23
ATOM     23  O   UNL     1       0.328   9.514  19.860  0.00  0.00    +0.000 OA
ATOM     24  H   UNL     1       1.072   9.083  20.341  0.00  0.00    +0.000 HD
ENDBRANCH  21  23
ENDBRANCH  17  21
ENDBRANCH   9  13
BRANCH  11  25
ATOM     25  C   UNL     1      -5.707  12.931  19.802  0.00  0.00    +0.000 A 
ATOM     26  C   UNL     1      -6.388  13.956  19.133  0.00  0.00    +0.000 A 
ATOM     27  C   UNL     1      -6.739  13.833  17.783  0.00  0.00    +0.000 A 
ATOM     28  C   UNL     1      -6.322  12.726  17.051  0.00  0.00    +0.000 A 
ATOM     29  C   UNL     1      -5.577  11.732  17.676  0.00  0.00    +0.000 A 
ATOM     30  C   UNL     1      -5.304  11.819  19.046  0.00  0.00    +0.000 A 
ENDBRANCH  11  25
TORSDOF 5
ENDMDL
MODEL 8
REMARK VINA RESULT:      -6.5      5.019      8.935
REMARK  Name = 
REMARK  6 active torsions:
REMARK  status: ('A' for Active; 'I' for Inactive)
REMARK    1  A    between atoms: C_1  and  C_2
REMARK    2  A    between atoms: N_9  and  C_10
REMARK    3  A    between atoms: C_13  and  O_14
REMARK    4  A    between atoms: C_15  and  C_16
REMARK    5  A    between atoms: C_16  and  O_18
REMARK    6  A    between atoms: C_21  and  C_22
REMARK                            x       y       z     vdW  Elec       q    Type
REMARK                         _______ _______ _______ _____ _____    ______ ____
ROOT
ATOM      1  C   UNL     1      -1.121  16.876  21.092  0.00  0.00    +0.000 C 
ATOM      2  C   UNL     1      -0.326  15.832  20.363  0.00  0.00    +0.000 A 
ATOM      3  S   UNL     1       0.958  16.402  19.386  0.00  0.00    +0.000 S 
ATOM      4  C   UNL     1       1.457  14.834  18.994  0.00  0.00    +0.000 A 
ATOM      5  N   UNL     1       2.553  14.690  18.237  0.00  0.00    +0.000 NA
ATOM      6  C   UNL     1       2.857  13.416  18.018  0.00  0.00    +0.000 A 
ATOM      7  N   UNL     1       2.176  12.352  18.443  0.00  0.00    +0.000 NA
ATOM      8  C   UNL     1       1.048  12.518  19.182  0.00  0.00    +0.000 A 
ATOM      9  N   UNL     1       0.348  11.355  19.535  0.00  0.00    +0.000 N 
ATOM     10  C   UNL     1       0.644  13.838  19.520  0.00  0.00    +0.000 A 
ATOM     11  C   UNL     1      -0.427  14.437  20.341  0.00  0.00    +0.000 A 
ATOM     12  H   UNL     1      -0.647  11.482  19.665  0.00  0.00    +0.000 HD
ENDROOT
BRANCH   9  13
ATOM     13  C   UNL     1       0.867  10.091  19.871  0.00  0.00    +0.000 A 
ATOM     14  C   UNL     1       0.690   9.598  21.168  0.00  0.00    +0.000 A 
ATOM     15  C   UNL     1       1.116   8.317  21.519  0.00  0.00    +0.000 A 
ATOM     16  C   UNL     1       1.739   7.504  20.564  0.00  0.00    +0.000 A 
ATOM     17  C   UNL     1       1.951   7.969  19.264  0.00  0.00    +0.000 A 
ATOM     18  C   UNL     1       1.500   9.261  18.932  0.00  0.00    +0.000 A 
BRANCH  16  19
ATOM     19  O   UNL     1       2.127   6.236  20.913  0.00  0.00    +0.000 OA
ATOM     20  H   UNL     1       3.048   6.099  20.623  0.00  0.00    +0.000 HD
ENDBRANCH  16  19
BRANCH  17  21
ATOM     21  C   UNL     1       2.637   7.192  18.187  0.00  0.00    +0.000 C 
ATOM     22  O   UNL     1       3.474   7.680  17.445  0.00  0.00    +0.000 OA
BRANCH  21  23
ATOM     23  O   UNL     1       2.268   5.899  18.092  0.00  0.00    +0.000 OA
ATOM     24  H   UNL     1       1.497   5.687  18.667  0.00  0.00    +0.000 HD
ENDBRANCH  21  23
ENDBRANCH  17  21
ENDBRANCH   9  13
BRANCH  11  25
ATOM     25  C   UNL     1      -1.469  13.733  21.119  0.00  0.00    +0.000 A 
ATOM     26  C   UNL     1      -2.776  13.612  20.627  0.00  0.00    +0.000 A 
ATOM     27  C   UNL     1      -3.793  13.040  21.401  0.00  0.00    +0.000 A 
ATOM     28  C   UNL     1      -3.496  12.484  22.641  0.00  0.00    +0.000 A 
ATOM     29  C   UNL     1      -2.190  12.522  23.116  0.00  0.00    +0.000 A 
ATOM     30  C   UNL     1      -1.196  13.173  22.377  0.00  0.00    +0.000 A 
ENDBRANCH  11  25
TORSDOF 5
ENDMDL
MODEL 9
REMARK VINA RESULT:      -6.5      7.586      9.931
REMARK  Name = 
REMARK  6 active torsions:
REMARK  status: ('A' for Active; 'I' for Inactive)
REMARK    1  A    between atoms: C_1  and  C_2
REMARK    2  A    between atoms: N_9  and  C_10
REMARK    3  A    between atoms: C_13  and  O_14
REMARK    4  A    between atoms: C_15  and  C_16
REMARK    5  A    between atoms: C_16  and  O_18
REMARK    6  A    between atoms: C_21  and  C_22
REMARK                            x       y       z     vdW  Elec       q    Type
REMARK                         _______ _______ _______ _____ _____    ______ ____
ROOT
ATOM      1  C   UNL     1      -7.105  12.971  20.293  0.00  0.00    +0.000 C 
ATOM      2  C   UNL     1      -5.906  12.466  19.546  0.00  0.00    +0.000 A 
ATOM      3  S   UNL     1      -6.216  11.656  18.072  0.00  0.00    +0.000 S 
ATOM      4  C   UNL     1      -4.568  11.481  17.732  0.00  0.00    +0.000 A 
ATOM      5  N   UNL     1      -4.218  10.918  16.568  0.00  0.00    +0.000 NA
ATOM      6  C   UNL     1      -2.902  10.858  16.406  0.00  0.00    +0.000 A 
ATOM      7  N   UNL     1      -1.975  11.261  17.275  0.00  0.00    +0.000 NA
ATOM      8  C   UNL     1      -2.348  11.799  18.466  0.00  0.00    +0.000 A 
ATOM      9  N   UNL     1      -1.318  12.136  19.357  0.00  0.00    +0.000 N 
ATOM     10  C   UNL     1      -3.734  11.957  18.736  0.00  0.00    +0.000 A 
ATOM     11  C   UNL     1      -4.537  12.547  19.826  0.00  0.00    +0.000 A 
ATOM     12  H   UNL     1      -1.575  12.099  20.334  0.00  0.00    +0.000 HD
ENDROOT
BRANCH   9  13
ATOM     13  C   UNL     1      -0.044  12.656  19.062  0.00  0.00    +0.000 A 
ATOM     14  C   UNL     1       1.004  11.779  18.765  0.00  0.00    +0.000 A 
ATOM     15  C   UNL     1       2.260  12.255  18.388  0.00  0.00    +0.000 A 
ATOM     16  C   UNL     1       2.487  13.634  18.306  0.00  0.00    +0.000 A 
ATOM     17  C   UNL     1       1.470  14.541  18.615  0.00  0.00    +0.000 A 
ATOM     18  C   UNL     1       0.208  14.034  18.981  0.00  0.00    +0.000 A 
BRANCH  16  19
ATOM     19  O   UNL     1       3.716  14.090  17.905  0.00  0.00    +0.000 OA
ATOM     20  H   UNL     1       3.808  15.023  18.175  0.00  0.00    +0.000 HD
ENDBRANCH  16  19
BRANCH  17  21
ATOM     21  C   UNL     1       1.624  16.028  18.592  0.00  0.00    +0.000 C 
ATOM     22  O   UNL     1       2.484  16.597  17.940  0.00  0.00    +0.000 OA
BRANCH  21  23
ATOM     23  O   UNL     1       0.733  16.706  19.342  0.00  0.00    +0.000 OA
ATOM     24  H   UNL     1      -0.178  16.664  18.971  0.00  0.00    +0.000 HD
ENDBRANCH  21  23
ENDBRANCH  17  21
ENDBRANCH   9  13
BRANCH  11  25
ATOM     25  C   UNL     1      -4.045  13.211  21.052  0.00  0.00    +0.000 A 
ATOM     26  C   UNL     1      -3.972  12.515  22.267  0.00  0.00    +0.000 A 
ATOM     27  C   UNL     1      -3.607  13.163  23.454  0.00  0.00    +0.000 A 
ATOM     28  C   UNL     1      -3.208  14.495  23.427  0.00  0.00    +0.000 A 
ATOM     29  C   UNL     1      -3.198  15.184  22.219  0.00  0.00    +0.000 A 
ATOM     30  C   UNL     1      -3.647  14.557  21.051  0.00  0.00    +0.000 A 
ENDBRANCH  11  25
TORSDOF 5
ENDMDL
