MODEL 1
REMARK VINA RESULT:      -8.6      0.000      0.000
REMARK  Name = 
REMARK  7 active torsions:
REMARK  status: ('A' for Active; 'I' for Inactive)
REMARK    1  A    between atoms: C_1  and  N_2
REMARK    2  A    between atoms: C_6  and  C_7
REMARK    3  A    between atoms: C_13  and  O_14
REMARK    4  A    between atoms: O_14  and  C_15
REMARK    5  A    between atoms: C_19  and  S_20
REMARK    6  A    between atoms: S_20  and  N_23
REMARK    7  A    between atoms: N_23  and  C_24
REMARK                            x       y       z     vdW  Elec       q    Type
REMARK                         _______ _______ _______ _____ _____    ______ ____
ROOT
ATOM      1  C   UNL     1       2.271   7.454  19.752  0.00  0.00    +0.000 A 
ATOM      2  C   UNL     1       1.460   7.839  20.825  0.00  0.00    +0.000 A 
ATOM      3  C   UNL     1       0.672   8.986  20.735  0.00  0.00    +0.000 A 
ATOM      4  F   UNL     1      -0.066   9.324  21.799  0.00  0.00    +0.000 F 
ATOM      5  C   UNL     1       0.628   9.719  19.558  0.00  0.00    +0.000 A 
ATOM      6  C   UNL     1       1.438   9.351  18.475  0.00  0.00    +0.000 A 
ATOM      7  C   UNL     1       2.253   8.221  18.580  0.00  0.00    +0.000 A 
ATOM      8 CL   UNL     1       3.237   7.816  17.214  0.00  0.00    +0.000 Cl
ENDROOT
BRANCH   5   9
ATOM      9  S   UNL     1      -0.465  11.098  19.394  0.00  0.00    +0.000 S 
ATOM     10  O   UNL     1      -1.766  10.638  18.964  0.00  0.00    +0.000 OA
ATOM     11  O   UNL     1      -0.321  11.883  20.604  0.00  0.00    +0.000 OA
BRANCH   9  12
ATOM     12  N   UNL     1       0.261  12.007  18.158  0.00  0.00    +0.000 N 
ATOM     13  H   UNL     1      -0.472  12.291  17.507  0.00  0.00    +0.000 HD
BRANCH  12  14
ATOM     14  C   UNL     1       1.083  13.066  18.535  0.00  0.00    +0.000 A 
ATOM     15  C   UNL     1       2.443  12.997  18.742  0.00  0.00    +0.000 A 
ATOM     16  S   UNL     1       3.042  14.539  19.194  0.00  0.00    +0.000 S 
ATOM     17  C   UNL     1       1.449  15.162  19.068  0.00  0.00    +0.000 A 
ATOM     18  N   UNL     1       0.522  14.313  18.679  0.00  0.00    +0.000 NA
ENDBRANCH  12  14
ENDBRANCH   9  12
ENDBRANCH   5   9
BRANCH   1  19
ATOM     19  O   UNL     1       3.028   6.298  19.775  0.00  0.00    +0.000 OA
BRANCH  19  26
ATOM     20  C   UNL     1       2.946   4.262  18.471  0.00  0.00    +0.000 A 
ATOM     21  C   UNL     1       2.237   3.073  18.187  0.00  0.00    +0.000 A 
ATOM     22  C   UNL     1       1.124   2.689  18.928  0.00  0.00    +0.000 A 
ATOM     23  F   UNL     1       0.472   1.566  18.603  0.00  0.00    +0.000 F 
ATOM     24  C   UNL     1       0.700   3.436  20.008  0.00  0.00    +0.000 A 
ATOM     25  C   UNL     1       1.377   4.611  20.320  0.00  0.00    +0.000 A 
ATOM     26  C   UNL     1       2.445   5.072  19.518  0.00  0.00    +0.000 A 
BRANCH  20  32
ATOM     27  C   UNL     1       5.954   5.092  19.365  0.00  0.00    +0.000 C 
ATOM     28  N   UNL     1       5.440   4.831  18.043  0.00  0.00    +0.000 N 
ATOM     29  N   UNL     1       6.343   4.851  17.037  0.00  0.00    +0.000 NA
ATOM     30  C   UNL     1       5.640   4.535  15.958  0.00  0.00    +0.000 A 
ATOM     31  C   UNL     1       4.284   4.352  16.259  0.00  0.00    +0.000 A 
ATOM     32  C   UNL     1       4.151   4.522  17.637  0.00  0.00    +0.000 A 
ENDBRANCH  20  32
ENDBRANCH  19  26
ENDBRANCH   1  19
TORSDOF 6
ENDMDL
MODEL 2
REMARK VINA RESULT:      -8.4      2.992      4.356
REMARK  Name = 
REMARK  7 active torsions:
REMARK  status: ('A' for Active; 'I' for Inactive)
REMARK    1  A    between atoms: C_1  and  N_2
REMARK    2  A    between atoms: C_6  and  C_7
REMARK    3  A    between atoms: C_13  and  O_14
REMARK    4  A    between atoms: O_14  and  C_15
REMARK    5  A    between atoms: C_19  and  S_20
REMARK    6  A    between atoms: S_20  and  N_23
REMARK    7  A    between atoms: N_23  and  C_24
REMARK                            x       y       z     vdW  Elec       q    Type
REMARK                         _______ _______ _______ _____ _____    ______ ____
ROOT
ATOM      1  C   UNL     1       3.318   6.889  18.840  0.00  0.00    +0.000 A 
ATOM      2  C   UNL     1       3.277   7.996  17.985  0.00  0.00    +0.000 A 
ATOM      3  C   UNL     1       2.288   8.968  18.139  0.00  0.00    +0.000 A 
ATOM      4  F   UNL     1       2.278   9.993  17.280  0.00  0.00    +0.000 F 
ATOM      5  C   UNL     1       1.378   8.885  19.183  0.00  0.00    +0.000 A 
ATOM      6  C   UNL     1       1.400   7.780  20.045  0.00  0.00    +0.000 A 
ATOM      7  C   UNL     1       2.370   6.790  19.867  0.00  0.00    +0.000 A 
ATOM      8 CL   UNL     1       2.349   5.445  20.957  0.00  0.00    +0.000 Cl
ENDROOT
BRANCH   5   9
ATOM      9  S   UNL     1       0.204  10.177  19.460  0.00  0.00    +0.000 S 
ATOM     10  O   UNL     1      -0.745   9.763  20.469  0.00  0.00    +0.000 OA
ATOM     11  O   UNL     1       0.967  11.399  19.621  0.00  0.00    +0.000 OA
BRANCH   9  12
ATOM     12  N   UNL     1      -0.574  10.306  17.958  0.00  0.00    +0.000 N 
ATOM     13  H   UNL     1      -0.346   9.473  17.415  0.00  0.00    +0.000 HD
BRANCH  12  14
ATOM     14  C   UNL     1      -1.938  10.587  17.961  0.00  0.00    +0.000 A 
ATOM     15  C   UNL     1      -2.517  11.776  18.349  0.00  0.00    +0.000 A 
ATOM     16  S   UNL     1      -4.220  11.674  18.191  0.00  0.00    +0.000 S 
ATOM     17  C   UNL     1      -4.042  10.069  17.614  0.00  0.00    +0.000 A 
ATOM     18  N   UNL     1      -2.807   9.626  17.499  0.00  0.00    +0.000 NA
ENDBRANCH  12  14
ENDBRANCH   9  12
ENDBRANCH   5   9
BRANCH   1  19
ATOM     19  O   UNL     1       4.309   5.930  18.759  0.00  0.00    +0.000 OA
BRANCH  19  26
ATOM     20  C   UNL     1       4.072   4.132  17.157  0.00  0.00    +0.000 A 
ATOM     21  C   UNL     1       4.542   3.559  15.954  0.00  0.00    +0.000 A 
ATOM     22  C   UNL     1       5.489   4.196  15.158  0.00  0.00    +0.000 A 
ATOM     23  F   UNL     1       5.919   3.598  14.040  0.00  0.00    +0.000 F 
ATOM     24  C   UNL     1       5.970   5.445  15.493  0.00  0.00    +0.000 A 
ATOM     25  C   UNL     1       5.527   6.043  16.669  0.00  0.00    +0.000 A 
ATOM     26  C   UNL     1       4.645   5.368  17.542  0.00  0.00    +0.000 A 
BRANCH  20  32
ATOM     27  C   UNL     1       4.319   2.153  19.718  0.00  0.00    +0.000 C 
ATOM     28  N   UNL     1       3.138   2.566  19.000  0.00  0.00    +0.000 N 
ATOM     29  N   UNL     1       1.957   2.143  19.503  0.00  0.00    +0.000 NA
ATOM     30  C   UNL     1       1.047   2.692  18.710  0.00  0.00    +0.000 A 
ATOM     31  C   UNL     1       1.638   3.431  17.678  0.00  0.00    +0.000 A 
ATOM     32  C   UNL     1       3.017   3.371  17.879  0.00  0.00    +0.000 A 
ENDBRANCH  20  32
ENDBRANCH  19  26
ENDBRANCH   1  19
TORSDOF 6
ENDMDL
MODEL 3
REMARK VINA RESULT:      -8.3      2.225      3.122
REMARK  Name = 
REMARK  7 active torsions:
REMARK  status: ('A' for Active; 'I' for Inactive)
REMARK    1  A    between atoms: C_1  and  N_2
REMARK    2  A    between atoms: C_6  and  C_7
REMARK    3  A    between atoms: C_13  and  O_14
REMARK    4  A    between atoms: O_14  and  C_15
REMARK    5  A    between atoms: C_19  and  S_20
REMARK    6  A    between atoms: S_20  and  N_23
REMARK    7  A    between atoms: N_23  and  C_24
REMARK                            x       y       z     vdW  Elec       q    Type
REMARK                         _______ _______ _______ _____ _____    ______ ____
ROOT
ATOM      1  C   UNL     1       2.431   7.487  19.735  0.00  0.00    +0.000 A 
ATOM      2  C   UNL     1       1.564   7.777  20.795  0.00  0.00    +0.000 A 
ATOM      3  C   UNL     1       0.627   8.804  20.676  0.00  0.00    +0.000 A 
ATOM      4  F   UNL     1      -0.161   9.058  21.727  0.00  0.00    +0.000 F 
ATOM      5  C   UNL     1       0.496   9.502  19.484  0.00  0.00    +0.000 A 
ATOM      6  C   UNL     1       1.359   9.228  18.414  0.00  0.00    +0.000 A 
ATOM      7  C   UNL     1       2.320   8.223  18.548  0.00  0.00    +0.000 A 
ATOM      8 CL   UNL     1       3.363   7.930  17.197  0.00  0.00    +0.000 Cl
ENDROOT
BRANCH   5   9
ATOM      9  S   UNL     1      -0.774  10.716  19.285  0.00  0.00    +0.000 S 
ATOM     10  O   UNL     1      -1.101  11.290  20.570  0.00  0.00    +0.000 OA
ATOM     11  O   UNL     1      -0.366  11.560  18.180  0.00  0.00    +0.000 OA
BRANCH   9  12
ATOM     12  N   UNL     1      -2.083   9.799  18.715  0.00  0.00    +0.000 N 
ATOM     13  H   UNL     1      -2.734   9.667  19.489  0.00  0.00    +0.000 HD
BRANCH  12  14
ATOM     14  C   UNL     1      -2.714  10.232  17.552  0.00  0.00    +0.000 A 
ATOM     15  C   UNL     1      -2.447   9.789  16.275  0.00  0.00    +0.000 A 
ATOM     16  S   UNL     1      -3.461  10.597  15.153  0.00  0.00    +0.000 S 
ATOM     17  C   UNL     1      -4.170  11.456  16.457  0.00  0.00    +0.000 A 
ATOM     18  N   UNL     1      -3.730  11.154  17.660  0.00  0.00    +0.000 NA
ENDBRANCH  12  14
ENDBRANCH   9  12
ENDBRANCH   5   9
BRANCH   1  19
ATOM     19  O   UNL     1       3.338   6.446  19.787  0.00  0.00    +0.000 OA
BRANCH  19  26
ATOM     20  C   UNL     1       4.052   4.629  18.357  0.00  0.00    +0.000 A 
ATOM     21  C   UNL     1       3.671   3.462  17.659  0.00  0.00    +0.000 A 
ATOM     22  C   UNL     1       2.400   2.912  17.788  0.00  0.00    +0.000 A 
ATOM     23  F   UNL     1       2.080   1.818  17.084  0.00  0.00    +0.000 F 
ATOM     24  C   UNL     1       1.474   3.464  18.649  0.00  0.00    +0.000 A 
ATOM     25  C   UNL     1       1.815   4.612  19.357  0.00  0.00    +0.000 A 
ATOM     26  C   UNL     1       3.063   5.244  19.163  0.00  0.00    +0.000 A 
BRANCH  20  32
ATOM     27  C   UNL     1       5.616   5.513  15.654  0.00  0.00    +0.000 C 
ATOM     28  N   UNL     1       6.095   5.491  17.014  0.00  0.00    +0.000 N 
ATOM     29  N   UNL     1       7.339   5.982  17.215  0.00  0.00    +0.000 NA
ATOM     30  C   UNL     1       7.515   5.901  18.527  0.00  0.00    +0.000 A 
ATOM     31  C   UNL     1       6.409   5.324  19.164  0.00  0.00    +0.000 A 
ATOM     32  C   UNL     1       5.459   5.075  18.173  0.00  0.00    +0.000 A 
ENDBRANCH  20  32
ENDBRANCH  19  26
ENDBRANCH   1  19
TORSDOF 6
ENDMDL
MODEL 4
REMARK VINA RESULT:      -8.3      1.786      2.676
REMARK  Name = 
REMARK  7 active torsions:
REMARK  status: ('A' for Active; 'I' for Inactive)
REMARK    1  A    between atoms: C_1  and  N_2
REMARK    2  A    between atoms: C_6  and  C_7
REMARK    3  A    between atoms: C_13  and  O_14
REMARK    4  A    between atoms: O_14  and  C_15
REMARK    5  A    between atoms: C_19  and  S_20
REMARK    6  A    between atoms: S_20  and  N_23
REMARK    7  A    between atoms: N_23  and  C_24
REMARK                            x       y       z     vdW  Elec       q    Type
REMARK                         _______ _______ _______ _____ _____    ______ ____
ROOT
ATOM      1  C   UNL     1       2.444   7.334  19.740  0.00  0.00    +0.000 A 
ATOM      2  C   UNL     1       1.707   7.764  20.849  0.00  0.00    +0.000 A 
ATOM      3  C   UNL     1       0.980   8.953  20.793  0.00  0.00    +0.000 A 
ATOM      4  F   UNL     1       0.313   9.332  21.889  0.00  0.00    +0.000 F 
ATOM      5  C   UNL     1       0.922   9.686  19.617  0.00  0.00    +0.000 A 
ATOM      6  C   UNL     1       1.658   9.274  18.497  0.00  0.00    +0.000 A 
ATOM      7  C   UNL     1       2.413   8.101  18.568  0.00  0.00    +0.000 A 
ATOM      8 CL   UNL     1       3.308   7.640  17.158  0.00  0.00    +0.000 Cl
ENDROOT
BRANCH   5   9
ATOM      9  S   UNL     1      -0.099  11.125  19.500  0.00  0.00    +0.000 S 
ATOM     10  O   UNL     1      -1.205  11.010  20.423  0.00  0.00    +0.000 OA
ATOM     11  O   UNL     1       0.792  12.267  19.552  0.00  0.00    +0.000 OA
BRANCH   9  12
ATOM     12  N   UNL     1      -0.672  11.050  17.904  0.00  0.00    +0.000 N 
ATOM     13  H   UNL     1      -0.107  10.366  17.401  0.00  0.00    +0.000 HD
BRANCH  12  14
ATOM     14  C   UNL     1      -2.038  10.856  17.719  0.00  0.00    +0.000 A 
ATOM     15  C   UNL     1      -3.013  11.825  17.825  0.00  0.00    +0.000 A 
ATOM     16  S   UNL     1      -4.553  11.138  17.518  0.00  0.00    +0.000 S 
ATOM     17  C   UNL     1      -3.794   9.621  17.263  0.00  0.00    +0.000 A 
ATOM     18  N   UNL     1      -2.481   9.606  17.354  0.00  0.00    +0.000 NA
ENDBRANCH  12  14
ENDBRANCH   9  12
ENDBRANCH   5   9
BRANCH   1  19
ATOM     19  O   UNL     1       3.135   6.137  19.731  0.00  0.00    +0.000 OA
BRANCH  19  26
ATOM     20  C   UNL     1       2.938   4.120  18.411  0.00  0.00    +0.000 A 
ATOM     21  C   UNL     1       2.160   2.978  18.115  0.00  0.00    +0.000 A 
ATOM     22  C   UNL     1       1.023   2.655  18.848  0.00  0.00    +0.000 A 
ATOM     23  F   UNL     1       0.306   1.576  18.512  0.00  0.00    +0.000 F 
ATOM     24  C   UNL     1       0.639   3.419  19.932  0.00  0.00    +0.000 A 
ATOM     25  C   UNL     1       1.384   4.549  20.256  0.00  0.00    +0.000 A 
ATOM     26  C   UNL     1       2.481   4.951  19.462  0.00  0.00    +0.000 A 
BRANCH  20  32
ATOM     27  C   UNL     1       5.957   4.898  19.313  0.00  0.00    +0.000 C 
ATOM     28  N   UNL     1       5.452   4.601  17.996  0.00  0.00    +0.000 N 
ATOM     29  N   UNL     1       6.368   4.557  17.002  0.00  0.00    +0.000 NA
ATOM     30  C   UNL     1       5.669   4.219  15.926  0.00  0.00    +0.000 A 
ATOM     31  C   UNL     1       4.305   4.086  16.215  0.00  0.00    +0.000 A 
ATOM     32  C   UNL     1       4.160   4.313  17.584  0.00  0.00    +0.000 A 
ENDBRANCH  20  32
ENDBRANCH  19  26
ENDBRANCH   1  19
TORSDOF 6
ENDMDL
MODEL 5
REMARK VINA RESULT:      -8.2      0.795      1.364
REMARK  Name = 
REMARK  7 active torsions:
REMARK  status: ('A' for Active; 'I' for Inactive)
REMARK    1  A    between atoms: C_1  and  N_2
REMARK    2  A    between atoms: C_6  and  C_7
REMARK    3  A    between atoms: C_13  and  O_14
REMARK    4  A    between atoms: O_14  and  C_15
REMARK    5  A    between atoms: C_19  and  S_20
REMARK    6  A    between atoms: S_20  and  N_23
REMARK    7  A    between atoms: N_23  and  C_24
REMARK                            x       y       z     vdW  Elec       q    Type
REMARK                         _______ _______ _______ _____ _____    ______ ____
ROOT
ATOM      1  C   UNL     1       2.149   7.574  20.005  0.00  0.00    +0.000 A 
ATOM      2  C   UNL     1       1.261   7.997  21.001  0.00  0.00    +0.000 A 
ATOM      3  C   UNL     1       0.400   9.069  20.767  0.00  0.00    +0.000 A 
ATOM      4  F   UNL     1      -0.411   9.450  21.761  0.00  0.00    +0.000 F 
ATOM      5  C   UNL     1       0.364   9.683  19.524  0.00  0.00    +0.000 A 
ATOM      6  C   UNL     1       1.250   9.277  18.516  0.00  0.00    +0.000 A 
ATOM      7  C   UNL     1       2.136   8.226  18.764  0.00  0.00    +0.000 A 
ATOM      8 CL   UNL     1       3.211   7.768  17.487  0.00  0.00    +0.000 Cl
ENDROOT
BRANCH   5   9
ATOM      9  S   UNL     1      -0.813  10.957  19.182  0.00  0.00    +0.000 S 
ATOM     10  O   UNL     1      -1.970  10.387  18.530  0.00  0.00    +0.000 OA
ATOM     11  O   UNL     1      -0.956  11.724  20.403  0.00  0.00    +0.000 OA
BRANCH   9  12
ATOM     12  N   UNL     1       0.023  11.958  18.096  0.00  0.00    +0.000 N 
ATOM     13  H   UNL     1      -0.625  12.227  17.355  0.00  0.00    +0.000 HD
BRANCH  12  14
ATOM     14  C   UNL     1       0.715  13.046  18.624  0.00  0.00    +0.000 A 
ATOM     15  C   UNL     1       0.218  14.322  18.777  0.00  0.00    +0.000 A 
ATOM     16  S   UNL     1       1.417  15.335  19.465  0.00  0.00    +0.000 S 
ATOM     17  C   UNL     1       2.485  13.994  19.508  0.00  0.00    +0.000 A 
ATOM     18  N   UNL     1       1.996  12.848  19.083  0.00  0.00    +0.000 NA
ENDBRANCH  12  14
ENDBRANCH   9  12
ENDBRANCH   5   9
BRANCH   1  19
ATOM     19  O   UNL     1       2.982   6.484  20.172  0.00  0.00    +0.000 OA
BRANCH  19  26
ATOM     20  C   UNL     1       3.375   4.373  19.059  0.00  0.00    +0.000 A 
ATOM     21  C   UNL     1       2.830   3.130  18.664  0.00  0.00    +0.000 A 
ATOM     22  C   UNL     1       1.559   2.728  19.063  0.00  0.00    +0.000 A 
ATOM     23  F   UNL     1       1.078   1.552  18.642  0.00  0.00    +0.000 F 
ATOM     24  C   UNL     1       0.800   3.513  19.907  0.00  0.00    +0.000 A 
ATOM     25  C   UNL     1       1.307   4.742  20.320  0.00  0.00    +0.000 A 
ATOM     26  C   UNL     1       2.550   5.214  19.843  0.00  0.00    +0.000 A 
BRANCH  20  32
ATOM     27  C   UNL     1       4.654   4.282  16.077  0.00  0.00    +0.000 C 
ATOM     28  N   UNL     1       5.281   4.650  17.322  0.00  0.00    +0.000 N 
ATOM     29  N   UNL     1       6.553   5.101  17.239  0.00  0.00    +0.000 NA
ATOM     30  C   UNL     1       6.872   5.416  18.488  0.00  0.00    +0.000 A 
ATOM     31  C   UNL     1       5.827   5.133  19.376  0.00  0.00    +0.000 A 
ATOM     32  C   UNL     1       4.766   4.651  18.609  0.00  0.00    +0.000 A 
ENDBRANCH  20  32
ENDBRANCH  19  26
ENDBRANCH   1  19
TORSDOF 6
ENDMDL
MODEL 6
REMARK VINA RESULT:      -8.2      2.976      4.121
REMARK  Name = 
REMARK  7 active torsions:
REMARK  status: ('A' for Active; 'I' for Inactive)
REMARK    1  A    between atoms: C_1  and  N_2
REMARK    2  A    between atoms: C_6  and  C_7
REMARK    3  A    between atoms: C_13  and  O_14
REMARK    4  A    between atoms: O_14  and  C_15
REMARK    5  A    between atoms: C_19  and  S_20
REMARK    6  A    between atoms: S_20  and  N_23
REMARK    7  A    between atoms: N_23  and  C_24
REMARK                            x       y       z     vdW  Elec       q    Type
REMARK                         _______ _______ _______ _____ _____    ______ ____
ROOT
ATOM      1  C   UNL     1       3.022   7.133  18.877  0.00  0.00    +0.000 A 
ATOM      2  C   UNL     1       3.037   8.192  17.962  0.00  0.00    +0.000 A 
ATOM      3  C   UNL     1       2.086   9.209  18.047  0.00  0.00    +0.000 A 
ATOM      4  F   UNL     1       2.128  10.184  17.132  0.00  0.00    +0.000 F 
ATOM      5  C   UNL     1       1.159   9.220  19.079  0.00  0.00    +0.000 A 
ATOM      6  C   UNL     1       1.126   8.165  20.002  0.00  0.00    +0.000 A 
ATOM      7  C   UNL     1       2.058   7.130  19.894  0.00  0.00    +0.000 A 
ATOM      8 CL   UNL     1       1.969   5.850  21.056  0.00  0.00    +0.000 Cl
ENDROOT
BRANCH   5   9
ATOM      9  S   UNL     1       0.034  10.571  19.266  0.00  0.00    +0.000 S 
ATOM     10  O   UNL     1       0.754  11.820  19.160  0.00  0.00    +0.000 OA
ATOM     11  O   UNL     1      -1.093  10.291  18.399  0.00  0.00    +0.000 OA
BRANCH   9  12
ATOM     12  N   UNL     1      -0.535  10.368  20.853  0.00  0.00    +0.000 N 
ATOM     13  H   UNL     1       0.201   9.914  21.393  0.00  0.00    +0.000 HD
BRANCH  12  14
ATOM     14  C   UNL     1      -1.060  11.486  21.496  0.00  0.00    +0.000 A 
ATOM     15  C   UNL     1      -2.129  12.240  21.062  0.00  0.00    +0.000 A 
ATOM     16  S   UNL     1      -2.426  13.518  22.164  0.00  0.00    +0.000 S 
ATOM     17  C   UNL     1      -1.120  12.957  23.123  0.00  0.00    +0.000 A 
ATOM     18  N   UNL     1      -0.511  11.870  22.697  0.00  0.00    +0.000 NA
ENDBRANCH  12  14
ENDBRANCH   9  12
ENDBRANCH   5   9
BRANCH   1  19
ATOM     19  O   UNL     1       3.975   6.133  18.865  0.00  0.00    +0.000 OA
BRANCH  19  26
ATOM     20  C   UNL     1       3.875   4.252  17.347  0.00  0.00    +0.000 A 
ATOM     21  C   UNL     1       4.391   3.659  16.172  0.00  0.00    +0.000 A 
ATOM     22  C   UNL     1       5.295   4.324  15.351  0.00  0.00    +0.000 A 
ATOM     23  F   UNL     1       5.773   3.707  14.263  0.00  0.00    +0.000 F 
ATOM     24  C   UNL     1       5.685   5.618  15.629  0.00  0.00    +0.000 A 
ATOM     25  C   UNL     1       5.195   6.236  16.775  0.00  0.00    +0.000 A 
ATOM     26  C   UNL     1       4.357   5.542  17.676  0.00  0.00    +0.000 A 
BRANCH  20  32
ATOM     27  C   UNL     1       4.280   2.253  19.871  0.00  0.00    +0.000 C 
ATOM     28  N   UNL     1       3.060   2.639  19.206  0.00  0.00    +0.000 N 
ATOM     29  N   UNL     1       1.912   2.176  19.750  0.00  0.00    +0.000 NA
ATOM     30  C   UNL     1       0.956   2.707  18.999  0.00  0.00    +0.000 A 
ATOM     31  C   UNL     1       1.484   3.474  17.953  0.00  0.00    +0.000 A 
ATOM     32  C   UNL     1       2.872   3.453  18.100  0.00  0.00    +0.000 A 
ENDBRANCH  20  32
ENDBRANCH  19  26
ENDBRANCH   1  19
TORSDOF 6
ENDMDL
MODEL 7
REMARK VINA RESULT:      -8.1      1.928      2.399
REMARK  Name = 
REMARK  7 active torsions:
REMARK  status: ('A' for Active; 'I' for Inactive)
REMARK    1  A    between atoms: C_1  and  N_2
REMARK    2  A    between atoms: C_6  and  C_7
REMARK    3  A    between atoms: C_13  and  O_14
REMARK    4  A    between atoms: O_14  and  C_15
REMARK    5  A    between atoms: C_19  and  S_20
REMARK    6  A    between atoms: S_20  and  N_23
REMARK    7  A    between atoms: N_23  and  C_24
REMARK                            x       y       z     vdW  Elec       q    Type
REMARK                         _______ _______ _______ _____ _____    ______ ____
ROOT
ATOM      1  C   UNL     1       2.323   7.373  19.776  0.00  0.00    +0.000 A 
ATOM      2  C   UNL     1       1.525   7.739  20.865  0.00  0.00    +0.000 A 
ATOM      3  C   UNL     1       0.756   8.902  20.815  0.00  0.00    +0.000 A 
ATOM      4  F   UNL     1       0.030   9.220  21.893  0.00  0.00    +0.000 F 
ATOM      5  C   UNL     1       0.718   9.670  19.660  0.00  0.00    +0.000 A 
ATOM      6  C   UNL     1       1.515   9.321  18.561  0.00  0.00    +0.000 A 
ATOM      7  C   UNL     1       2.311   8.175  18.627  0.00  0.00    +0.000 A 
ATOM      8 CL   UNL     1       3.279   7.794  17.244  0.00  0.00    +0.000 Cl
ENDROOT
BRANCH   5   9
ATOM      9  S   UNL     1      -0.352  11.073  19.545  0.00  0.00    +0.000 S 
ATOM     10  O   UNL     1       0.110  11.950  18.493  0.00  0.00    +0.000 OA
ATOM     11  O   UNL     1      -1.706  10.557  19.537  0.00  0.00    +0.000 OA
BRANCH   9  12
ATOM     12  N   UNL     1      -0.147  11.825  21.052  0.00  0.00    +0.000 N 
ATOM     13  H   UNL     1       0.534  12.576  20.937  0.00  0.00    +0.000 HD
BRANCH  12  14
ATOM     14  C   UNL     1      -1.293  12.239  21.726  0.00  0.00    +0.000 A 
ATOM     15  C   UNL     1      -1.768  11.715  22.909  0.00  0.00    +0.000 A 
ATOM     16  S   UNL     1      -3.205  12.527  23.370  0.00  0.00    +0.000 S 
ATOM     17  C   UNL     1      -3.068  13.507  21.969  0.00  0.00    +0.000 A 
ATOM     18  N   UNL     1      -2.012  13.293  21.212  0.00  0.00    +0.000 NA
ENDBRANCH  12  14
ENDBRANCH   9  12
ENDBRANCH   5   9
BRANCH   1  19
ATOM     19  O   UNL     1       3.059   6.203  19.759  0.00  0.00    +0.000 OA
BRANCH  19  26
ATOM     20  C   UNL     1       2.941   4.184  18.433  0.00  0.00    +0.000 A 
ATOM     21  C   UNL     1       2.207   3.014  18.132  0.00  0.00    +0.000 A 
ATOM     22  C   UNL     1       1.080   2.648  18.861  0.00  0.00    +0.000 A 
ATOM     23  F   UNL     1       0.404   1.544  18.519  0.00  0.00    +0.000 F 
ATOM     24  C   UNL     1       0.665   3.394  19.945  0.00  0.00    +0.000 A 
ATOM     25  C   UNL     1       1.366   4.550  20.274  0.00  0.00    +0.000 A 
ATOM     26  C   UNL     1       2.450   4.994  19.485  0.00  0.00    +0.000 A 
BRANCH  20  32
ATOM     27  C   UNL     1       5.953   4.964  19.358  0.00  0.00    +0.000 C 
ATOM     28  N   UNL     1       5.448   4.712  18.031  0.00  0.00    +0.000 N 
ATOM     29  N   UNL     1       6.361   4.717  17.034  0.00  0.00    +0.000 NA
ATOM     30  C   UNL     1       5.663   4.412  15.948  0.00  0.00    +0.000 A 
ATOM     31  C   UNL     1       4.302   4.251  16.235  0.00  0.00    +0.000 A 
ATOM     32  C   UNL     1       4.158   4.423  17.612  0.00  0.00    +0.000 A 
ENDBRANCH  20  32
ENDBRANCH  19  26
ENDBRANCH   1  19
TORSDOF 6
ENDMDL
MODEL 8
REMARK VINA RESULT:      -8.1      2.624      3.749
REMARK  Name = 
REMARK  7 active torsions:
REMARK  status: ('A' for Active; 'I' for Inactive)
REMARK    1  A    between atoms: C_1  and  N_2
REMARK    2  A    between atoms: C_6  and  C_7
REMARK    3  A    between atoms: C_13  and  O_14
REMARK    4  A    between atoms: O_14  and  C_15
REMARK    5  A    between atoms: C_19  and  S_20
REMARK    6  A    between atoms: S_20  and  N_23
REMARK    7  A    between atoms: N_23  and  C_24
REMARK                            x       y       z     vdW  Elec       q    Type
REMARK                         _______ _______ _______ _____ _____    ______ ____
ROOT
ATOM      1  C   UNL     1       3.171   6.982  18.886  0.00  0.00    +0.000 A 
ATOM      2  C   UNL     1       3.099   8.075  18.016  0.00  0.00    +0.000 A 
ATOM      3  C   UNL     1       2.088   9.025  18.161  0.00  0.00    +0.000 A 
ATOM      4  F   UNL     1       2.048  10.037  17.287  0.00  0.00    +0.000 F 
ATOM      5  C   UNL     1       1.184   8.935  19.210  0.00  0.00    +0.000 A 
ATOM      6  C   UNL     1       1.238   7.843  20.088  0.00  0.00    +0.000 A 
ATOM      7  C   UNL     1       2.231   6.875  19.920  0.00  0.00    +0.000 A 
ATOM      8 CL   UNL     1       2.248   5.546  21.029  0.00  0.00    +0.000 Cl
ENDROOT
BRANCH   5   9
ATOM      9  S   UNL     1      -0.019  10.202  19.475  0.00  0.00    +0.000 S 
ATOM     10  O   UNL     1      -0.864  10.320  18.309  0.00  0.00    +0.000 OA
ATOM     11  O   UNL     1      -0.594   9.957  20.783  0.00  0.00    +0.000 OA
BRANCH   9  12
ATOM     12  N   UNL     1       0.934  11.597  19.637  0.00  0.00    +0.000 N 
ATOM     13  H   UNL     1       1.298  11.837  18.715  0.00  0.00    +0.000 HD
BRANCH  12  14
ATOM     14  C   UNL     1       0.371  12.689  20.292  0.00  0.00    +0.000 A 
ATOM     15  C   UNL     1      -0.650  13.481  19.811  0.00  0.00    +0.000 A 
ATOM     16  S   UNL     1      -1.021  14.708  20.949  0.00  0.00    +0.000 S 
ATOM     17  C   UNL     1       0.196  14.079  21.981  0.00  0.00    +0.000 A 
ATOM     18  N   UNL     1       0.825  13.005  21.551  0.00  0.00    +0.000 NA
ENDBRANCH  12  14
ENDBRANCH   9  12
ENDBRANCH   5   9
BRANCH   1  19
ATOM     19  O   UNL     1       4.185   6.046  18.814  0.00  0.00    +0.000 OA
BRANCH  19  26
ATOM     20  C   UNL     1       3.999   4.220  17.239  0.00  0.00    +0.000 A 
ATOM     21  C   UNL     1       4.480   3.645  16.041  0.00  0.00    +0.000 A 
ATOM     22  C   UNL     1       5.400   4.302  15.230  0.00  0.00    +0.000 A 
ATOM     23  F   UNL     1       5.844   3.703  14.118  0.00  0.00    +0.000 F 
ATOM     24  C   UNL     1       5.842   5.571  15.545  0.00  0.00    +0.000 A 
ATOM     25  C   UNL     1       5.387   6.170  16.715  0.00  0.00    +0.000 A 
ATOM     26  C   UNL     1       4.533   5.479  17.603  0.00  0.00    +0.000 A 
BRANCH  20  32
ATOM     27  C   UNL     1       4.328   2.280  19.820  0.00  0.00    +0.000 C 
ATOM     28  N   UNL     1       3.129   2.647  19.108  0.00  0.00    +0.000 N 
ATOM     29  N   UNL     1       1.965   2.193  19.625  0.00  0.00    +0.000 NA
ATOM     30  C   UNL     1       1.032   2.703  18.832  0.00  0.00    +0.000 A 
ATOM     31  C   UNL     1       1.592   3.448  17.787  0.00  0.00    +0.000 A 
ATOM     32  C   UNL     1       2.974   3.434  17.978  0.00  0.00    +0.000 A 
ENDBRANCH  20  32
ENDBRANCH  19  26
ENDBRANCH   1  19
TORSDOF 6
ENDMDL
MODEL 9
REMARK VINA RESULT:      -8.1      1.248      1.389
REMARK  Name = 
REMARK  7 active torsions:
REMARK  status: ('A' for Active; 'I' for Inactive)
REMARK    1  A    between atoms: C_1  and  N_2
REMARK    2  A    between atoms: C_6  and  C_7
REMARK    3  A    between atoms: C_13  and  O_14
REMARK    4  A    between atoms: O_14  and  C_15
REMARK    5  A    between atoms: C_19  and  S_20
REMARK    6  A    between atoms: S_20  and  N_23
REMARK    7  A    between atoms: N_23  and  C_24
REMARK                            x       y       z     vdW  Elec       q    Type
REMARK                         _______ _______ _______ _____ _____    ______ ____
ROOT
ATOM      1  C   UNL     1       2.326   7.414  19.739  0.00  0.00    +0.000 A 
ATOM      2  C   UNL     1       1.514   7.814  20.807  0.00  0.00    +0.000 A 
ATOM      3  C   UNL     1       0.755   8.981  20.714  0.00  0.00    +0.000 A 
ATOM      4  F   UNL     1       0.015   9.333  21.772  0.00  0.00    +0.000 F 
ATOM      5  C   UNL     1       0.741   9.719  19.540  0.00  0.00    +0.000 A 
ATOM      6  C   UNL     1       1.552   9.336  18.463  0.00  0.00    +0.000 A 
ATOM      7  C   UNL     1       2.338   8.187  18.571  0.00  0.00    +0.000 A 
ATOM      8 CL   UNL     1       3.325   7.763  17.213  0.00  0.00    +0.000 Cl
ENDROOT
BRANCH   5   9
ATOM      9  S   UNL     1      -0.316  11.126  19.372  0.00  0.00    +0.000 S 
ATOM     10  O   UNL     1       0.191  11.993  18.332  0.00  0.00    +0.000 OA
ATOM     11  O   UNL     1      -1.672  10.618  19.315  0.00  0.00    +0.000 OA
BRANCH   9  12
ATOM     12  N   UNL     1      -0.166  11.890  20.880  0.00  0.00    +0.000 N 
ATOM     13  H   UNL     1       0.094  11.181  21.566  0.00  0.00    +0.000 HD
BRANCH  12  14
ATOM     14  C   UNL     1       0.638  13.024  20.950  0.00  0.00    +0.000 A 
ATOM     15  C   UNL     1       0.195  14.329  20.970  0.00  0.00    +0.000 A 
ATOM     16  S   UNL     1       1.533  15.397  21.060  0.00  0.00    +0.000 S 
ATOM     17  C   UNL     1       2.580  14.040  21.074  0.00  0.00    +0.000 A 
ATOM     18  N   UNL     1       2.000  12.858  21.054  0.00  0.00    +0.000 NA
ENDBRANCH  12  14
ENDBRANCH   9  12
ENDBRANCH   5   9
BRANCH   1  19
ATOM     19  O   UNL     1       3.053   6.239  19.765  0.00  0.00    +0.000 OA
BRANCH  19  26
ATOM     20  C   UNL     1       2.927   4.207  18.459  0.00  0.00    +0.000 A 
ATOM     21  C   UNL     1       2.189   3.036  18.171  0.00  0.00    +0.000 A 
ATOM     22  C   UNL     1       1.063   2.680  18.907  0.00  0.00    +0.000 A 
ATOM     23  F   UNL     1       0.385   1.574  18.578  0.00  0.00    +0.000 F 
ATOM     24  C   UNL     1       0.653   3.437  19.985  0.00  0.00    +0.000 A 
ATOM     25  C   UNL     1       1.358   4.595  20.301  0.00  0.00    +0.000 A 
ATOM     26  C   UNL     1       2.441   5.029  19.504  0.00  0.00    +0.000 A 
BRANCH  20  32
ATOM     27  C   UNL     1       5.930   5.043  19.362  0.00  0.00    +0.000 C 
ATOM     28  N   UNL     1       5.428   4.749  18.042  0.00  0.00    +0.000 N 
ATOM     29  N   UNL     1       6.342   4.736  17.046  0.00  0.00    +0.000 NA
ATOM     30  C   UNL     1       5.648   4.395  15.968  0.00  0.00    +0.000 A 
ATOM     31  C   UNL     1       4.288   4.228  16.260  0.00  0.00    +0.000 A 
ATOM     32  C   UNL     1       4.142   4.436  17.632  0.00  0.00    +0.000 A 
ENDBRANCH  20  32
ENDBRANCH  19  26
ENDBRANCH   1  19
TORSDOF 6
ENDMDL
