MODEL 1
REMARK VINA RESULT:      -8.4      0.000      0.000
REMARK  Name = 
REMARK  5 active torsions:
REMARK  status: ('A' for Active; 'I' for Inactive)
REMARK    1  A    between atoms: C_1  and  C_2
REMARK    2  A    between atoms: C_6  and  N_7
REMARK    3  A    between atoms: N_13  and  C_14
REMARK    4  A    between atoms: N_23  and  C_24
REMARK    5  A    between atoms: C_24  and  C_25
REMARK                            x       y       z     vdW  Elec       q    Type
REMARK                         _______ _______ _______ _____ _____    ______ ____
ROOT
ATOM      1  C   UNL     1      -0.374   9.262  22.909  0.00  0.00    +0.000 C 
ATOM      2  C   UNL     1       0.260   9.014  21.592  0.00  0.00    +0.000 A 
ATOM      3  N   UNL     1       1.305   8.237  21.425  0.00  0.00    +0.000 NA
ATOM      4  C   UNL     1       1.638   8.351  20.109  0.00  0.00    +0.000 A 
ATOM      5  C   UNL     1       2.746   7.815  19.451  0.00  0.00    +0.000 A 
ATOM      6  C   UNL     1       2.873   7.906  18.071  0.00  0.00    +0.000 A 
ATOM      7  C   UNL     1       1.960   8.720  17.385  0.00  0.00    +0.000 A 
ATOM      8  C   UNL     1       0.908   9.401  18.041  0.00  0.00    +0.000 A 
ATOM      9  C   UNL     1       0.756   9.165  19.415  0.00  0.00    +0.000 A 
ATOM     10  N   UNL     1      -0.093   9.630  20.404  0.00  0.00    +0.000 N 
ENDROOT
BRANCH   6  11
ATOM     11  N   UNL     1       3.973   7.383  17.379  0.00  0.00    +0.000 NA
ATOM     12  C   UNL     1       4.589   6.254  17.595  0.00  0.00    +0.000 C 
ATOM     13  S   UNL     1       6.161   6.129  16.814  0.00  0.00    +0.000 S 
ATOM     14  C   UNL     1       6.603   4.632  17.698  0.00  0.00    +0.000 C 
ATOM     15  C   UNL     1       5.419   4.253  18.544  0.00  0.00    +0.000 C 
ATOM     16  O   UNL     1       5.439   3.243  19.243  0.00  0.00    +0.000 OA
ATOM     17  N   UNL     1       4.354   5.138  18.375  0.00  0.00    +0.000 N 
BRANCH  17  18
ATOM     18  C   UNL     1       3.105   4.811  18.973  0.00  0.00    +0.000 A 
ATOM     19  C   UNL     1       2.074   4.273  18.183  0.00  0.00    +0.000 A 
ATOM     20  C   UNL     1       0.924   3.761  18.787  0.00  0.00    +0.000 A 
ATOM     21  C   UNL     1       0.761   3.854  20.166  0.00  0.00    +0.000 A 
ATOM     22  C   UNL     1       1.748   4.455  20.948  0.00  0.00    +0.000 A 
ATOM     23  C   UNL     1       2.925   4.920  20.355  0.00  0.00    +0.000 A 
ENDBRANCH  17  18
ENDBRANCH   6  11
BRANCH  10  24
ATOM     24  C   UNL     1      -1.063  10.710  20.269  0.00  0.00    +0.000 C 
BRANCH  24  25
ATOM     25  C   UNL     1      -0.396  12.036  20.009  0.00  0.00    +0.000 A 
ATOM     26  C   UNL     1      -0.819  12.850  18.948  0.00  0.00    +0.000 A 
ATOM     27  C   UNL     1      -0.120  14.016  18.629  0.00  0.00    +0.000 A 
ATOM     28  C   UNL     1       0.989  14.394  19.384  0.00  0.00    +0.000 A 
ATOM     29  C   UNL     1       1.372  13.632  20.484  0.00  0.00    +0.000 A 
ATOM     30  C   UNL     1       0.678  12.465  20.802  0.00  0.00    +0.000 A 
ENDBRANCH  24  25
ENDBRANCH  10  24
TORSDOF 4
ENDMDL
MODEL 2
REMARK VINA RESULT:      -8.2      1.331      2.125
REMARK  Name = 
REMARK  5 active torsions:
REMARK  status: ('A' for Active; 'I' for Inactive)
REMARK    1  A    between atoms: C_1  and  C_2
REMARK    2  A    between atoms: C_6  and  N_7
REMARK    3  A    between atoms: N_13  and  C_14
REMARK    4  A    between atoms: N_23  and  C_24
REMARK    5  A    between atoms: C_24  and  C_25
REMARK                            x       y       z     vdW  Elec       q    Type
REMARK                         _______ _______ _______ _____ _____    ______ ____
ROOT
ATOM      1  C   UNL     1      -0.431   9.247  22.761  0.00  0.00    +0.000 C 
ATOM      2  C   UNL     1       0.251   8.997  21.469  0.00  0.00    +0.000 A 
ATOM      3  N   UNL     1       1.278   8.190  21.335  0.00  0.00    +0.000 NA
ATOM      4  C   UNL     1       1.671   8.311  20.036  0.00  0.00    +0.000 A 
ATOM      5  C   UNL     1       2.789   7.750  19.418  0.00  0.00    +0.000 A 
ATOM      6  C   UNL     1       2.978   7.855  18.046  0.00  0.00    +0.000 A 
ATOM      7  C   UNL     1       2.121   8.707  17.335  0.00  0.00    +0.000 A 
ATOM      8  C   UNL     1       1.063   9.412  17.955  0.00  0.00    +0.000 A 
ATOM      9  C   UNL     1       0.845   9.162  19.318  0.00  0.00    +0.000 A 
ATOM     10  N   UNL     1      -0.031   9.640  20.276  0.00  0.00    +0.000 N 
ENDROOT
BRANCH   6  11
ATOM     11  N   UNL     1       4.091   7.308  17.395  0.00  0.00    +0.000 NA
ATOM     12  C   UNL     1       4.684   6.174  17.644  0.00  0.00    +0.000 C 
ATOM     13  S   UNL     1       6.276   6.016  16.910  0.00  0.00    +0.000 S 
ATOM     14  C   UNL     1       6.671   4.526  17.829  0.00  0.00    +0.000 C 
ATOM     15  C   UNL     1       5.458   4.175  18.645  0.00  0.00    +0.000 C 
ATOM     16  O   UNL     1       5.444   3.176  19.359  0.00  0.00    +0.000 OA
ATOM     17  N   UNL     1       4.411   5.072  18.433  0.00  0.00    +0.000 N 
BRANCH  17  18
ATOM     18  C   UNL     1       3.141   4.771  18.998  0.00  0.00    +0.000 A 
ATOM     19  C   UNL     1       2.117   4.261  18.181  0.00  0.00    +0.000 A 
ATOM     20  C   UNL     1       0.941   3.772  18.754  0.00  0.00    +0.000 A 
ATOM     21  C   UNL     1       0.748   3.862  20.129  0.00  0.00    +0.000 A 
ATOM     22  C   UNL     1       1.728   4.436  20.938  0.00  0.00    +0.000 A 
ATOM     23  C   UNL     1       2.930   4.877  20.376  0.00  0.00    +0.000 A 
ENDBRANCH  17  18
ENDBRANCH   6  11
BRANCH  10  24
ATOM     24  C   UNL     1      -0.961  10.751  20.116  0.00  0.00    +0.000 C 
BRANCH  24  25
ATOM     25  C   UNL     1      -1.711  10.674  18.812  0.00  0.00    +0.000 A 
ATOM     26  C   UNL     1      -1.564  11.680  17.844  0.00  0.00    +0.000 A 
ATOM     27  C   UNL     1      -2.353  11.674  16.693  0.00  0.00    +0.000 A 
ATOM     28  C   UNL     1      -3.275  10.650  16.483  0.00  0.00    +0.000 A 
ATOM     29  C   UNL     1      -3.376   9.608  17.400  0.00  0.00    +0.000 A 
ATOM     30  C   UNL     1      -2.592   9.614  18.553  0.00  0.00    +0.000 A 
ENDBRANCH  24  25
ENDBRANCH  10  24
TORSDOF 4
ENDMDL
MODEL 3
REMARK VINA RESULT:      -7.5      0.290      1.266
REMARK  Name = 
REMARK  5 active torsions:
REMARK  status: ('A' for Active; 'I' for Inactive)
REMARK    1  A    between atoms: C_1  and  C_2
REMARK    2  A    between atoms: C_6  and  N_7
REMARK    3  A    between atoms: N_13  and  C_14
REMARK    4  A    between atoms: N_23  and  C_24
REMARK    5  A    between atoms: C_24  and  C_25
REMARK                            x       y       z     vdW  Elec       q    Type
REMARK                         _______ _______ _______ _____ _____    ______ ____
ROOT
ATOM      1  C   UNL     1      -0.255   9.261  22.967  0.00  0.00    +0.000 C 
ATOM      2  C   UNL     1       0.348   8.986  21.641  0.00  0.00    +0.000 A 
ATOM      3  N   UNL     1       1.433   8.265  21.474  0.00  0.00    +0.000 NA
ATOM      4  C   UNL     1       1.715   8.332  20.142  0.00  0.00    +0.000 A 
ATOM      5  C   UNL     1       2.832   7.832  19.471  0.00  0.00    +0.000 A 
ATOM      6  C   UNL     1       2.906   7.861  18.085  0.00  0.00    +0.000 A 
ATOM      7  C   UNL     1       1.922   8.583  17.394  0.00  0.00    +0.000 A 
ATOM      8  C   UNL     1       0.853   9.232  18.054  0.00  0.00    +0.000 A 
ATOM      9  C   UNL     1       0.761   9.057  19.443  0.00  0.00    +0.000 A 
ATOM     10  N   UNL     1      -0.080   9.519  20.438  0.00  0.00    +0.000 N 
ENDROOT
BRANCH   6  11
ATOM     11  N   UNL     1       4.013   7.371  17.380  0.00  0.00    +0.000 NA
ATOM     12  C   UNL     1       4.662   6.259  17.585  0.00  0.00    +0.000 C 
ATOM     13  S   UNL     1       6.228   6.180  16.786  0.00  0.00    +0.000 S 
ATOM     14  C   UNL     1       6.721   4.693  17.661  0.00  0.00    +0.000 C 
ATOM     15  C   UNL     1       5.558   4.278  18.518  0.00  0.00    +0.000 C 
ATOM     16  O   UNL     1       5.614   3.268  19.214  0.00  0.00    +0.000 OA
ATOM     17  N   UNL     1       4.467   5.134  18.364  0.00  0.00    +0.000 N 
BRANCH  17  18
ATOM     18  C   UNL     1       3.234   4.771  18.975  0.00  0.00    +0.000 A 
ATOM     19  C   UNL     1       3.079   4.904  20.365  0.00  0.00    +0.000 A 
ATOM     20  C   UNL     1       1.821   4.746  20.948  0.00  0.00    +0.000 A 
ATOM     21  C   UNL     1       0.731   4.379  20.164  0.00  0.00    +0.000 A 
ATOM     22  C   UNL     1       0.894   4.171  18.794  0.00  0.00    +0.000 A 
ATOM     23  C   UNL     1       2.140   4.380  18.197  0.00  0.00    +0.000 A 
ENDBRANCH  17  18
ENDBRANCH   6  11
BRANCH  10  24
ATOM     24  C   UNL     1      -1.119  10.531  20.287  0.00  0.00    +0.000 C 
BRANCH  24  25
ATOM     25  C   UNL     1      -0.540  11.894  20.011  0.00  0.00    +0.000 A 
ATOM     26  C   UNL     1       0.215  12.559  20.989  0.00  0.00    +0.000 A 
ATOM     27  C   UNL     1       0.643  13.871  20.781  0.00  0.00    +0.000 A 
ATOM     28  C   UNL     1       0.345  14.521  19.585  0.00  0.00    +0.000 A 
ATOM     29  C   UNL     1      -0.339  13.846  18.579  0.00  0.00    +0.000 A 
ATOM     30  C   UNL     1      -0.771  12.536  18.786  0.00  0.00    +0.000 A 
ENDBRANCH  24  25
ENDBRANCH  10  24
TORSDOF 4
ENDMDL
MODEL 4
REMARK VINA RESULT:      -7.3      7.765     11.149
REMARK  Name = 
REMARK  5 active torsions:
REMARK  status: ('A' for Active; 'I' for Inactive)
REMARK    1  A    between atoms: C_1  and  C_2
REMARK    2  A    between atoms: C_6  and  N_7
REMARK    3  A    between atoms: N_13  and  C_14
REMARK    4  A    between atoms: N_23  and  C_24
REMARK    5  A    between atoms: C_24  and  C_25
REMARK                            x       y       z     vdW  Elec       q    Type
REMARK                         _______ _______ _______ _____ _____    ______ ____
ROOT
ATOM      1  C   UNL     1      11.555  17.164  18.820  0.00  0.00    +0.000 C 
ATOM      2  C   UNL     1      10.178  16.677  18.561  0.00  0.00    +0.000 A 
ATOM      3  N   UNL     1       9.105  17.415  18.729  0.00  0.00    +0.000 NA
ATOM      4  C   UNL     1       8.051  16.586  18.486  0.00  0.00    +0.000 A 
ATOM      5  C   UNL     1       6.690  16.853  18.644  0.00  0.00    +0.000 A 
ATOM      6  C   UNL     1       5.729  15.945  18.222  0.00  0.00    +0.000 A 
ATOM      7  C   UNL     1       6.165  14.675  17.818  0.00  0.00    +0.000 A 
ATOM      8  C   UNL     1       7.532  14.316  17.786  0.00  0.00    +0.000 A 
ATOM      9  C   UNL     1       8.461  15.319  18.100  0.00  0.00    +0.000 A 
ATOM     10  N   UNL     1       9.838  15.382  18.211  0.00  0.00    +0.000 N 
ENDROOT
BRANCH   6  11
ATOM     11  N   UNL     1       4.355  16.179  18.368  0.00  0.00    +0.000 NA
ATOM     12  C   UNL     1       3.611  15.940  19.412  0.00  0.00    +0.000 C 
ATOM     13  S   UNL     1       1.882  15.974  19.088  0.00  0.00    +0.000 S 
ATOM     14  C   UNL     1       1.458  15.290  20.692  0.00  0.00    +0.000 C 
ATOM     15  C   UNL     1       2.742  15.129  21.457  0.00  0.00    +0.000 C 
ATOM     16  O   UNL     1       2.743  14.697  22.606  0.00  0.00    +0.000 OA
ATOM     17  N   UNL     1       3.844  15.568  20.722  0.00  0.00    +0.000 N 
BRANCH  17  18
ATOM     18  C   UNL     1       5.104  15.643  21.378  0.00  0.00    +0.000 A 
ATOM     19  C   UNL     1       5.462  16.814  22.068  0.00  0.00    +0.000 A 
ATOM     20  C   UNL     1       6.597  16.829  22.882  0.00  0.00    +0.000 A 
ATOM     21  C   UNL     1       7.420  15.708  22.948  0.00  0.00    +0.000 A 
ATOM     22  C   UNL     1       7.111  14.568  22.207  0.00  0.00    +0.000 A 
ATOM     23  C   UNL     1       5.947  14.529  21.434  0.00  0.00    +0.000 A 
ENDBRANCH  17  18
ENDBRANCH   6  11
BRANCH  10  24
ATOM     24  C   UNL     1      10.760  14.254  18.155  0.00  0.00    +0.000 C 
BRANCH  24  25
ATOM     25  C   UNL     1      10.363  13.156  19.107  0.00  0.00    +0.000 A 
ATOM     26  C   UNL     1       9.963  11.902  18.621  0.00  0.00    +0.000 A 
ATOM     27  C   UNL     1       9.475  10.928  19.494  0.00  0.00    +0.000 A 
ATOM     28  C   UNL     1       9.409  11.187  20.862  0.00  0.00    +0.000 A 
ATOM     29  C   UNL     1       9.872  12.400  21.363  0.00  0.00    +0.000 A 
ATOM     30  C   UNL     1      10.356  13.375  20.492  0.00  0.00    +0.000 A 
ENDBRANCH  24  25
ENDBRANCH  10  24
TORSDOF 4
ENDMDL
MODEL 5
REMARK VINA RESULT:      -7.3      6.698     10.556
REMARK  Name = 
REMARK  5 active torsions:
REMARK  status: ('A' for Active; 'I' for Inactive)
REMARK    1  A    between atoms: C_1  and  C_2
REMARK    2  A    between atoms: C_6  and  N_7
REMARK    3  A    between atoms: N_13  and  C_14
REMARK    4  A    between atoms: N_23  and  C_24
REMARK    5  A    between atoms: C_24  and  C_25
REMARK                            x       y       z     vdW  Elec       q    Type
REMARK                         _______ _______ _______ _____ _____    ______ ____
ROOT
ATOM      1  C   UNL     1      -0.314   9.613  21.663  0.00  0.00    +0.000 C 
ATOM      2  C   UNL     1      -0.474  11.058  21.954  0.00  0.00    +0.000 A 
ATOM      3  N   UNL     1      -0.981  11.520  23.074  0.00  0.00    +0.000 NA
ATOM      4  C   UNL     1      -1.049  12.871  22.913  0.00  0.00    +0.000 A 
ATOM      5  C   UNL     1      -1.621  13.813  23.770  0.00  0.00    +0.000 A 
ATOM      6  C   UNL     1      -1.488  15.174  23.528  0.00  0.00    +0.000 A 
ATOM      7  C   UNL     1      -0.937  15.567  22.300  0.00  0.00    +0.000 A 
ATOM      8  C   UNL     1      -0.481  14.635  21.339  0.00  0.00    +0.000 A 
ATOM      9  C   UNL     1      -0.523  13.280  21.697  0.00  0.00    +0.000 A 
ATOM     10  N   UNL     1      -0.211  12.088  21.069  0.00  0.00    +0.000 N 
ENDROOT
BRANCH   6  11
ATOM     11  N   UNL     1      -2.052  16.146  24.365  0.00  0.00    +0.000 NA
ATOM     12  C   UNL     1      -3.238  16.682  24.279  0.00  0.00    +0.000 C 
ATOM     13  S   UNL     1      -3.438  18.145  25.237  0.00  0.00    +0.000 S 
ATOM     14  C   UNL     1      -5.017  18.549  24.487  0.00  0.00    +0.000 C 
ATOM     15  C   UNL     1      -5.354  17.434  23.536  0.00  0.00    +0.000 C 
ATOM     16  O   UNL     1      -6.403  17.443  22.898  0.00  0.00    +0.000 OA
ATOM     17  N   UNL     1      -4.378  16.437  23.538  0.00  0.00    +0.000 N 
BRANCH  17  18
ATOM     18  C   UNL     1      -4.642  15.236  22.823  0.00  0.00    +0.000 A 
ATOM     19  C   UNL     1      -4.352  15.164  21.449  0.00  0.00    +0.000 A 
ATOM     20  C   UNL     1      -4.414  13.939  20.783  0.00  0.00    +0.000 A 
ATOM     21  C   UNL     1      -4.839  12.799  21.460  0.00  0.00    +0.000 A 
ATOM     22  C   UNL     1      -5.201  12.878  22.805  0.00  0.00    +0.000 A 
ATOM     23  C   UNL     1      -5.089  14.091  23.491  0.00  0.00    +0.000 A 
ENDBRANCH  17  18
ENDBRANCH   6  11
BRANCH  10  24
ATOM     24  C   UNL     1       0.153  11.922  19.667  0.00  0.00    +0.000 C 
BRANCH  24  25
ATOM     25  C   UNL     1      -1.003  11.419  18.841  0.00  0.00    +0.000 A 
ATOM     26  C   UNL     1      -2.251  12.059  18.899  0.00  0.00    +0.000 A 
ATOM     27  C   UNL     1      -3.354  11.520  18.234  0.00  0.00    +0.000 A 
ATOM     28  C   UNL     1      -3.215  10.353  17.484  0.00  0.00    +0.000 A 
ATOM     29  C   UNL     1      -1.966   9.752  17.360  0.00  0.00    +0.000 A 
ATOM     30  C   UNL     1      -0.864  10.287  18.026  0.00  0.00    +0.000 A 
ENDBRANCH  24  25
ENDBRANCH  10  24
TORSDOF 4
ENDMDL
MODEL 6
REMARK VINA RESULT:      -7.2      6.497     10.346
REMARK  Name = 
REMARK  5 active torsions:
REMARK  status: ('A' for Active; 'I' for Inactive)
REMARK    1  A    between atoms: C_1  and  C_2
REMARK    2  A    between atoms: C_6  and  N_7
REMARK    3  A    between atoms: N_13  and  C_14
REMARK    4  A    between atoms: N_23  and  C_24
REMARK    5  A    between atoms: C_24  and  C_25
REMARK                            x       y       z     vdW  Elec       q    Type
REMARK                         _______ _______ _______ _____ _____    ______ ____
ROOT
ATOM      1  C   UNL     1      -0.231   9.470  21.070  0.00  0.00    +0.000 C 
ATOM      2  C   UNL     1      -0.326  10.914  21.392  0.00  0.00    +0.000 A 
ATOM      3  N   UNL     1      -0.592  11.373  22.593  0.00  0.00    +0.000 NA
ATOM      4  C   UNL     1      -0.690  12.725  22.453  0.00  0.00    +0.000 A 
ATOM      5  C   UNL     1      -1.073  13.664  23.412  0.00  0.00    +0.000 A 
ATOM      6  C   UNL     1      -0.989  15.026  23.152  0.00  0.00    +0.000 A 
ATOM      7  C   UNL     1      -0.700  15.423  21.839  0.00  0.00    +0.000 A 
ATOM      8  C   UNL     1      -0.451  14.494  20.802  0.00  0.00    +0.000 A 
ATOM      9  C   UNL     1      -0.422  13.137  21.156  0.00  0.00    +0.000 A 
ATOM     10  N   UNL     1      -0.247  11.947  20.474  0.00  0.00    +0.000 N 
ENDROOT
BRANCH   6  11
ATOM     11  N   UNL     1      -1.369  15.996  24.089  0.00  0.00    +0.000 NA
ATOM     12  C   UNL     1      -2.536  16.562  24.224  0.00  0.00    +0.000 C 
ATOM     13  S   UNL     1      -2.523  18.012  25.221  0.00  0.00    +0.000 S 
ATOM     14  C   UNL     1      -4.199  18.468  24.771  0.00  0.00    +0.000 C 
ATOM     15  C   UNL     1      -4.729  17.379  23.881  0.00  0.00    +0.000 C 
ATOM     16  O   UNL     1      -5.874  17.425  23.440  0.00  0.00    +0.000 OA
ATOM     17  N   UNL     1      -3.796  16.358  23.695  0.00  0.00    +0.000 N 
BRANCH  17  18
ATOM     18  C   UNL     1      -4.216  15.177  23.022  0.00  0.00    +0.000 A 
ATOM     19  C   UNL     1      -4.208  15.135  21.617  0.00  0.00    +0.000 A 
ATOM     20  C   UNL     1      -4.419  13.927  20.951  0.00  0.00    +0.000 A 
ATOM     21  C   UNL     1      -4.717  12.776  21.675  0.00  0.00    +0.000 A 
ATOM     22  C   UNL     1      -4.801  12.826  23.066  0.00  0.00    +0.000 A 
ATOM     23  C   UNL     1      -4.537  14.022  23.741  0.00  0.00    +0.000 A 
ENDBRANCH  17  18
ENDBRANCH   6  11
BRANCH  10  24
ATOM     24  C   UNL     1      -0.177  11.785  19.027  0.00  0.00    +0.000 C 
BRANCH  24  25
ATOM     25  C   UNL     1      -1.471  11.263  18.456  0.00  0.00    +0.000 A 
ATOM     26  C   UNL     1      -1.477  10.138  17.617  0.00  0.00    +0.000 A 
ATOM     27  C   UNL     1      -2.655   9.731  16.989  0.00  0.00    +0.000 A 
ATOM     28  C   UNL     1      -3.841  10.426  17.213  0.00  0.00    +0.000 A 
ATOM     29  C   UNL     1      -3.862  11.499  18.100  0.00  0.00    +0.000 A 
ATOM     30  C   UNL     1      -2.686  11.909  18.726  0.00  0.00    +0.000 A 
ENDBRANCH  24  25
ENDBRANCH  10  24
TORSDOF 4
ENDMDL
MODEL 7
REMARK VINA RESULT:      -7.2      6.372     10.267
REMARK  Name = 
REMARK  5 active torsions:
REMARK  status: ('A' for Active; 'I' for Inactive)
REMARK    1  A    between atoms: C_1  and  C_2
REMARK    2  A    between atoms: C_6  and  N_7
REMARK    3  A    between atoms: N_13  and  C_14
REMARK    4  A    between atoms: N_23  and  C_24
REMARK    5  A    between atoms: C_24  and  C_25
REMARK                            x       y       z     vdW  Elec       q    Type
REMARK                         _______ _______ _______ _____ _____    ______ ____
ROOT
ATOM      1  C   UNL     1      -0.155   9.162  21.191  0.00  0.00    +0.000 C 
ATOM      2  C   UNL     1      -0.305  10.605  21.497  0.00  0.00    +0.000 A 
ATOM      3  N   UNL     1      -0.653  11.063  22.677  0.00  0.00    +0.000 NA
ATOM      4  C   UNL     1      -0.777  12.411  22.523  0.00  0.00    +0.000 A 
ATOM      5  C   UNL     1      -1.240  13.346  23.451  0.00  0.00    +0.000 A 
ATOM      6  C   UNL     1      -1.176  14.708  23.188  0.00  0.00    +0.000 A 
ATOM      7  C   UNL     1      -0.821  15.105  21.890  0.00  0.00    +0.000 A 
ATOM      8  C   UNL     1      -0.488  14.177  20.876  0.00  0.00    +0.000 A 
ATOM      9  C   UNL     1      -0.445  12.823  21.241  0.00  0.00    +0.000 A 
ATOM     10  N   UNL     1      -0.199  11.635  20.579  0.00  0.00    +0.000 N 
ENDROOT
BRANCH   6  11
ATOM     11  N   UNL     1      -1.635  15.673  24.094  0.00  0.00    +0.000 NA
ATOM     12  C   UNL     1      -2.812  16.233  24.136  0.00  0.00    +0.000 C 
ATOM     13  S   UNL     1      -2.886  17.679  25.136  0.00  0.00    +0.000 S 
ATOM     14  C   UNL     1      -4.523  18.129  24.554  0.00  0.00    +0.000 C 
ATOM     15  C   UNL     1      -4.974  17.041  23.619  0.00  0.00    +0.000 C 
ATOM     16  O   UNL     1      -6.080  17.083  23.088  0.00  0.00    +0.000 OA
ATOM     17  N   UNL     1      -4.024  16.025  23.506  0.00  0.00    +0.000 N 
BRANCH  17  18
ATOM     18  C   UNL     1      -4.382  14.845  22.797  0.00  0.00    +0.000 A 
ATOM     19  C   UNL     1      -4.878  13.733  23.500  0.00  0.00    +0.000 A 
ATOM     20  C   UNL     1      -5.421  12.651  22.806  0.00  0.00    +0.000 A 
ATOM     21  C   UNL     1      -5.399  12.635  21.414  0.00  0.00    +0.000 A 
ATOM     22  C   UNL     1      -4.840  13.701  20.711  0.00  0.00    +0.000 A 
ATOM     23  C   UNL     1      -4.344  14.812  21.400  0.00  0.00    +0.000 A 
ENDBRANCH  17  18
ENDBRANCH   6  11
BRANCH  10  24
ATOM     24  C   UNL     1      -0.041  11.467  19.139  0.00  0.00    +0.000 C 
BRANCH  24  25
ATOM     25  C   UNL     1      -1.345  11.125  18.466  0.00  0.00    +0.000 A 
ATOM     26  C   UNL     1      -2.496  11.889  18.712  0.00  0.00    +0.000 A 
ATOM     27  C   UNL     1      -3.730  11.497  18.189  0.00  0.00    +0.000 A 
ATOM     28  C   UNL     1      -3.821  10.355  17.395  0.00  0.00    +0.000 A 
ATOM     29  C   UNL     1      -2.673   9.632  17.085  0.00  0.00    +0.000 A 
ATOM     30  C   UNL     1      -1.440  10.020  17.608  0.00  0.00    +0.000 A 
ENDBRANCH  24  25
ENDBRANCH  10  24
TORSDOF 4
ENDMDL
MODEL 8
REMARK VINA RESULT:      -7.0      7.509     10.140
REMARK  Name = 
REMARK  5 active torsions:
REMARK  status: ('A' for Active; 'I' for Inactive)
REMARK    1  A    between atoms: C_1  and  C_2
REMARK    2  A    between atoms: C_6  and  N_7
REMARK    3  A    between atoms: N_13  and  C_14
REMARK    4  A    between atoms: N_23  and  C_24
REMARK    5  A    between atoms: C_24  and  C_25
REMARK                            x       y       z     vdW  Elec       q    Type
REMARK                         _______ _______ _______ _____ _____    ______ ____
ROOT
ATOM      1  C   UNL     1       2.356  16.194  22.835  0.00  0.00    +0.000 C 
ATOM      2  C   UNL     1       0.884  16.242  22.658  0.00  0.00    +0.000 A 
ATOM      3  N   UNL     1       0.030  16.048  23.637  0.00  0.00    +0.000 NA
ATOM      4  C   UNL     1      -1.202  16.073  23.055  0.00  0.00    +0.000 A 
ATOM      5  C   UNL     1      -2.438  15.802  23.644  0.00  0.00    +0.000 A 
ATOM      6  C   UNL     1      -3.622  16.005  22.948  0.00  0.00    +0.000 A 
ATOM      7  C   UNL     1      -3.532  16.298  21.580  0.00  0.00    +0.000 A 
ATOM      8  C   UNL     1      -2.292  16.435  20.912  0.00  0.00    +0.000 A 
ATOM      9  C   UNL     1      -1.133  16.346  21.697  0.00  0.00    +0.000 A 
ATOM     10  N   UNL     1       0.226  16.394  21.451  0.00  0.00    +0.000 N 
ENDROOT
BRANCH   6  11
ATOM     11  N   UNL     1      -4.880  15.740  23.507  0.00  0.00    +0.000 NA
ATOM     12  C   UNL     1      -5.621  14.682  23.336  0.00  0.00    +0.000 C 
ATOM     13  S   UNL     1      -7.292  14.881  23.853  0.00  0.00    +0.000 S 
ATOM     14  C   UNL     1      -7.822  13.339  23.104  0.00  0.00    +0.000 C 
ATOM     15  C   UNL     1      -6.599  12.687  22.523  0.00  0.00    +0.000 C 
ATOM     16  O   UNL     1      -6.670  11.596  21.963  0.00  0.00    +0.000 OA
ATOM     17  N   UNL     1      -5.447  13.440  22.753  0.00  0.00    +0.000 N 
BRANCH  17  18
ATOM     18  C   UNL     1      -4.189  12.867  22.419  0.00  0.00    +0.000 A 
ATOM     19  C   UNL     1      -3.733  12.915  21.090  0.00  0.00    +0.000 A 
ATOM     20  C   UNL     1      -2.422  12.543  20.785  0.00  0.00    +0.000 A 
ATOM     21  C   UNL     1      -1.589  12.048  21.785  0.00  0.00    +0.000 A 
ATOM     22  C   UNL     1      -2.060  11.926  23.092  0.00  0.00    +0.000 A 
ATOM     23  C   UNL     1      -3.354  12.349  23.413  0.00  0.00    +0.000 A 
ENDBRANCH  17  18
ENDBRANCH   6  11
BRANCH  10  24
ATOM     24  C   UNL     1       0.864  16.413  20.140  0.00  0.00    +0.000 C 
BRANCH  24  25
ATOM     25  C   UNL     1       0.956  15.034  19.539  0.00  0.00    +0.000 A 
ATOM     26  C   UNL     1      -0.072  14.545  18.719  0.00  0.00    +0.000 A 
ATOM     27  C   UNL     1      -0.047  13.224  18.266  0.00  0.00    +0.000 A 
ATOM     28  C   UNL     1       1.016  12.390  18.605  0.00  0.00    +0.000 A 
ATOM     29  C   UNL     1       2.077  12.887  19.357  0.00  0.00    +0.000 A 
ATOM     30  C   UNL     1       2.053  14.205  19.812  0.00  0.00    +0.000 A 
ENDBRANCH  24  25
ENDBRANCH  10  24
TORSDOF 4
ENDMDL
MODEL 9
REMARK VINA RESULT:      -7.0      1.283      2.264
REMARK  Name = 
REMARK  5 active torsions:
REMARK  status: ('A' for Active; 'I' for Inactive)
REMARK    1  A    between atoms: C_1  and  C_2
REMARK    2  A    between atoms: C_6  and  N_7
REMARK    3  A    between atoms: N_13  and  C_14
REMARK    4  A    between atoms: N_23  and  C_24
REMARK    5  A    between atoms: C_24  and  C_25
REMARK                            x       y       z     vdW  Elec       q    Type
REMARK                         _______ _______ _______ _____ _____    ______ ____
ROOT
ATOM      1  C   UNL     1      -0.421   8.929  22.788  0.00  0.00    +0.000 C 
ATOM      2  C   UNL     1       0.272   8.769  21.487  0.00  0.00    +0.000 A 
ATOM      3  N   UNL     1       1.284   7.953  21.301  0.00  0.00    +0.000 NA
ATOM      4  C   UNL     1       1.695   8.169  20.020  0.00  0.00    +0.000 A 
ATOM      5  C   UNL     1       2.810   7.636  19.372  0.00  0.00    +0.000 A 
ATOM      6  C   UNL     1       3.018   7.847  18.015  0.00  0.00    +0.000 A 
ATOM      7  C   UNL     1       2.188   8.771  17.364  0.00  0.00    +0.000 A 
ATOM      8  C   UNL     1       1.136   9.446  18.027  0.00  0.00    +0.000 A 
ATOM      9  C   UNL     1       0.896   9.092  19.363  0.00  0.00    +0.000 A 
ATOM     10  N   UNL     1       0.018   9.510  20.347  0.00  0.00    +0.000 N 
ENDROOT
BRANCH   6  11
ATOM     11  N   UNL     1       4.128   7.330  17.334  0.00  0.00    +0.000 NA
ATOM     12  C   UNL     1       4.747   6.204  17.555  0.00  0.00    +0.000 C 
ATOM     13  S   UNL     1       6.327   6.087  16.788  0.00  0.00    +0.000 S 
ATOM     14  C   UNL     1       6.768   4.592  17.676  0.00  0.00    +0.000 C 
ATOM     15  C   UNL     1       5.578   4.206  18.510  0.00  0.00    +0.000 C 
ATOM     16  O   UNL     1       5.596   3.196  19.209  0.00  0.00    +0.000 OA
ATOM     17  N   UNL     1       4.510   5.086  18.332  0.00  0.00    +0.000 N 
BRANCH  17  18
ATOM     18  C   UNL     1       3.257   4.752  18.917  0.00  0.00    +0.000 A 
ATOM     19  C   UNL     1       3.118   4.757  20.316  0.00  0.00    +0.000 A 
ATOM     20  C   UNL     1       1.854   4.633  20.895  0.00  0.00    +0.000 A 
ATOM     21  C   UNL     1       0.738   4.424  20.090  0.00  0.00    +0.000 A 
ATOM     22  C   UNL     1       0.879   4.342  18.705  0.00  0.00    +0.000 A 
ATOM     23  C   UNL     1       2.134   4.520  18.117  0.00  0.00    +0.000 A 
ENDBRANCH  17  18
ENDBRANCH   6  11
BRANCH  10  24
ATOM     24  C   UNL     1      -0.887  10.650  20.267  0.00  0.00    +0.000 C 
BRANCH  24  25
ATOM     25  C   UNL     1      -1.657  10.666  18.971  0.00  0.00    +0.000 A 
ATOM     26  C   UNL     1      -2.483   9.587  18.620  0.00  0.00    +0.000 A 
ATOM     27  C   UNL     1      -3.095   9.545  17.366  0.00  0.00    +0.000 A 
ATOM     28  C   UNL     1      -2.911  10.590  16.463  0.00  0.00    +0.000 A 
ATOM     29  C   UNL     1      -2.154  11.699  16.830  0.00  0.00    +0.000 A 
ATOM     30  C   UNL     1      -1.539  11.742  18.080  0.00  0.00    +0.000 A 
ENDBRANCH  24  25
ENDBRANCH  10  24
TORSDOF 4
ENDMDL
