MODEL 1
REMARK VINA RESULT:      -7.8      0.000      0.000
REMARK  Name = 
REMARK  1 active torsions:
REMARK  status: ('A' for Active; 'I' for Inactive)
REMARK    1  A    between atoms: C_4  and  O_5
REMARK                            x       y       z     vdW  Elec       q    Type
REMARK                         _______ _______ _______ _____ _____    ______ ____
ROOT
ATOM      1  O   UNL     1       0.203   1.592  18.225  0.00  0.00    +0.000 OA
ATOM      2  C   UNL     1       0.898   2.405  18.823  0.00  0.00    +0.000 A 
ATOM      3  C   UNL     1       0.302   3.233  19.923  0.00  0.00    +0.000 A 
ATOM      4  C   UNL     1       1.242   3.694  20.759  0.00  0.00    +0.000 A 
ATOM      5  C   UNL     1       2.165   4.539  19.998  0.00  0.00    +0.000 A 
ATOM      6  C   UNL     1       2.390   5.890  20.238  0.00  0.00    +0.000 A 
ATOM      7  C   UNL     1       3.275   6.576  19.410  0.00  0.00    +0.000 A 
ATOM      8  C   UNL     1       4.022   5.873  18.470  0.00  0.00    +0.000 A 
ATOM      9  C   UNL     1       3.827   4.510  18.228  0.00  0.00    +0.000 A 
ATOM     10  C   UNL     1       2.787   3.895  18.915  0.00  0.00    +0.000 A 
ATOM     11  O   UNL     1       2.245   2.651  18.501  0.00  0.00    +0.000 OA
ATOM     12  C   UNL     1       4.769   3.818  17.347  0.00  0.00    +0.000 C 
ATOM     13  C   UNL     1       5.926   4.451  17.090  0.00  0.00    +0.000 C 
ATOM     14  C   UNL     1       6.198   5.859  17.575  0.00  0.00    +0.000 C 
ATOM     15  C   UNL     1       7.019   6.674  16.557  0.00  0.00    +0.000 C 
ATOM     16  C   UNL     1       7.702   7.736  17.403  0.00  0.00    +0.000 C 
ATOM     17  C   UNL     1       8.151   6.951  18.624  0.00  0.00    +0.000 C 
ATOM     18  C   UNL     1       7.031   5.942  18.880  0.00  0.00    +0.000 C 
ATOM     19  O   UNL     1       4.973   6.599  17.786  0.00  0.00    +0.000 OA
ENDROOT
BRANCH   4  20
ATOM     20  O   UNL     1       1.927   2.836  21.602  0.00  0.00    +0.000 OA
ATOM     21  H   UNL     1       2.572   2.330  21.076  0.00  0.00    +0.000 HD
ENDBRANCH   4  20
TORSDOF 1
ENDMDL
MODEL 2
REMARK VINA RESULT:      -7.6      2.188      6.008
REMARK  Name = 
REMARK  1 active torsions:
REMARK  status: ('A' for Active; 'I' for Inactive)
REMARK    1  A    between atoms: C_4  and  O_5
REMARK                            x       y       z     vdW  Elec       q    Type
REMARK                         _______ _______ _______ _____ _____    ______ ____
ROOT
ATOM      1  O   UNL     1       6.346   3.589  13.159  0.00  0.00    +0.000 OA
ATOM      2  C   UNL     1       6.107   4.150  14.222  0.00  0.00    +0.000 A 
ATOM      3  C   UNL     1       7.123   5.074  14.825  0.00  0.00    +0.000 A 
ATOM      4  C   UNL     1       6.559   5.937  15.680  0.00  0.00    +0.000 A 
ATOM      5  C   UNL     1       5.934   5.175  16.763  0.00  0.00    +0.000 A 
ATOM      6  C   UNL     1       6.280   5.269  18.107  0.00  0.00    +0.000 A 
ATOM      7  C   UNL     1       5.619   4.456  19.024  0.00  0.00    +0.000 A 
ATOM      8  C   UNL     1       4.536   3.689  18.607  0.00  0.00    +0.000 A 
ATOM      9  C   UNL     1       4.157   3.598  17.264  0.00  0.00    +0.000 A 
ATOM     10  C   UNL     1       4.967   4.248  16.341  0.00  0.00    +0.000 A 
ATOM     11  O   UNL     1       4.927   3.937  14.957  0.00  0.00    +0.000 OA
ATOM     12  C   UNL     1       2.908   2.908  16.939  0.00  0.00    +0.000 C 
ATOM     13  C   UNL     1       2.058   2.692  17.957  0.00  0.00    +0.000 C 
ATOM     14  C   UNL     1       2.418   3.026  19.389  0.00  0.00    +0.000 C 
ATOM     15  C   UNL     1       1.838   2.003  20.385  0.00  0.00    +0.000 C 
ATOM     16  C   UNL     1       1.740   2.777  21.690  0.00  0.00    +0.000 C 
ATOM     17  C   UNL     1       1.201   4.123  21.239  0.00  0.00    +0.000 C 
ATOM     18  C   UNL     1       1.872   4.388  19.891  0.00  0.00    +0.000 C 
ATOM     19  O   UNL     1       3.850   3.020  19.598  0.00  0.00    +0.000 OA
ENDROOT
BRANCH   4  20
ATOM     20  O   UNL     1       5.724   6.944  15.228  0.00  0.00    +0.000 OA
ATOM     21  H   UNL     1       5.830   7.028  14.263  0.00  0.00    +0.000 HD
ENDBRANCH   4  20
TORSDOF 1
ENDMDL
MODEL 3
REMARK VINA RESULT:      -7.1      3.484      6.107
REMARK  Name = 
REMARK  1 active torsions:
REMARK  status: ('A' for Active; 'I' for Inactive)
REMARK    1  A    between atoms: C_4  and  O_5
REMARK                            x       y       z     vdW  Elec       q    Type
REMARK                         _______ _______ _______ _____ _____    ______ ____
ROOT
ATOM      1  O   UNL     1       2.618  12.201  17.828  0.00  0.00    +0.000 OA
ATOM      2  C   UNL     1       2.005  11.256  18.311  0.00  0.00    +0.000 A 
ATOM      3  C   UNL     1       1.044  11.486  19.439  0.00  0.00    +0.000 A 
ATOM      4  C   UNL     1       0.142  10.499  19.528  0.00  0.00    +0.000 A 
ATOM      5  C   UNL     1       0.852   9.244  19.781  0.00  0.00    +0.000 A 
ATOM      6  C   UNL     1       0.687   8.448  20.909  0.00  0.00    +0.000 A 
ATOM      7  C   UNL     1       1.456   7.293  21.029  0.00  0.00    +0.000 A 
ATOM      8  C   UNL     1       2.252   6.884  19.964  0.00  0.00    +0.000 A 
ATOM      9  C   UNL     1       2.415   7.658  18.811  0.00  0.00    +0.000 A 
ATOM     10  C   UNL     1       1.807   8.908  18.807  0.00  0.00    +0.000 A 
ATOM     11  O   UNL     1       2.189   9.926  17.894  0.00  0.00    +0.000 OA
ATOM     12  C   UNL     1       3.130   7.075  17.675  0.00  0.00    +0.000 C 
ATOM     13  C   UNL     1       3.300   5.741  17.693  0.00  0.00    +0.000 C 
ATOM     14  C   UNL     1       2.890   4.895  18.880  0.00  0.00    +0.000 C 
ATOM     15  C   UNL     1       3.865   3.726  19.121  0.00  0.00    +0.000 C 
ATOM     16  C   UNL     1       3.026   2.695  19.859  0.00  0.00    +0.000 C 
ATOM     17  C   UNL     1       1.709   2.736  19.105  0.00  0.00    +0.000 C 
ATOM     18  C   UNL     1       1.508   4.206  18.735  0.00  0.00    +0.000 C 
ATOM     19  O   UNL     1       2.874   5.663  20.107  0.00  0.00    +0.000 OA
ENDROOT
BRANCH   4  20
ATOM     20  O   UNL     1      -0.834  10.338  18.560  0.00  0.00    +0.000 OA
ATOM     21  H   UNL     1      -1.703  10.298  18.996  0.00  0.00    +0.000 HD
ENDBRANCH   4  20
TORSDOF 1
ENDMDL
MODEL 4
REMARK VINA RESULT:      -6.8      3.085      5.366
REMARK  Name = 
REMARK  1 active torsions:
REMARK  status: ('A' for Active; 'I' for Inactive)
REMARK    1  A    between atoms: C_4  and  O_5
REMARK                            x       y       z     vdW  Elec       q    Type
REMARK                         _______ _______ _______ _____ _____    ______ ____
ROOT
ATOM      1  O   UNL     1       2.778   2.742  22.013  0.00  0.00    +0.000 OA
ATOM      2  C   UNL     1       2.471   3.438  21.051  0.00  0.00    +0.000 A 
ATOM      3  C   UNL     1       2.957   3.074  19.680  0.00  0.00    +0.000 A 
ATOM      4  C   UNL     1       2.186   3.611  18.725  0.00  0.00    +0.000 A 
ATOM      5  C   UNL     1       2.234   5.069  18.856  0.00  0.00    +0.000 A 
ATOM      6  C   UNL     1       2.707   5.941  17.881  0.00  0.00    +0.000 A 
ATOM      7  C   UNL     1       2.722   7.305  18.159  0.00  0.00    +0.000 A 
ATOM      8  C   UNL     1       2.131   7.776  19.327  0.00  0.00    +0.000 A 
ATOM      9  C   UNL     1       1.630   6.917  20.310  0.00  0.00    +0.000 A 
ATOM     10  C   UNL     1       1.822   5.556  20.107  0.00  0.00    +0.000 A 
ATOM     11  O   UNL     1       1.712   4.616  21.165  0.00  0.00    +0.000 OA
ATOM     12  C   UNL     1       0.876   7.496  21.422  0.00  0.00    +0.000 C 
ATOM     13  C   UNL     1       0.444   8.759  21.262  0.00  0.00    +0.000 C 
ATOM     14  C   UNL     1       0.820   9.590  20.053  0.00  0.00    +0.000 C 
ATOM     15  C   UNL     1       1.025  11.075  20.413  0.00  0.00    +0.000 C 
ATOM     16  C   UNL     1       0.769  11.807  19.106  0.00  0.00    +0.000 C 
ATOM     17  C   UNL     1      -0.450  11.089  18.555  0.00  0.00    +0.000 C 
ATOM     18  C   UNL     1      -0.251   9.621  18.933  0.00  0.00    +0.000 C 
ATOM     19  O   UNL     1       2.064   9.146  19.463  0.00  0.00    +0.000 OA
ENDROOT
BRANCH   4  20
ATOM     20  O   UNL     1       0.890   3.167  18.524  0.00  0.00    +0.000 OA
ATOM     21  H   UNL     1       0.337   3.926  18.265  0.00  0.00    +0.000 HD
ENDBRANCH   4  20
TORSDOF 1
ENDMDL
MODEL 5
REMARK VINA RESULT:      -6.7      2.156      2.863
REMARK  Name = 
REMARK  1 active torsions:
REMARK  status: ('A' for Active; 'I' for Inactive)
REMARK    1  A    between atoms: C_4  and  O_5
REMARK                            x       y       z     vdW  Elec       q    Type
REMARK                         _______ _______ _______ _____ _____    ______ ____
ROOT
ATOM      1  O   UNL     1       2.450   2.293  22.619  0.00  0.00    +0.000 OA
ATOM      2  C   UNL     1       2.291   2.900  21.566  0.00  0.00    +0.000 A 
ATOM      3  C   UNL     1       0.934   2.949  20.928  0.00  0.00    +0.000 A 
ATOM      4  C   UNL     1       0.817   3.992  20.096  0.00  0.00    +0.000 A 
ATOM      5  C   UNL     1       1.817   3.852  19.034  0.00  0.00    +0.000 A 
ATOM      6  C   UNL     1       1.529   3.731  17.680  0.00  0.00    +0.000 A 
ATOM      7  C   UNL     1       2.585   3.572  16.785  0.00  0.00    +0.000 A 
ATOM      8  C   UNL     1       3.894   3.691  17.240  0.00  0.00    +0.000 A 
ATOM      9  C   UNL     1       4.205   3.835  18.595  0.00  0.00    +0.000 A 
ATOM     10  C   UNL     1       3.143   3.773  19.490  0.00  0.00    +0.000 A 
ATOM     11  O   UNL     1       3.341   3.530  20.874  0.00  0.00    +0.000 OA
ATOM     12  C   UNL     1       5.592   4.123  18.965  0.00  0.00    +0.000 C 
ATOM     13  C   UNL     1       6.402   4.542  17.978  0.00  0.00    +0.000 C 
ATOM     14  C   UNL     1       5.949   4.595  16.534  0.00  0.00    +0.000 C 
ATOM     15  C   UNL     1       7.083   4.227  15.558  0.00  0.00    +0.000 C 
ATOM     16  C   UNL     1       6.684   4.908  14.259  0.00  0.00    +0.000 C 
ATOM     17  C   UNL     1       6.198   6.267  14.732  0.00  0.00    +0.000 C 
ATOM     18  C   UNL     1       5.482   5.994  16.055  0.00  0.00    +0.000 C 
ATOM     19  O   UNL     1       4.876   3.659  16.274  0.00  0.00    +0.000 OA
ENDROOT
BRANCH   4  20
ATOM     20  O   UNL     1       0.777   5.288  20.580  0.00  0.00    +0.000 OA
ATOM     21  H   UNL     1       0.821   5.904  19.828  0.00  0.00    +0.000 HD
ENDBRANCH   4  20
TORSDOF 1
ENDMDL
MODEL 6
REMARK VINA RESULT:      -6.6      2.830      5.597
REMARK  Name = 
REMARK  1 active torsions:
REMARK  status: ('A' for Active; 'I' for Inactive)
REMARK    1  A    between atoms: C_4  and  O_5
REMARK                            x       y       z     vdW  Elec       q    Type
REMARK                         _______ _______ _______ _____ _____    ______ ____
ROOT
ATOM      1  O   UNL     1       4.815   4.757  15.629  0.00  0.00    +0.000 OA
ATOM      2  C   UNL     1       4.633   4.876  16.835  0.00  0.00    +0.000 A 
ATOM      3  C   UNL     1       4.901   3.718  17.749  0.00  0.00    +0.000 A 
ATOM      4  C   UNL     1       5.114   4.122  19.009  0.00  0.00    +0.000 A 
ATOM      5  C   UNL     1       3.912   4.811  19.484  0.00  0.00    +0.000 A 
ATOM      6  C   UNL     1       3.138   4.408  20.566  0.00  0.00    +0.000 A 
ATOM      7  C   UNL     1       2.001   5.147  20.883  0.00  0.00    +0.000 A 
ATOM      8  C   UNL     1       1.750   6.343  20.218  0.00  0.00    +0.000 A 
ATOM      9  C   UNL     1       2.529   6.778  19.142  0.00  0.00    +0.000 A 
ATOM     10  C   UNL     1       3.528   5.916  18.705  0.00  0.00    +0.000 A 
ATOM     11  O   UNL     1       4.128   6.048  17.426  0.00  0.00    +0.000 OA
ATOM     12  C   UNL     1       2.300   8.123  18.614  0.00  0.00    +0.000 C 
ATOM     13  C   UNL     1       1.589   8.960  19.391  0.00  0.00    +0.000 C 
ATOM     14  C   UNL     1       0.949   8.506  20.685  0.00  0.00    +0.000 C 
ATOM     15  C   UNL     1      -0.410   9.192  20.930  0.00  0.00    +0.000 C 
ATOM     16  C   UNL     1      -0.584   9.132  22.439  0.00  0.00    +0.000 C 
ATOM     17  C   UNL     1       0.802   9.487  22.948  0.00  0.00    +0.000 C 
ATOM     18  C   UNL     1       1.768   8.833  21.960  0.00  0.00    +0.000 C 
ATOM     19  O   UNL     1       0.685   7.083  20.683  0.00  0.00    +0.000 OA
ENDROOT
BRANCH   4  20
ATOM     20  O   UNL     1       6.261   4.819  19.348  0.00  0.00    +0.000 OA
ATOM     21  H   UNL     1       6.062   5.773  19.332  0.00  0.00    +0.000 HD
ENDBRANCH   4  20
TORSDOF 1
ENDMDL
MODEL 7
REMARK VINA RESULT:      -6.6      1.727      6.262
REMARK  Name = 
REMARK  1 active torsions:
REMARK  status: ('A' for Active; 'I' for Inactive)
REMARK    1  A    between atoms: C_4  and  O_5
REMARK                            x       y       z     vdW  Elec       q    Type
REMARK                         _______ _______ _______ _____ _____    ______ ____
ROOT
ATOM      1  O   UNL     1       8.879   6.903  19.234  0.00  0.00    +0.000 OA
ATOM      2  C   UNL     1       7.859   6.640  18.606  0.00  0.00    +0.000 A 
ATOM      3  C   UNL     1       7.393   7.559  17.518  0.00  0.00    +0.000 A 
ATOM      4  C   UNL     1       6.591   6.930  16.649  0.00  0.00    +0.000 A 
ATOM      5  C   UNL     1       5.414   6.444  17.373  0.00  0.00    +0.000 A 
ATOM      6  C   UNL     1       4.104   6.828  17.112  0.00  0.00    +0.000 A 
ATOM      7  C   UNL     1       3.086   6.306  17.906  0.00  0.00    +0.000 A 
ATOM      8  C   UNL     1       3.378   5.308  18.830  0.00  0.00    +0.000 A 
ATOM      9  C   UNL     1       4.686   4.891  19.092  0.00  0.00    +0.000 A 
ATOM     10  C   UNL     1       5.704   5.579  18.442  0.00  0.00    +0.000 A 
ATOM     11  O   UNL     1       7.051   5.523  18.885  0.00  0.00    +0.000 OA
ATOM     12  C   UNL     1       4.887   3.722  19.950  0.00  0.00    +0.000 C 
ATOM     13  C   UNL     1       3.812   2.944  20.166  0.00  0.00    +0.000 C 
ATOM     14  C   UNL     1       2.435   3.317  19.658  0.00  0.00    +0.000 C 
ATOM     15  C   UNL     1       1.323   2.904  20.643  0.00  0.00    +0.000 C 
ATOM     16  C   UNL     1       0.090   2.765  19.766  0.00  0.00    +0.000 C 
ATOM     17  C   UNL     1       0.632   2.051  18.540  0.00  0.00    +0.000 C 
ATOM     18  C   UNL     1       2.030   2.632  18.328  0.00  0.00    +0.000 C 
ATOM     19  O   UNL     1       2.299   4.746  19.477  0.00  0.00    +0.000 OA
ENDROOT
BRANCH   4  20
ATOM     20  O   UNL     1       7.089   5.962  15.793  0.00  0.00    +0.000 OA
ATOM     21  H   UNL     1       6.353   5.600  15.269  0.00  0.00    +0.000 HD
ENDBRANCH   4  20
TORSDOF 1
ENDMDL
MODEL 8
REMARK VINA RESULT:      -6.5      3.502      5.029
REMARK  Name = 
REMARK  1 active torsions:
REMARK  status: ('A' for Active; 'I' for Inactive)
REMARK    1  A    between atoms: C_4  and  O_5
REMARK                            x       y       z     vdW  Elec       q    Type
REMARK                         _______ _______ _______ _____ _____    ______ ____
ROOT
ATOM      1  O   UNL     1      -0.924   8.597  22.768  0.00  0.00    +0.000 OA
ATOM      2  C   UNL     1      -0.147   8.915  21.875  0.00  0.00    +0.000 A 
ATOM      3  C   UNL     1      -0.408  10.145  21.058  0.00  0.00    +0.000 A 
ATOM      4  C   UNL     1       0.712  10.605  20.485  0.00  0.00    +0.000 A 
ATOM      5  C   UNL     1       1.236   9.567  19.594  0.00  0.00    +0.000 A 
ATOM      6  C   UNL     1       1.400   9.704  18.220  0.00  0.00    +0.000 A 
ATOM      7  C   UNL     1       1.882   8.617  17.495  0.00  0.00    +0.000 A 
ATOM      8  C   UNL     1       2.326   7.484  18.168  0.00  0.00    +0.000 A 
ATOM      9  C   UNL     1       2.191   7.334  19.551  0.00  0.00    +0.000 A 
ATOM     10  C   UNL     1       1.511   8.342  20.225  0.00  0.00    +0.000 A 
ATOM     11  O   UNL     1       0.980   8.149  21.527  0.00  0.00    +0.000 OA
ATOM     12  C   UNL     1       2.838   6.190  20.195  0.00  0.00    +0.000 C 
ATOM     13  C   UNL     1       3.773   5.546  19.475  0.00  0.00    +0.000 C 
ATOM     14  C   UNL     1       4.059   5.898  18.031  0.00  0.00    +0.000 C 
ATOM     15  C   UNL     1       4.403   4.653  17.189  0.00  0.00    +0.000 C 
ATOM     16  C   UNL     1       5.230   5.205  16.040  0.00  0.00    +0.000 C 
ATOM     17  C   UNL     1       6.139   6.204  16.733  0.00  0.00    +0.000 C 
ATOM     18  C   UNL     1       5.275   6.837  17.824  0.00  0.00    +0.000 C 
ATOM     19  O   UNL     1       2.915   6.510  17.391  0.00  0.00    +0.000 OA
ENDROOT
BRANCH   4  20
ATOM     20  O   UNL     1       1.721  11.169  21.246  0.00  0.00    +0.000 OA
ATOM     21  H   UNL     1       2.331  11.643  20.654  0.00  0.00    +0.000 HD
ENDBRANCH   4  20
TORSDOF 1
ENDMDL
MODEL 9
REMARK VINA RESULT:      -6.4      2.270      3.633
REMARK  Name = 
REMARK  1 active torsions:
REMARK  status: ('A' for Active; 'I' for Inactive)
REMARK    1  A    between atoms: C_4  and  O_5
REMARK                            x       y       z     vdW  Elec       q    Type
REMARK                         _______ _______ _______ _____ _____    ______ ____
ROOT
ATOM      1  O   UNL     1       1.584   5.833  21.169  0.00  0.00    +0.000 OA
ATOM      2  C   UNL     1       1.801   5.069  20.234  0.00  0.00    +0.000 A 
ATOM      3  C   UNL     1       1.491   3.609  20.375  0.00  0.00    +0.000 A 
ATOM      4  C   UNL     1       1.331   3.021  19.181  0.00  0.00    +0.000 A 
ATOM      5  C   UNL     1       2.581   3.154  18.429  0.00  0.00    +0.000 A 
ATOM      6  C   UNL     1       3.357   2.091  17.980  0.00  0.00    +0.000 A 
ATOM      7  C   UNL     1       4.541   2.371  17.302  0.00  0.00    +0.000 A 
ATOM      8  C   UNL     1       4.842   3.685  16.957  0.00  0.00    +0.000 A 
ATOM      9  C   UNL     1       4.062   4.766  17.379  0.00  0.00    +0.000 A 
ATOM     10  C   UNL     1       3.007   4.479  18.236  0.00  0.00    +0.000 A 
ATOM     11  O   UNL     1       2.384   5.482  19.023  0.00  0.00    +0.000 OA
ATOM     12  C   UNL     1       4.354   6.091  16.829  0.00  0.00    +0.000 C 
ATOM     13  C   UNL     1       5.128   6.129  15.731  0.00  0.00    +0.000 C 
ATOM     14  C   UNL     1       5.773   4.884  15.159  0.00  0.00    +0.000 C 
ATOM     15  C   UNL     1       7.173   5.172  14.582  0.00  0.00    +0.000 C 
ATOM     16  C   UNL     1       7.380   4.069  13.556  0.00  0.00    +0.000 C 
ATOM     17  C   UNL     1       6.029   3.999  12.867  0.00  0.00    +0.000 C 
ATOM     18  C   UNL     1       5.004   4.245  13.975  0.00  0.00    +0.000 C 
ATOM     19  O   UNL     1       5.958   3.864  16.169  0.00  0.00    +0.000 OA
ENDROOT
BRANCH   4  20
ATOM     20  O   UNL     1       0.234   3.309  18.388  0.00  0.00    +0.000 OA
ATOM     21  H   UNL     1      -0.121   2.475  18.032  0.00  0.00    +0.000 HD
ENDBRANCH   4  20
TORSDOF 1
ENDMDL
