MODEL 1
REMARK VINA RESULT:      -7.6      0.000      0.000
REMARK  Name = 
REMARK  3 active torsions:
REMARK  status: ('A' for Active; 'I' for Inactive)
REMARK    1  A    between atoms: C_2  and  C_17
REMARK    2  A    between atoms: C_7  and  S_8
REMARK    3  A    between atoms: S_8  and  N_11
REMARK                            x       y       z     vdW  Elec       q    Type
REMARK                         _______ _______ _______ _____ _____    ______ ____
ROOT
ATOM      1  O   UNL     1       1.828   8.856  19.443  0.00  0.00    +0.000 OA
ATOM      2  C   UNL     1       1.175   8.452  20.398  0.00  0.00    +0.000 C 
ATOM      3  N   UNL     1       1.191   7.179  20.918  0.00  0.00    +0.000 N 
ATOM      4  C   UNL     1       1.917   6.117  20.442  0.00  0.00    +0.000 A 
ATOM      5  N   UNL     1       2.048   4.990  21.111  0.00  0.00    +0.000 NA
ATOM      6  N   UNL     1       2.935   4.122  20.494  0.00  0.00    +0.000 NA
ATOM      7  C   UNL     1       3.378   4.632  19.363  0.00  0.00    +0.000 A 
ATOM      8  S   UNL     1       2.713   6.139  18.935  0.00  0.00    +0.000 S 
ATOM      9  H   UNL     1       0.699   6.981  21.782  0.00  0.00    +0.000 HD
ENDROOT
BRANCH   2  10
ATOM     10  C   UNL     1       0.346   9.451  21.131  0.00  0.00    +0.000 A 
ATOM     11  C   UNL     1       0.208   9.248  22.517  0.00  0.00    +0.000 A 
ATOM     12  C   UNL     1      -0.517  10.144  23.302  0.00  0.00    +0.000 A 
ATOM     13  C   UNL     1      -1.108  11.257  22.716  0.00  0.00    +0.000 A 
ATOM     14  C   UNL     1      -0.980  11.470  21.342  0.00  0.00    +0.000 A 
ATOM     15  C   UNL     1      -0.255  10.574  20.547  0.00  0.00    +0.000 A 
ATOM     16 CL   UNL     1      -0.131  10.960  18.867  0.00  0.00    +0.000 Cl
ENDBRANCH   2  10
BRANCH   7  17
ATOM     17  S   UNL     1       4.623   3.951  18.323  0.00  0.00    +0.000 S 
ATOM     18  O   UNL     1       5.844   3.993  19.108  0.00  0.00    +0.000 OA
ATOM     19  O   UNL     1       4.099   2.690  17.835  0.00  0.00    +0.000 OA
BRANCH  17  20
ATOM     20  N   UNL     1       4.854   4.965  16.960  0.00  0.00    +0.000 NA
ATOM     21  C   UNL     1       5.004   4.273  15.658  0.00  0.00    +0.000 C 
ATOM     22  C   UNL     1       6.503   4.131  15.477  0.00  0.00    +0.000 C 
ATOM     23  C   UNL     1       7.070   5.393  16.101  0.00  0.00    +0.000 C 
ATOM     24  C   UNL     1       6.011   5.890  17.082  0.00  0.00    +0.000 C 
ENDBRANCH  17  20
ENDBRANCH   7  17
TORSDOF 3
ENDMDL
MODEL 2
REMARK VINA RESULT:      -7.5      5.481      7.677
REMARK  Name = 
REMARK  3 active torsions:
REMARK  status: ('A' for Active; 'I' for Inactive)
REMARK    1  A    between atoms: C_2  and  C_17
REMARK    2  A    between atoms: C_7  and  S_8
REMARK    3  A    between atoms: S_8  and  N_11
REMARK                            x       y       z     vdW  Elec       q    Type
REMARK                         _______ _______ _______ _____ _____    ______ ____
ROOT
ATOM      1  O   UNL     1       8.160  10.355  17.506  0.00  0.00    +0.000 OA
ATOM      2  C   UNL     1       8.874   9.955  18.417  0.00  0.00    +0.000 C 
ATOM      3  N   UNL     1       8.903   8.679  18.931  0.00  0.00    +0.000 N 
ATOM      4  C   UNL     1       8.114   7.629  18.539  0.00  0.00    +0.000 A 
ATOM      5  N   UNL     1       8.340   6.389  18.923  0.00  0.00    +0.000 NA
ATOM      6  N   UNL     1       7.497   5.489  18.292  0.00  0.00    +0.000 NA
ATOM      7  C   UNL     1       6.646   6.118  17.506  0.00  0.00    +0.000 A 
ATOM      8  S   UNL     1       6.755   7.815  17.528  0.00  0.00    +0.000 S 
ATOM      9  H   UNL     1       9.614   8.424  19.607  0.00  0.00    +0.000 HD
ENDROOT
BRANCH   2  10
ATOM     10  C   UNL     1       9.875  10.910  18.971  0.00  0.00    +0.000 A 
ATOM     11  C   UNL     1      10.860  11.368  18.075  0.00  0.00    +0.000 A 
ATOM     12  C   UNL     1      11.823  12.292  18.482  0.00  0.00    +0.000 A 
ATOM     13  C   UNL     1      11.811  12.774  19.786  0.00  0.00    +0.000 A 
ATOM     14  C   UNL     1      10.841  12.328  20.685  0.00  0.00    +0.000 A 
ATOM     15  C   UNL     1       9.872  11.400  20.284  0.00  0.00    +0.000 A 
ATOM     16 CL   UNL     1       8.698  10.949  21.470  0.00  0.00    +0.000 Cl
ENDBRANCH   2  10
BRANCH   7  17
ATOM     17  S   UNL     1       5.493   5.375  16.404  0.00  0.00    +0.000 S 
ATOM     18  O   UNL     1       5.236   6.376  15.385  0.00  0.00    +0.000 OA
ATOM     19  O   UNL     1       6.044   4.082  16.050  0.00  0.00    +0.000 OA
BRANCH  17  20
ATOM     20  N   UNL     1       4.016   5.087  17.225  0.00  0.00    +0.000 NA
ATOM     21  C   UNL     1       4.026   5.344  18.685  0.00  0.00    +0.000 C 
ATOM     22  C   UNL     1       4.330   3.993  19.303  0.00  0.00    +0.000 C 
ATOM     23  C   UNL     1       3.633   3.004  18.385  0.00  0.00    +0.000 C 
ATOM     24  C   UNL     1       3.478   3.713  17.042  0.00  0.00    +0.000 C 
ENDBRANCH  17  20
ENDBRANCH   7  17
TORSDOF 3
ENDMDL
MODEL 3
REMARK VINA RESULT:      -7.5      1.901      2.263
REMARK  Name = 
REMARK  3 active torsions:
REMARK  status: ('A' for Active; 'I' for Inactive)
REMARK    1  A    between atoms: C_2  and  C_17
REMARK    2  A    between atoms: C_7  and  S_8
REMARK    3  A    between atoms: S_8  and  N_11
REMARK                            x       y       z     vdW  Elec       q    Type
REMARK                         _______ _______ _______ _____ _____    ______ ____
ROOT
ATOM      1  O   UNL     1       2.083   8.971  18.529  0.00  0.00    +0.000 OA
ATOM      2  C   UNL     1       1.825   8.361  19.559  0.00  0.00    +0.000 C 
ATOM      3  N   UNL     1       2.309   7.124  19.919  0.00  0.00    +0.000 N 
ATOM      4  C   UNL     1       3.143   6.332  19.173  0.00  0.00    +0.000 A 
ATOM      5  N   UNL     1       3.733   5.262  19.666  0.00  0.00    +0.000 NA
ATOM      6  N   UNL     1       4.631   4.706  18.768  0.00  0.00    +0.000 NA
ATOM      7  C   UNL     1       4.621   5.366  17.627  0.00  0.00    +0.000 A 
ATOM      8  S   UNL     1       3.495   6.639  17.534  0.00  0.00    +0.000 S 
ATOM      9  H   UNL     1       2.123   6.761  20.846  0.00  0.00    +0.000 HD
ENDROOT
BRANCH   2  10
ATOM     10  C   UNL     1       0.976   9.054  20.570  0.00  0.00    +0.000 A 
ATOM     11  C   UNL     1       1.259   8.770  21.920  0.00  0.00    +0.000 A 
ATOM     12  C   UNL     1       0.548   9.392  22.946  0.00  0.00    +0.000 A 
ATOM     13  C   UNL     1      -0.450  10.310  22.638  0.00  0.00    +0.000 A 
ATOM     14  C   UNL     1      -0.742  10.600  21.304  0.00  0.00    +0.000 A 
ATOM     15  C   UNL     1      -0.033   9.978  20.269  0.00  0.00    +0.000 A 
ATOM     16 CL   UNL     1      -0.453  10.443  18.658  0.00  0.00    +0.000 Cl
ENDBRANCH   2  10
BRANCH   7  17
ATOM     17  S   UNL     1       5.695   5.108  16.258  0.00  0.00    +0.000 S 
ATOM     18  O   UNL     1       5.626   3.685  15.979  0.00  0.00    +0.000 OA
ATOM     19  O   UNL     1       5.311   6.080  15.253  0.00  0.00    +0.000 OA
BRANCH  17  20
ATOM     20  N   UNL     1       7.308   5.464  16.716  0.00  0.00    +0.000 NA
ATOM     21  C   UNL     1       7.865   4.641  17.816  0.00  0.00    +0.000 C 
ATOM     22  C   UNL     1       7.606   5.459  19.067  0.00  0.00    +0.000 C 
ATOM     23  C   UNL     1       7.767   6.896  18.606  0.00  0.00    +0.000 C 
ATOM     24  C   UNL     1       7.530   6.884  17.098  0.00  0.00    +0.000 C 
ENDBRANCH  17  20
ENDBRANCH   7  17
TORSDOF 3
ENDMDL
MODEL 4
REMARK VINA RESULT:      -7.4      2.765      3.288
REMARK  Name = 
REMARK  3 active torsions:
REMARK  status: ('A' for Active; 'I' for Inactive)
REMARK    1  A    between atoms: C_2  and  C_17
REMARK    2  A    between atoms: C_7  and  S_8
REMARK    3  A    between atoms: S_8  and  N_11
REMARK                            x       y       z     vdW  Elec       q    Type
REMARK                         _______ _______ _______ _____ _____    ______ ____
ROOT
ATOM      1  O   UNL     1       2.243   9.766  17.444  0.00  0.00    +0.000 OA
ATOM      2  C   UNL     1       1.527   9.785  18.438  0.00  0.00    +0.000 C 
ATOM      3  N   UNL     1       1.414   8.791  19.381  0.00  0.00    +0.000 N 
ATOM      4  C   UNL     1       2.058   7.580  19.365  0.00  0.00    +0.000 A 
ATOM      5  N   UNL     1       2.068   6.768  20.402  0.00  0.00    +0.000 NA
ATOM      6  N   UNL     1       2.894   5.675  20.195  0.00  0.00    +0.000 NA
ATOM      7  C   UNL     1       3.416   5.705  18.986  0.00  0.00    +0.000 A 
ATOM      8  S   UNL     1       2.900   6.996  18.004  0.00  0.00    +0.000 S 
ATOM      9  H   UNL     1       0.879   8.956  20.226  0.00  0.00    +0.000 HD
ENDROOT
BRANCH   2  10
ATOM     10  C   UNL     1       0.766  11.038  18.709  0.00  0.00    +0.000 A 
ATOM     11  C   UNL     1       1.509  12.117  19.226  0.00  0.00    +0.000 A 
ATOM     12  C   UNL     1       0.900  13.346  19.481  0.00  0.00    +0.000 A 
ATOM     13  C   UNL     1      -0.454  13.517  19.218  0.00  0.00    +0.000 A 
ATOM     14  C   UNL     1      -1.202  12.455  18.707  0.00  0.00    +0.000 A 
ATOM     15  C   UNL     1      -0.599  11.217  18.449  0.00  0.00    +0.000 A 
ATOM     16 CL   UNL     1      -1.614   9.989  17.780  0.00  0.00    +0.000 Cl
ENDBRANCH   2  10
BRANCH   7  17
ATOM     17  S   UNL     1       4.629   4.606  18.340  0.00  0.00    +0.000 S 
ATOM     18  O   UNL     1       5.105   5.234  17.121  0.00  0.00    +0.000 OA
ATOM     19  O   UNL     1       5.540   4.321  19.432  0.00  0.00    +0.000 OA
BRANCH  17  20
ATOM     20  N   UNL     1       3.887   3.125  17.900  0.00  0.00    +0.000 NA
ATOM     21  C   UNL     1       2.593   3.237  17.185  0.00  0.00    +0.000 C 
ATOM     22  C   UNL     1       1.549   3.132  18.280  0.00  0.00    +0.000 C 
ATOM     23  C   UNL     1       2.154   2.156  19.273  0.00  0.00    +0.000 C 
ATOM     24  C   UNL     1       3.662   2.198  19.040  0.00  0.00    +0.000 C 
ENDBRANCH  17  20
ENDBRANCH   7  17
TORSDOF 3
ENDMDL
MODEL 5
REMARK VINA RESULT:      -7.4      1.086      1.517
REMARK  Name = 
REMARK  3 active torsions:
REMARK  status: ('A' for Active; 'I' for Inactive)
REMARK    1  A    between atoms: C_2  and  C_17
REMARK    2  A    between atoms: C_7  and  S_8
REMARK    3  A    between atoms: S_8  and  N_11
REMARK                            x       y       z     vdW  Elec       q    Type
REMARK                         _______ _______ _______ _____ _____    ______ ____
ROOT
ATOM      1  O   UNL     1       1.761   8.823  19.197  0.00  0.00    +0.000 OA
ATOM      2  C   UNL     1       1.282   8.464  20.266  0.00  0.00    +0.000 C 
ATOM      3  N   UNL     1       1.405   7.220  20.840  0.00  0.00    +0.000 N 
ATOM      4  C   UNL     1       2.061   6.142  20.304  0.00  0.00    +0.000 A 
ATOM      5  N   UNL     1       2.320   5.052  20.998  0.00  0.00    +0.000 NA
ATOM      6  N   UNL     1       3.108   4.161  20.287  0.00  0.00    +0.000 NA
ATOM      7  C   UNL     1       3.350   4.615  19.074  0.00  0.00    +0.000 A 
ATOM      8  S   UNL     1       2.597   6.091  18.687  0.00  0.00    +0.000 S 
ATOM      9  H   UNL     1       1.066   7.064  21.782  0.00  0.00    +0.000 HD
ENDROOT
BRANCH   2  10
ATOM     10  C   UNL     1       0.568   9.493  21.075  0.00  0.00    +0.000 A 
ATOM     11  C   UNL     1      -0.042   9.039  22.260  0.00  0.00    +0.000 A 
ATOM     12  C   UNL     1      -0.706   9.926  23.107  0.00  0.00    +0.000 A 
ATOM     13  C   UNL     1      -0.763  11.278  22.787  0.00  0.00    +0.000 A 
ATOM     14  C   UNL     1      -0.164  11.741  21.615  0.00  0.00    +0.000 A 
ATOM     15  C   UNL     1       0.503  10.856  20.758  0.00  0.00    +0.000 A 
ATOM     16 CL   UNL     1       1.241  11.548  19.356  0.00  0.00    +0.000 Cl
ENDBRANCH   2  10
BRANCH   7  17
ATOM     17  S   UNL     1       4.418   3.891  17.878  0.00  0.00    +0.000 S 
ATOM     18  O   UNL     1       4.217   2.459  18.002  0.00  0.00    +0.000 OA
ATOM     19  O   UNL     1       4.147   4.572  16.627  0.00  0.00    +0.000 OA
BRANCH  17  20
ATOM     20  N   UNL     1       6.049   4.218  18.290  0.00  0.00    +0.000 NA
ATOM     21  C   UNL     1       6.272   5.392  19.168  0.00  0.00    +0.000 C 
ATOM     22  C   UNL     1       6.559   6.531  18.208  0.00  0.00    +0.000 C 
ATOM     23  C   UNL     1       7.322   5.871  17.073  0.00  0.00    +0.000 C 
ATOM     24  C   UNL     1       6.947   4.392  17.118  0.00  0.00    +0.000 C 
ENDBRANCH  17  20
ENDBRANCH   7  17
TORSDOF 3
ENDMDL
MODEL 6
REMARK VINA RESULT:      -7.3      2.468      2.858
REMARK  Name = 
REMARK  3 active torsions:
REMARK  status: ('A' for Active; 'I' for Inactive)
REMARK    1  A    between atoms: C_2  and  C_17
REMARK    2  A    between atoms: C_7  and  S_8
REMARK    3  A    between atoms: S_8  and  N_11
REMARK                            x       y       z     vdW  Elec       q    Type
REMARK                         _______ _______ _______ _____ _____    ______ ____
ROOT
ATOM      1  O   UNL     1       2.347   9.825  17.439  0.00  0.00    +0.000 OA
ATOM      2  C   UNL     1       1.423   9.363  18.097  0.00  0.00    +0.000 C 
ATOM      3  N   UNL     1       1.428   8.174  18.789  0.00  0.00    +0.000 N 
ATOM      4  C   UNL     1       2.459   7.272  18.842  0.00  0.00    +0.000 A 
ATOM      5  N   UNL     1       2.476   6.264  19.690  0.00  0.00    +0.000 NA
ATOM      6  N   UNL     1       3.677   5.574  19.650  0.00  0.00    +0.000 NA
ATOM      7  C   UNL     1       4.475   6.077  18.730  0.00  0.00    +0.000 A 
ATOM      8  S   UNL     1       3.816   7.351  17.815  0.00  0.00    +0.000 S 
ATOM      9  H   UNL     1       0.651   7.941  19.396  0.00  0.00    +0.000 HD
ENDROOT
BRANCH   2  10
ATOM     10  C   UNL     1       0.199  10.202  18.241  0.00  0.00    +0.000 A 
ATOM     11  C   UNL     1      -0.968   9.712  17.624  0.00  0.00    +0.000 A 
ATOM     12  C   UNL     1      -2.176  10.402  17.729  0.00  0.00    +0.000 A 
ATOM     13  C   UNL     1      -2.236  11.586  18.456  0.00  0.00    +0.000 A 
ATOM     14  C   UNL     1      -1.086  12.084  19.072  0.00  0.00    +0.000 A 
ATOM     15  C   UNL     1       0.130  11.397  18.970  0.00  0.00    +0.000 A 
ATOM     16 CL   UNL     1       1.478  12.086  19.806  0.00  0.00    +0.000 Cl
ENDBRANCH   2  10
BRANCH   7  17
ATOM     17  S   UNL     1       6.146   5.616  18.426  0.00  0.00    +0.000 S 
ATOM     18  O   UNL     1       6.746   6.762  17.768  0.00  0.00    +0.000 OA
ATOM     19  O   UNL     1       6.668   5.128  19.688  0.00  0.00    +0.000 OA
BRANCH  17  20
ATOM     20  N   UNL     1       6.190   4.307  17.320  0.00  0.00    +0.000 NA
ATOM     21  C   UNL     1       7.217   4.394  16.255  0.00  0.00    +0.000 C 
ATOM     22  C   UNL     1       6.489   5.021  15.081  0.00  0.00    +0.000 C 
ATOM     23  C   UNL     1       5.081   4.461  15.180  0.00  0.00    +0.000 C 
ATOM     24  C   UNL     1       4.895   4.047  16.637  0.00  0.00    +0.000 C 
ENDBRANCH  17  20
ENDBRANCH   7  17
TORSDOF 3
ENDMDL
MODEL 7
REMARK VINA RESULT:      -7.3      2.073      2.929
REMARK  Name = 
REMARK  3 active torsions:
REMARK  status: ('A' for Active; 'I' for Inactive)
REMARK    1  A    between atoms: C_2  and  C_17
REMARK    2  A    between atoms: C_7  and  S_8
REMARK    3  A    between atoms: S_8  and  N_11
REMARK                            x       y       z     vdW  Elec       q    Type
REMARK                         _______ _______ _______ _____ _____    ______ ____
ROOT
ATOM      1  O   UNL     1       1.186   7.179  21.271  0.00  0.00    +0.000 OA
ATOM      2  C   UNL     1       1.230   8.195  20.588  0.00  0.00    +0.000 C 
ATOM      3  N   UNL     1       1.963   8.374  19.438  0.00  0.00    +0.000 N 
ATOM      4  C   UNL     1       2.807   7.459  18.864  0.00  0.00    +0.000 A 
ATOM      5  N   UNL     1       3.309   7.617  17.656  0.00  0.00    +0.000 NA
ATOM      6  N   UNL     1       4.020   6.502  17.241  0.00  0.00    +0.000 NA
ATOM      7  C   UNL     1       4.052   5.588  18.190  0.00  0.00    +0.000 A 
ATOM      8  S   UNL     1       3.302   6.031  19.651  0.00  0.00    +0.000 S 
ATOM      9  H   UNL     1       1.837   9.215  18.886  0.00  0.00    +0.000 HD
ENDROOT
BRANCH   2  10
ATOM     10  C   UNL     1       0.337   9.322  20.981  0.00  0.00    +0.000 A 
ATOM     11  C   UNL     1       0.169   9.530  22.363  0.00  0.00    +0.000 A 
ATOM     12  C   UNL     1      -0.617  10.580  22.838  0.00  0.00    +0.000 A 
ATOM     13  C   UNL     1      -1.239  11.440  21.940  0.00  0.00    +0.000 A 
ATOM     14  C   UNL     1      -1.082  11.245  20.567  0.00  0.00    +0.000 A 
ATOM     15  C   UNL     1      -0.296  10.192  20.083  0.00  0.00    +0.000 A 
ATOM     16 CL   UNL     1      -0.141  10.071  18.365  0.00  0.00    +0.000 Cl
ENDBRANCH   2  10
BRANCH   7  17
ATOM     17  S   UNL     1       4.714   3.963  18.057  0.00  0.00    +0.000 S 
ATOM     18  O   UNL     1       5.724   4.044  17.017  0.00  0.00    +0.000 OA
ATOM     19  O   UNL     1       5.068   3.558  19.403  0.00  0.00    +0.000 OA
BRANCH  17  20
ATOM     20  N   UNL     1       3.497   2.889  17.508  0.00  0.00    +0.000 NA
ATOM     21  C   UNL     1       2.162   3.490  17.272  0.00  0.00    +0.000 C 
ATOM     22  C   UNL     1       1.411   3.262  18.570  0.00  0.00    +0.000 C 
ATOM     23  C   UNL     1       1.919   1.916  19.057  0.00  0.00    +0.000 C 
ATOM     24  C   UNL     1       3.280   1.715  18.395  0.00  0.00    +0.000 C 
ENDBRANCH  17  20
ENDBRANCH   7  17
TORSDOF 3
ENDMDL
MODEL 8
REMARK VINA RESULT:      -7.2      3.764      8.207
REMARK  Name = 
REMARK  3 active torsions:
REMARK  status: ('A' for Active; 'I' for Inactive)
REMARK    1  A    between atoms: C_2  and  C_17
REMARK    2  A    between atoms: C_7  and  S_8
REMARK    3  A    between atoms: S_8  and  N_11
REMARK                            x       y       z     vdW  Elec       q    Type
REMARK                         _______ _______ _______ _____ _____    ______ ____
ROOT
ATOM      1  O   UNL     1       1.897   6.429  20.387  0.00  0.00    +0.000 OA
ATOM      2  C   UNL     1       2.216   6.286  19.213  0.00  0.00    +0.000 C 
ATOM      3  N   UNL     1       2.281   7.275  18.259  0.00  0.00    +0.000 N 
ATOM      4  C   UNL     1       1.968   8.598  18.439  0.00  0.00    +0.000 A 
ATOM      5  N   UNL     1       2.255   9.523  17.547  0.00  0.00    +0.000 NA
ATOM      6  N   UNL     1       1.967  10.797  18.010  0.00  0.00    +0.000 NA
ATOM      7  C   UNL     1       1.428  10.746  19.212  0.00  0.00    +0.000 A 
ATOM      8  S   UNL     1       1.169   9.181  19.827  0.00  0.00    +0.000 S 
ATOM      9  H   UNL     1       2.668   7.069  17.345  0.00  0.00    +0.000 HD
ENDROOT
BRANCH   2  10
ATOM     10  C   UNL     1       2.664   4.930  18.785  0.00  0.00    +0.000 A 
ATOM     11  C   UNL     1       1.664   4.073  18.287  0.00  0.00    +0.000 A 
ATOM     12  C   UNL     1       1.983   2.795  17.827  0.00  0.00    +0.000 A 
ATOM     13  C   UNL     1       3.303   2.359  17.852  0.00  0.00    +0.000 A 
ATOM     14  C   UNL     1       4.304   3.198  18.344  0.00  0.00    +0.000 A 
ATOM     15  C   UNL     1       3.992   4.482  18.809  0.00  0.00    +0.000 A 
ATOM     16 CL   UNL     1       5.316   5.447  19.359  0.00  0.00    +0.000 Cl
ENDBRANCH   2  10
BRANCH   7  17
ATOM     17  S   UNL     1       1.038  12.117  20.243  0.00  0.00    +0.000 S 
ATOM     18  O   UNL     1       0.856  11.560  21.570  0.00  0.00    +0.000 OA
ATOM     19  O   UNL     1       2.058  13.117  19.992  0.00  0.00    +0.000 OA
BRANCH  17  20
ATOM     20  N   UNL     1      -0.462  12.792  19.759  0.00  0.00    +0.000 NA
ATOM     21  C   UNL     1      -1.673  12.064  20.206  0.00  0.00    +0.000 C 
ATOM     22  C   UNL     1      -2.010  11.147  19.046  0.00  0.00    +0.000 C 
ATOM     23  C   UNL     1      -1.626  11.952  17.817  0.00  0.00    +0.000 C 
ATOM     24  C   UNL     1      -0.598  12.977  18.290  0.00  0.00    +0.000 C 
ENDBRANCH  17  20
ENDBRANCH   7  17
TORSDOF 3
ENDMDL
MODEL 9
REMARK VINA RESULT:      -7.2      2.354      3.319
REMARK  Name = 
REMARK  3 active torsions:
REMARK  status: ('A' for Active; 'I' for Inactive)
REMARK    1  A    between atoms: C_2  and  C_17
REMARK    2  A    between atoms: C_7  and  S_8
REMARK    3  A    between atoms: S_8  and  N_11
REMARK                            x       y       z     vdW  Elec       q    Type
REMARK                         _______ _______ _______ _____ _____    ______ ____
ROOT
ATOM      1  O   UNL     1       1.123   7.519  21.003  0.00  0.00    +0.000 OA
ATOM      2  C   UNL     1       1.198   8.472  20.238  0.00  0.00    +0.000 C 
ATOM      3  N   UNL     1       1.968   8.547  19.100  0.00  0.00    +0.000 N 
ATOM      4  C   UNL     1       2.819   7.579  18.632  0.00  0.00    +0.000 A 
ATOM      5  N   UNL     1       3.360   7.629  17.432  0.00  0.00    +0.000 NA
ATOM      6  N   UNL     1       4.070   6.477  17.136  0.00  0.00    +0.000 NA
ATOM      7  C   UNL     1       4.064   5.647  18.159  0.00  0.00    +0.000 A 
ATOM      8  S   UNL     1       3.274   6.219  19.553  0.00  0.00    +0.000 S 
ATOM      9  H   UNL     1       1.868   9.338  18.475  0.00  0.00    +0.000 HD
ENDROOT
BRANCH   2  10
ATOM     10  C   UNL     1       0.306   9.637  20.505  0.00  0.00    +0.000 A 
ATOM     11  C   UNL     1      -0.241  10.273  19.375  0.00  0.00    +0.000 A 
ATOM     12  C   UNL     1      -1.117  11.350  19.515  0.00  0.00    +0.000 A 
ATOM     13  C   UNL     1      -1.462  11.801  20.784  0.00  0.00    +0.000 A 
ATOM     14  C   UNL     1      -0.925  11.180  21.913  0.00  0.00    +0.000 A 
ATOM     15  C   UNL     1      -0.044  10.099  21.781  0.00  0.00    +0.000 A 
ATOM     16 CL   UNL     1       0.526   9.384  23.247  0.00  0.00    +0.000 Cl
ENDBRANCH   2  10
BRANCH   7  17
ATOM     17  S   UNL     1       4.711   4.011  18.185  0.00  0.00    +0.000 S 
ATOM     18  O   UNL     1       5.804   4.016  17.230  0.00  0.00    +0.000 OA
ATOM     19  O   UNL     1       4.947   3.691  19.580  0.00  0.00    +0.000 OA
BRANCH  17  20
ATOM     20  N   UNL     1       3.529   2.914  17.607  0.00  0.00    +0.000 NA
ATOM     21  C   UNL     1       2.198   3.496  17.307  0.00  0.00    +0.000 C 
ATOM     22  C   UNL     1       1.399   3.281  18.578  0.00  0.00    +0.000 C 
ATOM     23  C   UNL     1       1.901   1.950  19.108  0.00  0.00    +0.000 C 
ATOM     24  C   UNL     1       3.289   1.753  18.504  0.00  0.00    +0.000 C 
ENDBRANCH  17  20
ENDBRANCH   7  17
TORSDOF 3
ENDMDL
