MODEL 1
REMARK VINA RESULT:      -7.6      0.000      0.000
REMARK  Name = 
REMARK  8 active torsions:
REMARK  status: ('A' for Active; 'I' for Inactive)
REMARK    1  A    between atoms: C_1  and  O_2
REMARK    2  A    between atoms: O_2  and  C_3
REMARK    3  A    between atoms: C_5  and  C_6
REMARK    4  A    between atoms: N_7  and  O_8
REMARK    5  A    between atoms: C_11  and  O_12
REMARK    6  A    between atoms: O_12  and  C_13
REMARK    7  A    between atoms: C_16  and  N_17
REMARK    8  A    between atoms: C_21  and  N_22
REMARK                            x       y       z     vdW  Elec       q    Type
REMARK                         _______ _______ _______ _____ _____    ______ ____
ROOT
ATOM      1  O   UNL     1       4.868   4.567  17.957  0.00  0.00    +0.000 OA
ENDROOT
BRANCH   1   7
ATOM      2  C   UNL     1       3.206   5.698  19.431  0.00  0.00    +0.000 A 
ATOM      3  C   UNL     1       2.442   6.852  19.630  0.00  0.00    +0.000 A 
ATOM      4  C   UNL     1       2.443   7.883  18.683  0.00  0.00    +0.000 A 
ATOM      5  C   UNL     1       3.265   7.801  17.560  0.00  0.00    +0.000 A 
ATOM      6  C   UNL     1       4.082   6.685  17.390  0.00  0.00    +0.000 A 
ATOM      7  C   UNL     1       4.071   5.635  18.323  0.00  0.00    +0.000 A 
BRANCH   2   9
ATOM      8  C   UNL     1       1.861   4.389  20.879  0.00  0.00    +0.000 C 
ATOM      9  O   UNL     1       3.139   4.630  20.288  0.00  0.00    +0.000 OA
ENDBRANCH   2   9
BRANCH   4  10
ATOM     10  C   UNL     1       1.501   9.007  18.828  0.00  0.00    +0.000 C 
ATOM     11  N   UNL     1       0.866   9.495  17.810  0.00  0.00    +0.000 NA
BRANCH  11  12
ATOM     12  O   UNL     1       0.095  10.583  18.225  0.00  0.00    +0.000 OA
ATOM     13  H   UNL     1      -0.117  10.350  19.150  0.00  0.00    +0.000 HD
ENDBRANCH  11  12
ENDBRANCH   4  10
ENDBRANCH   1   7
BRANCH   1  14
ATOM     14  C   UNL     1       5.512   4.547  16.745  0.00  0.00    +0.000 A 
ATOM     15  C   UNL     1       4.915   4.060  15.577  0.00  0.00    +0.000 A 
ATOM     16  C   UNL     1       5.567   4.184  14.346  0.00  0.00    +0.000 A 
ATOM     17  C   UNL     1       6.848   4.754  14.286  0.00  0.00    +0.000 A 
ATOM     18  C   UNL     1       7.514   5.134  15.456  0.00  0.00    +0.000 A 
ATOM     19  C   UNL     1       6.833   5.010  16.675  0.00  0.00    +0.000 A 
BRANCH  17  20
ATOM     20  N   UNL     1       7.479   4.974  12.979  0.00  0.00    +0.000 N 
ATOM     21  O   UNL     1       8.340   5.862  12.900  0.00  0.00    +0.000 OA
ATOM     22  O   UNL     1       7.123   4.249  12.042  0.00  0.00    +0.000 OA
ENDBRANCH  17  20
BRANCH  19  23
ATOM     23  N   UNL     1       7.544   5.361  17.892  0.00  0.00    +0.000 N 
ATOM     24  O   UNL     1       7.577   6.558  18.206  0.00  0.00    +0.000 OA
ATOM     25  O   UNL     1       8.006   4.427  18.560  0.00  0.00    +0.000 OA
ENDBRANCH  19  23
ENDBRANCH   1  14
TORSDOF 7
ENDMDL
MODEL 2
REMARK VINA RESULT:      -7.6      2.284      7.191
REMARK  Name = 
REMARK  8 active torsions:
REMARK  status: ('A' for Active; 'I' for Inactive)
REMARK    1  A    between atoms: C_1  and  O_2
REMARK    2  A    between atoms: O_2  and  C_3
REMARK    3  A    between atoms: C_5  and  C_6
REMARK    4  A    between atoms: N_7  and  O_8
REMARK    5  A    between atoms: C_11  and  O_12
REMARK    6  A    between atoms: O_12  and  C_13
REMARK    7  A    between atoms: C_16  and  N_17
REMARK    8  A    between atoms: C_21  and  N_22
REMARK                            x       y       z     vdW  Elec       q    Type
REMARK                         _______ _______ _______ _____ _____    ______ ____
ROOT
ATOM      1  O   UNL     1       3.698   3.977  19.071  0.00  0.00    +0.000 OA
ENDROOT
BRANCH   1   7
ATOM      2  C   UNL     1       5.956   4.498  18.153  0.00  0.00    +0.000 A 
ATOM      3  C   UNL     1       6.738   4.578  16.995  0.00  0.00    +0.000 A 
ATOM      4  C   UNL     1       6.170   4.362  15.734  0.00  0.00    +0.000 A 
ATOM      5  C   UNL     1       4.831   3.992  15.621  0.00  0.00    +0.000 A 
ATOM      6  C   UNL     1       4.064   3.842  16.775  0.00  0.00    +0.000 A 
ATOM      7  C   UNL     1       4.617   4.079  18.044  0.00  0.00    +0.000 A 
BRANCH   2   9
ATOM      8  C   UNL     1       7.614   5.654  19.392  0.00  0.00    +0.000 C 
ATOM      9  O   UNL     1       6.460   4.811  19.389  0.00  0.00    +0.000 OA
ENDBRANCH   2   9
BRANCH   4  10
ATOM     10  C   UNL     1       6.969   4.621  14.522  0.00  0.00    +0.000 C 
ATOM     11  N   UNL     1       7.865   5.556  14.488  0.00  0.00    +0.000 NA
BRANCH  11  12
ATOM     12  O   UNL     1       8.420   5.617  13.208  0.00  0.00    +0.000 OA
ATOM     13  H   UNL     1       9.354   5.385  13.372  0.00  0.00    +0.000 HD
ENDBRANCH  11  12
ENDBRANCH   4  10
ENDBRANCH   1   7
BRANCH   1  14
ATOM     14  C   UNL     1       3.052   5.087  19.557  0.00  0.00    +0.000 A 
ATOM     15  C   UNL     1       3.334   6.383  19.113  0.00  0.00    +0.000 A 
ATOM     16  C   UNL     1       2.557   7.462  19.544  0.00  0.00    +0.000 A 
ATOM     17  C   UNL     1       1.521   7.254  20.468  0.00  0.00    +0.000 A 
ATOM     18  C   UNL     1       1.302   5.987  21.019  0.00  0.00    +0.000 A 
ATOM     19  C   UNL     1       2.088   4.921  20.559  0.00  0.00    +0.000 A 
BRANCH  17  20
ATOM     20  N   UNL     1       0.646   8.374  20.835  0.00  0.00    +0.000 N 
ATOM     21  O   UNL     1       0.881   9.478  20.324  0.00  0.00    +0.000 OA
ATOM     22  O   UNL     1      -0.281   8.142  21.621  0.00  0.00    +0.000 OA
ENDBRANCH  17  20
BRANCH  19  23
ATOM     23  N   UNL     1       1.889   3.617  21.168  0.00  0.00    +0.000 N 
ATOM     24  O   UNL     1       1.117   2.835  20.598  0.00  0.00    +0.000 OA
ATOM     25  O   UNL     1       2.561   3.362  22.175  0.00  0.00    +0.000 OA
ENDBRANCH  19  23
ENDBRANCH   1  14
TORSDOF 7
ENDMDL
MODEL 3
REMARK VINA RESULT:      -7.6      0.494      1.022
REMARK  Name = 
REMARK  8 active torsions:
REMARK  status: ('A' for Active; 'I' for Inactive)
REMARK    1  A    between atoms: C_1  and  O_2
REMARK    2  A    between atoms: O_2  and  C_3
REMARK    3  A    between atoms: C_5  and  C_6
REMARK    4  A    between atoms: N_7  and  O_8
REMARK    5  A    between atoms: C_11  and  O_12
REMARK    6  A    between atoms: O_12  and  C_13
REMARK    7  A    between atoms: C_16  and  N_17
REMARK    8  A    between atoms: C_21  and  N_22
REMARK                            x       y       z     vdW  Elec       q    Type
REMARK                         _______ _______ _______ _____ _____    ______ ____
ROOT
ATOM      1  O   UNL     1       4.838   4.963  18.271  0.00  0.00    +0.000 OA
ENDROOT
BRANCH   1   7
ATOM      2  C   UNL     1       2.992   6.085  19.514  0.00  0.00    +0.000 A 
ATOM      3  C   UNL     1       2.168   7.215  19.580  0.00  0.00    +0.000 A 
ATOM      4  C   UNL     1       2.230   8.203  18.591  0.00  0.00    +0.000 A 
ATOM      5  C   UNL     1       3.167   8.108  17.563  0.00  0.00    +0.000 A 
ATOM      6  C   UNL     1       4.038   7.021  17.529  0.00  0.00    +0.000 A 
ATOM      7  C   UNL     1       3.969   6.012  18.505  0.00  0.00    +0.000 A 
BRANCH   2   9
ATOM      8  C   UNL     1       1.548   4.574  20.632  0.00  0.00    +0.000 C 
ATOM      9  O   UNL     1       2.875   5.052  20.408  0.00  0.00    +0.000 OA
ENDBRANCH   2   9
BRANCH   4  10
ATOM     10  C   UNL     1       1.238   9.293  18.586  0.00  0.00    +0.000 C 
ATOM     11  N   UNL     1       1.564  10.505  18.270  0.00  0.00    +0.000 NA
BRANCH  11  12
ATOM     12  O   UNL     1       0.449  11.335  18.409  0.00  0.00    +0.000 OA
ATOM     13  H   UNL     1       0.246  11.257  19.361  0.00  0.00    +0.000 HD
ENDBRANCH  11  12
ENDBRANCH   4  10
ENDBRANCH   1   7
BRANCH   1  14
ATOM     14  C   UNL     1       5.429   4.792  17.044  0.00  0.00    +0.000 A 
ATOM     15  C   UNL     1       4.757   4.235  15.951  0.00  0.00    +0.000 A 
ATOM     16  C   UNL     1       5.362   4.205  14.690  0.00  0.00    +0.000 A 
ATOM     17  C   UNL     1       6.670   4.689  14.529  0.00  0.00    +0.000 A 
ATOM     18  C   UNL     1       7.405   5.136  15.633  0.00  0.00    +0.000 A 
ATOM     19  C   UNL     1       6.769   5.166  16.882  0.00  0.00    +0.000 A 
BRANCH  17  20
ATOM     20  N   UNL     1       7.257   4.749  13.186  0.00  0.00    +0.000 N 
ATOM     21  O   UNL     1       6.864   3.923  12.350  0.00  0.00    +0.000 OA
ATOM     22  O   UNL     1       8.098   5.630  12.967  0.00  0.00    +0.000 OA
ENDBRANCH  17  20
BRANCH  19  23
ATOM     23  N   UNL     1       7.550   5.586  18.033  0.00  0.00    +0.000 N 
ATOM     24  O   UNL     1       8.049   4.698  18.736  0.00  0.00    +0.000 OA
ATOM     25  O   UNL     1       7.714   6.804  18.184  0.00  0.00    +0.000 OA
ENDBRANCH  19  23
ENDBRANCH   1  14
TORSDOF 7
ENDMDL
MODEL 4
REMARK VINA RESULT:      -7.2      2.209      3.606
REMARK  Name = 
REMARK  8 active torsions:
REMARK  status: ('A' for Active; 'I' for Inactive)
REMARK    1  A    between atoms: C_1  and  O_2
REMARK    2  A    between atoms: O_2  and  C_3
REMARK    3  A    between atoms: C_5  and  C_6
REMARK    4  A    between atoms: N_7  and  O_8
REMARK    5  A    between atoms: C_11  and  O_12
REMARK    6  A    between atoms: O_12  and  C_13
REMARK    7  A    between atoms: C_16  and  N_17
REMARK    8  A    between atoms: C_21  and  N_22
REMARK                            x       y       z     vdW  Elec       q    Type
REMARK                         _______ _______ _______ _____ _____    ______ ____
ROOT
ATOM      1  O   UNL     1       5.011   6.298  18.388  0.00  0.00    +0.000 OA
ENDROOT
BRANCH   1   7
ATOM      2  C   UNL     1       2.796   6.132  19.520  0.00  0.00    +0.000 A 
ATOM      3  C   UNL     1       1.879   5.274  20.136  0.00  0.00    +0.000 A 
ATOM      4  C   UNL     1       2.188   3.923  20.336  0.00  0.00    +0.000 A 
ATOM      5  C   UNL     1       3.388   3.400  19.856  0.00  0.00    +0.000 A 
ATOM      6  C   UNL     1       4.276   4.234  19.180  0.00  0.00    +0.000 A 
ATOM      7  C   UNL     1       3.986   5.596  18.995  0.00  0.00    +0.000 A 
BRANCH   2   9
ATOM      8  C   UNL     1       2.211   7.943  18.107  0.00  0.00    +0.000 C 
ATOM      9  O   UNL     1       2.564   7.479  19.411  0.00  0.00    +0.000 OA
ENDBRANCH   2   9
BRANCH   4  10
ATOM     10  C   UNL     1       1.283   3.080  21.139  0.00  0.00    +0.000 C 
ATOM     11  N   UNL     1       1.562   2.763  22.363  0.00  0.00    +0.000 NA
BRANCH  11  12
ATOM     12  O   UNL     1       0.569   1.914  22.857  0.00  0.00    +0.000 OA
ATOM     13  H   UNL     1      -0.188   2.521  22.973  0.00  0.00    +0.000 HD
ENDBRANCH  11  12
ENDBRANCH   4  10
ENDBRANCH   1   7
BRANCH   1  14
ATOM     14  C   UNL     1       5.558   5.870  17.204  0.00  0.00    +0.000 A 
ATOM     15  C   UNL     1       4.789   5.599  16.068  0.00  0.00    +0.000 A 
ATOM     16  C   UNL     1       5.407   5.294  14.852  0.00  0.00    +0.000 A 
ATOM     17  C   UNL     1       6.807   5.209  14.780  0.00  0.00    +0.000 A 
ATOM     18  C   UNL     1       7.589   5.355  15.930  0.00  0.00    +0.000 A 
ATOM     19  C   UNL     1       6.943   5.672  17.133  0.00  0.00    +0.000 A 
BRANCH  17  20
ATOM     20  N   UNL     1       7.451   4.991  13.479  0.00  0.00    +0.000 N 
ATOM     21  O   UNL     1       6.954   4.141  12.727  0.00  0.00    +0.000 OA
ATOM     22  O   UNL     1       8.441   5.682  13.208  0.00  0.00    +0.000 OA
ENDBRANCH  17  20
BRANCH  19  23
ATOM     23  N   UNL     1       7.754   5.776  18.335  0.00  0.00    +0.000 N 
ATOM     24  O   UNL     1       8.137   6.905  18.666  0.00  0.00    +0.000 OA
ATOM     25  O   UNL     1       7.942   4.733  18.975  0.00  0.00    +0.000 OA
ENDBRANCH  19  23
ENDBRANCH   1  14
TORSDOF 7
ENDMDL
MODEL 5
REMARK VINA RESULT:      -7.1      3.675      5.470
REMARK  Name = 
REMARK  8 active torsions:
REMARK  status: ('A' for Active; 'I' for Inactive)
REMARK    1  A    between atoms: C_1  and  O_2
REMARK    2  A    between atoms: O_2  and  C_3
REMARK    3  A    between atoms: C_5  and  C_6
REMARK    4  A    between atoms: N_7  and  O_8
REMARK    5  A    between atoms: C_11  and  O_12
REMARK    6  A    between atoms: O_12  and  C_13
REMARK    7  A    between atoms: C_16  and  N_17
REMARK    8  A    between atoms: C_21  and  N_22
REMARK                            x       y       z     vdW  Elec       q    Type
REMARK                         _______ _______ _______ _____ _____    ______ ____
ROOT
ATOM      1  O   UNL     1       2.652   7.600  19.946  0.00  0.00    +0.000 OA
ENDROOT
BRANCH   1   7
ATOM      2  C   UNL     1       0.819   9.114  20.694  0.00  0.00    +0.000 A 
ATOM      3  C   UNL     1      -0.152  10.035  20.287  0.00  0.00    +0.000 A 
ATOM      4  C   UNL     1      -0.359  10.301  18.929  0.00  0.00    +0.000 A 
ATOM      5  C   UNL     1       0.451   9.703  17.965  0.00  0.00    +0.000 A 
ATOM      6  C   UNL     1       1.467   8.837  18.368  0.00  0.00    +0.000 A 
ATOM      7  C   UNL     1       1.668   8.546  19.727  0.00  0.00    +0.000 A 
BRANCH   2   9
ATOM      8  C   UNL     1       0.077   9.387  22.929  0.00  0.00    +0.000 C 
ATOM      9  O   UNL     1       0.968   8.755  22.009  0.00  0.00    +0.000 OA
ENDBRANCH   2   9
BRANCH   4  10
ATOM     10  C   UNL     1      -1.499  11.140  18.516  0.00  0.00    +0.000 C 
ATOM     11  N   UNL     1      -2.079  10.979  17.370  0.00  0.00    +0.000 NA
BRANCH  11  12
ATOM     12  O   UNL     1      -3.080  11.941  17.219  0.00  0.00    +0.000 OA
ATOM     13  H   UNL     1      -3.452  11.723  16.343  0.00  0.00    +0.000 HD
ENDBRANCH  11  12
ENDBRANCH   4  10
ENDBRANCH   1   7
BRANCH   1  14
ATOM     14  C   UNL     1       2.406   6.263  19.752  0.00  0.00    +0.000 A 
ATOM     15  C   UNL     1       1.464   5.550  20.501  0.00  0.00    +0.000 A 
ATOM     16  C   UNL     1       1.158   4.225  20.174  0.00  0.00    +0.000 A 
ATOM     17  C   UNL     1       1.836   3.589  19.122  0.00  0.00    +0.000 A 
ATOM     18  C   UNL     1       2.868   4.243  18.441  0.00  0.00    +0.000 A 
ATOM     19  C   UNL     1       3.145   5.575  18.781  0.00  0.00    +0.000 A 
BRANCH  17  20
ATOM     20  N   UNL     1       1.436   2.235  18.721  0.00  0.00    +0.000 N 
ATOM     21  O   UNL     1       2.319   1.367  18.667  0.00  0.00    +0.000 OA
ATOM     22  O   UNL     1       0.239   2.041  18.475  0.00  0.00    +0.000 OA
ENDBRANCH  17  20
BRANCH  19  23
ATOM     23  N   UNL     1       4.248   6.235  18.104  0.00  0.00    +0.000 N 
ATOM     24  O   UNL     1       5.392   5.987  18.507  0.00  0.00    +0.000 OA
ATOM     25  O   UNL     1       3.963   6.943  17.130  0.00  0.00    +0.000 OA
ENDBRANCH  19  23
ENDBRANCH   1  14
TORSDOF 7
ENDMDL
MODEL 6
REMARK VINA RESULT:      -7.1      2.215      3.565
REMARK  Name = 
REMARK  8 active torsions:
REMARK  status: ('A' for Active; 'I' for Inactive)
REMARK    1  A    between atoms: C_1  and  O_2
REMARK    2  A    between atoms: O_2  and  C_3
REMARK    3  A    between atoms: C_5  and  C_6
REMARK    4  A    between atoms: N_7  and  O_8
REMARK    5  A    between atoms: C_11  and  O_12
REMARK    6  A    between atoms: O_12  and  C_13
REMARK    7  A    between atoms: C_16  and  N_17
REMARK    8  A    between atoms: C_21  and  N_22
REMARK                            x       y       z     vdW  Elec       q    Type
REMARK                         _______ _______ _______ _____ _____    ______ ____
ROOT
ATOM      1  O   UNL     1       4.935   6.367  18.252  0.00  0.00    +0.000 OA
ENDROOT
BRANCH   1   7
ATOM      2  C   UNL     1       2.777   6.110  19.473  0.00  0.00    +0.000 A 
ATOM      3  C   UNL     1       1.914   5.212  20.110  0.00  0.00    +0.000 A 
ATOM      4  C   UNL     1       2.273   3.868  20.269  0.00  0.00    +0.000 A 
ATOM      5  C   UNL     1       3.467   3.392  19.730  0.00  0.00    +0.000 A 
ATOM      6  C   UNL     1       4.299   4.267  19.032  0.00  0.00    +0.000 A 
ATOM      7  C   UNL     1       3.959   5.622  18.887  0.00  0.00    +0.000 A 
BRANCH   2   9
ATOM      8  C   UNL     1       1.628   7.959  20.411  0.00  0.00    +0.000 C 
ATOM      9  O   UNL     1       2.499   7.451  19.400  0.00  0.00    +0.000 OA
ENDBRANCH   2   9
BRANCH   4  10
ATOM     10  C   UNL     1       1.430   2.982  21.093  0.00  0.00    +0.000 C 
ATOM     11  N   UNL     1       1.670   2.798  22.352  0.00  0.00    +0.000 NA
BRANCH  11  12
ATOM     12  O   UNL     1       0.759   1.872  22.865  0.00  0.00    +0.000 OA
ATOM     13  H   UNL     1      -0.027   2.424  23.040  0.00  0.00    +0.000 HD
ENDBRANCH  11  12
ENDBRANCH   4  10
ENDBRANCH   1   7
BRANCH   1  14
ATOM     14  C   UNL     1       5.520   5.925  17.090  0.00  0.00    +0.000 A 
ATOM     15  C   UNL     1       4.785   5.625  15.939  0.00  0.00    +0.000 A 
ATOM     16  C   UNL     1       5.441   5.306  14.746  0.00  0.00    +0.000 A 
ATOM     17  C   UNL     1       6.843   5.236  14.714  0.00  0.00    +0.000 A 
ATOM     18  C   UNL     1       7.591   5.411  15.883  0.00  0.00    +0.000 A 
ATOM     19  C   UNL     1       6.908   5.742  17.062  0.00  0.00    +0.000 A 
BRANCH  17  20
ATOM     20  N   UNL     1       7.525   5.004  13.435  0.00  0.00    +0.000 N 
ATOM     21  O   UNL     1       8.545   5.666  13.200  0.00  0.00    +0.000 OA
ATOM     22  O   UNL     1       7.046   4.150  12.678  0.00  0.00    +0.000 OA
ENDBRANCH  17  20
BRANCH  19  23
ATOM     23  N   UNL     1       7.684   5.876  18.283  0.00  0.00    +0.000 N 
ATOM     24  O   UNL     1       7.875   4.851  18.951  0.00  0.00    +0.000 OA
ATOM     25  O   UNL     1       8.154   6.994  18.527  0.00  0.00    +0.000 OA
ENDBRANCH  19  23
ENDBRANCH   1  14
TORSDOF 7
ENDMDL
MODEL 7
REMARK VINA RESULT:      -6.9      2.628      3.825
REMARK  Name = 
REMARK  8 active torsions:
REMARK  status: ('A' for Active; 'I' for Inactive)
REMARK    1  A    between atoms: C_1  and  O_2
REMARK    2  A    between atoms: O_2  and  C_3
REMARK    3  A    between atoms: C_5  and  C_6
REMARK    4  A    between atoms: N_7  and  O_8
REMARK    5  A    between atoms: C_11  and  O_12
REMARK    6  A    between atoms: O_12  and  C_13
REMARK    7  A    between atoms: C_16  and  N_17
REMARK    8  A    between atoms: C_21  and  N_22
REMARK                            x       y       z     vdW  Elec       q    Type
REMARK                         _______ _______ _______ _____ _____    ______ ____
ROOT
ATOM      1  O   UNL     1       2.270   6.333  17.825  0.00  0.00    +0.000 OA
ENDROOT
BRANCH   1   7
ATOM      2  C   UNL     1       1.806   7.390  20.034  0.00  0.00    +0.000 A 
ATOM      3  C   UNL     1       1.409   8.561  20.689  0.00  0.00    +0.000 A 
ATOM      4  C   UNL     1       1.020   9.691  19.960  0.00  0.00    +0.000 A 
ATOM      5  C   UNL     1       1.094   9.687  18.568  0.00  0.00    +0.000 A 
ATOM      6  C   UNL     1       1.555   8.548  17.911  0.00  0.00    +0.000 A 
ATOM      7  C   UNL     1       1.926   7.401  18.632  0.00  0.00    +0.000 A 
BRANCH   2   9
ATOM      8  C   UNL     1       1.130   5.185  20.580  0.00  0.00    +0.000 C 
ATOM      9  O   UNL     1       2.086   6.237  20.720  0.00  0.00    +0.000 OA
ENDBRANCH   2   9
BRANCH   4  10
ATOM     10  C   UNL     1       0.442  10.850  20.665  0.00  0.00    +0.000 C 
ATOM     11  N   UNL     1       0.501  10.957  21.954  0.00  0.00    +0.000 NA
BRANCH  11  12
ATOM     12  O   UNL     1      -0.174  12.112  22.353  0.00  0.00    +0.000 OA
ATOM     13  H   UNL     1      -0.787  11.774  23.034  0.00  0.00    +0.000 HD
ENDBRANCH  11  12
ENDBRANCH   4  10
ENDBRANCH   1   7
BRANCH   1  14
ATOM     14  C   UNL     1       3.580   5.945  17.684  0.00  0.00    +0.000 A 
ATOM     15  C   UNL     1       4.618   6.853  17.451  0.00  0.00    +0.000 A 
ATOM     16  C   UNL     1       5.947   6.419  17.446  0.00  0.00    +0.000 A 
ATOM     17  C   UNL     1       6.241   5.058  17.625  0.00  0.00    +0.000 A 
ATOM     18  C   UNL     1       5.213   4.116  17.736  0.00  0.00    +0.000 A 
ATOM     19  C   UNL     1       3.890   4.580  17.749  0.00  0.00    +0.000 A 
BRANCH  17  20
ATOM     20  N   UNL     1       7.641   4.629  17.722  0.00  0.00    +0.000 N 
ATOM     21  O   UNL     1       8.198   4.732  18.824  0.00  0.00    +0.000 OA
ATOM     22  O   UNL     1       8.173   4.177  16.701  0.00  0.00    +0.000 OA
ENDBRANCH  17  20
BRANCH  19  23
ATOM     23  N   UNL     1       2.823   3.596  17.816  0.00  0.00    +0.000 N 
ATOM     24  O   UNL     1       2.178   3.385  16.781  0.00  0.00    +0.000 OA
ATOM     25  O   UNL     1       2.686   2.992  18.888  0.00  0.00    +0.000 OA
ENDBRANCH  19  23
ENDBRANCH   1  14
TORSDOF 7
ENDMDL
MODEL 8
REMARK VINA RESULT:      -6.9      2.448      3.770
REMARK  Name = 
REMARK  8 active torsions:
REMARK  status: ('A' for Active; 'I' for Inactive)
REMARK    1  A    between atoms: C_1  and  O_2
REMARK    2  A    between atoms: O_2  and  C_3
REMARK    3  A    between atoms: C_5  and  C_6
REMARK    4  A    between atoms: N_7  and  O_8
REMARK    5  A    between atoms: C_11  and  O_12
REMARK    6  A    between atoms: O_12  and  C_13
REMARK    7  A    between atoms: C_16  and  N_17
REMARK    8  A    between atoms: C_21  and  N_22
REMARK                            x       y       z     vdW  Elec       q    Type
REMARK                         _______ _______ _______ _____ _____    ______ ____
ROOT
ATOM      1  O   UNL     1       2.822   6.638  19.282  0.00  0.00    +0.000 OA
ENDROOT
BRANCH   1   7
ATOM      2  C   UNL     1       1.470   8.515  20.211  0.00  0.00    +0.000 A 
ATOM      3  C   UNL     1       0.738   9.667  19.906  0.00  0.00    +0.000 A 
ATOM      4  C   UNL     1       0.527  10.049  18.576  0.00  0.00    +0.000 A 
ATOM      5  C   UNL     1       1.107   9.322  17.537  0.00  0.00    +0.000 A 
ATOM      6  C   UNL     1       1.896   8.212  17.837  0.00  0.00    +0.000 A 
ATOM      7  C   UNL     1       2.095   7.807  19.167  0.00  0.00    +0.000 A 
BRANCH   2   9
ATOM      8  C   UNL     1       1.282   9.002  22.523  0.00  0.00    +0.000 C 
ATOM      9  O   UNL     1       1.599   8.059  21.498  0.00  0.00    +0.000 OA
ENDBRANCH   2   9
BRANCH   4  10
ATOM     10  C   UNL     1      -0.389  11.164  18.274  0.00  0.00    +0.000 C 
ATOM     11  N   UNL     1      -1.606  10.955  17.884  0.00  0.00    +0.000 NA
BRANCH  11  12
ATOM     12  O   UNL     1      -2.221  12.179  17.614  0.00  0.00    +0.000 OA
ATOM     13  H   UNL     1      -2.561  12.441  18.491  0.00  0.00    +0.000 HD
ENDBRANCH  11  12
ENDBRANCH   4  10
ENDBRANCH   1   7
BRANCH   1  14
ATOM     14  C   UNL     1       3.636   6.207  18.263  0.00  0.00    +0.000 A 
ATOM     15  C   UNL     1       4.652   7.000  17.718  0.00  0.00    +0.000 A 
ATOM     16  C   UNL     1       5.535   6.466  16.775  0.00  0.00    +0.000 A 
ATOM     17  C   UNL     1       5.373   5.144  16.333  0.00  0.00    +0.000 A 
ATOM     18  C   UNL     1       4.290   4.374  16.772  0.00  0.00    +0.000 A 
ATOM     19  C   UNL     1       3.428   4.930  17.727  0.00  0.00    +0.000 A 
BRANCH  17  20
ATOM     20  N   UNL     1       6.365   4.560  15.422  0.00  0.00    +0.000 N 
ATOM     21  O   UNL     1       5.945   3.893  14.466  0.00  0.00    +0.000 OA
ATOM     22  O   UNL     1       7.559   4.782  15.658  0.00  0.00    +0.000 OA
ENDBRANCH  17  20
BRANCH  19  23
ATOM     23  N   UNL     1       2.278   4.146  18.145  0.00  0.00    +0.000 N 
ATOM     24  O   UNL     1       2.401   3.458  19.168  0.00  0.00    +0.000 OA
ATOM     25  O   UNL     1       1.240   4.278  17.485  0.00  0.00    +0.000 OA
ENDBRANCH  19  23
ENDBRANCH   1  14
TORSDOF 7
ENDMDL
MODEL 9
REMARK VINA RESULT:      -6.9      2.466      3.491
REMARK  Name = 
REMARK  8 active torsions:
REMARK  status: ('A' for Active; 'I' for Inactive)
REMARK    1  A    between atoms: C_1  and  O_2
REMARK    2  A    between atoms: O_2  and  C_3
REMARK    3  A    between atoms: C_5  and  C_6
REMARK    4  A    between atoms: N_7  and  O_8
REMARK    5  A    between atoms: C_11  and  O_12
REMARK    6  A    between atoms: O_12  and  C_13
REMARK    7  A    between atoms: C_16  and  N_17
REMARK    8  A    between atoms: C_21  and  N_22
REMARK                            x       y       z     vdW  Elec       q    Type
REMARK                         _______ _______ _______ _____ _____    ______ ____
ROOT
ATOM      1  O   UNL     1       2.195   5.623  17.949  0.00  0.00    +0.000 OA
ENDROOT
BRANCH   1   7
ATOM      2  C   UNL     1       1.898   6.229  20.348  0.00  0.00    +0.000 A 
ATOM      3  C   UNL     1       1.647   7.268  21.250  0.00  0.00    +0.000 A 
ATOM      4  C   UNL     1       1.370   8.561  20.792  0.00  0.00    +0.000 A 
ATOM      5  C   UNL     1       1.414   8.846  19.428  0.00  0.00    +0.000 A 
ATOM      6  C   UNL     1       1.732   7.831  18.527  0.00  0.00    +0.000 A 
ATOM      7  C   UNL     1       1.988   6.524  18.975  0.00  0.00    +0.000 A 
BRANCH   2   9
ATOM      8  C   UNL     1       0.954   4.062  20.539  0.00  0.00    +0.000 C 
ATOM      9  O   UNL     1       2.063   4.933  20.765  0.00  0.00    +0.000 OA
ENDBRANCH   2   9
BRANCH   4  10
ATOM     10  C   UNL     1       0.939   9.597  21.748  0.00  0.00    +0.000 C 
ATOM     11  N   UNL     1       0.172   9.314  22.752  0.00  0.00    +0.000 NA
BRANCH  11  12
ATOM     12  O   UNL     1      -0.124  10.486  23.452  0.00  0.00    +0.000 OA
ATOM     13  H   UNL     1      -0.964  10.260  23.895  0.00  0.00    +0.000 HD
ENDBRANCH  11  12
ENDBRANCH   4  10
ENDBRANCH   1   7
BRANCH   1  14
ATOM     14  C   UNL     1       3.436   5.464  17.384  0.00  0.00    +0.000 A 
ATOM     15  C   UNL     1       4.203   6.541  16.926  0.00  0.00    +0.000 A 
ATOM     16  C   UNL     1       5.513   6.336  16.481  0.00  0.00    +0.000 A 
ATOM     17  C   UNL     1       6.046   5.038  16.445  0.00  0.00    +0.000 A 
ATOM     18  C   UNL     1       5.255   3.934  16.781  0.00  0.00    +0.000 A 
ATOM     19  C   UNL     1       3.949   4.169  17.235  0.00  0.00    +0.000 A 
BRANCH  17  20
ATOM     20  N   UNL     1       7.453   4.845  16.075  0.00  0.00    +0.000 N 
ATOM     21  O   UNL     1       7.826   5.292  14.982  0.00  0.00    +0.000 OA
ATOM     22  O   UNL     1       8.183   4.260  16.886  0.00  0.00    +0.000 OA
ENDBRANCH  17  20
BRANCH  19  23
ATOM     23  N   UNL     1       3.116   3.018  17.537  0.00  0.00    +0.000 N 
ATOM     24  O   UNL     1       3.482   2.278  18.460  0.00  0.00    +0.000 OA
ATOM     25  O   UNL     1       2.065   2.904  16.894  0.00  0.00    +0.000 OA
ENDBRANCH  19  23
ENDBRANCH   1  14
TORSDOF 7
ENDMDL
