MODEL 1
REMARK VINA RESULT:      -6.7      0.000      0.000
REMARK  Name = 
REMARK  19 active torsions:
REMARK  status: ('A' for Active; 'I' for Inactive)
REMARK    1  A    between atoms: C_1  and  C_2
REMARK    2  A    between atoms: C_2  and  C_3
REMARK    3  A    between atoms: C_3  and  C_4
REMARK    4  A    between atoms: C_4  and  N_5
REMARK    5  A    between atoms: N_5  and  O_6
REMARK    6  A    between atoms: C_7  and  S_9
REMARK    7  A    between atoms: S_9  and  C_10
REMARK    8  A    between atoms: C_10  and  C_11
REMARK    9  A    between atoms: C_11  and  N_12
REMARK   10  A    between atoms: C_11  and  C_22
REMARK   11  A    between atoms: C_13  and  C_15
REMARK   12  A    between atoms: C_15  and  C_16
REMARK   13  A    between atoms: C_16  and  C_17
REMARK   14  A    between atoms: C_17  and  N_18
REMARK   15  A    between atoms: C_17  and  C_19
REMARK   16  A    between atoms: C_19  and  O_21
REMARK   17  A    between atoms: N_24  and  CA_25
REMARK   18  A    between atoms: CA_25  and  C_26
REMARK   19  A    between atoms: C_26  and  OXT_28
REMARK                            x       y       z     vdW  Elec       q    Type
REMARK                         _______ _______ _______ _____ _____    ______ ____
ROOT
ATOM      1  C   UNK A   1       3.112   6.615  19.109  0.00  0.00    +0.000 C 
ENDROOT
BRANCH   1   2
ATOM      2  C   UNK A   1       2.258   7.865  18.814  0.00  0.00    +0.000 C 
ATOM      3  O   UNK A   1       2.148   8.337  17.682  0.00  0.00    +0.000 OA
ATOM      4  N   GLY A   2       1.631   8.409  19.907  0.00  0.00    +0.000 N 
ATOM      5  H   GLY A   2       1.754   7.999  20.827  0.00  0.00    +0.000 HD
BRANCH   4   6
ATOM      6  CA  GLY A   2       0.855   9.636  19.831  0.00  0.00    +0.000 C 
BRANCH   6   7
ATOM      7  C   GLY A   2       0.446  10.068  21.230  0.00  0.00    +0.000 C 
ATOM      8  O   GLY A   2      -0.642  10.572  21.502  0.00  0.00    +0.000 OA
BRANCH   7   9
ATOM      9  OXT GLY A   2       1.397   9.850  22.169  0.00  0.00    +0.000 OA
ATOM     10  HXT GLY A   2       2.023   9.136  21.946  0.00  0.00    +0.000 HD
ENDBRANCH   7   9
ENDBRANCH   6   7
ENDBRANCH   4   6
ENDBRANCH   1   2
BRANCH   1  11
ATOM     11  N   UNK A   1       2.185   5.475  19.064  0.00  0.00    +0.000 N 
ATOM     12  C   UNK A   1       1.790   4.765  20.165  0.00  0.00    +0.000 C 
ATOM     13  O   UNK A   1       2.217   4.944  21.304  0.00  0.00    +0.000 OA
ATOM     14  H   UNK A   1       1.739   5.304  18.164  0.00  0.00    +0.000 HD
BRANCH  12  15
ATOM     15  C   UNK A   1       0.819   3.642  19.876  0.00  0.00    +0.000 C 
BRANCH  15  16
ATOM     16  C   UNK A   1       1.532   2.291  19.818  0.00  0.00    +0.000 C 
BRANCH  16  17
ATOM     17  C   UNK A   1       2.994   2.339  19.346  0.00  0.00    +0.000 C 
BRANCH  17  18
ATOM     18  N   UNK A   1       3.178   1.282  18.320  0.00  0.00    +0.000 NA
ATOM     19  H   UNK A   1       2.411   0.611  18.418  0.00  0.00    +0.000 HD
ATOM     20  H   UNK A   1       4.004   0.734  18.568  0.00  0.00    +0.000 HD
ENDBRANCH  17  18
BRANCH  17  21
ATOM     21  C   UNK A   1       3.987   2.111  20.499  0.00  0.00    +0.000 C 
ATOM     22  O   UNK A   1       5.172   1.849  20.337  0.00  0.00    +0.000 OA
BRANCH  21  23
ATOM     23  O   UNK A   1       3.434   2.226  21.728  0.00  0.00    +0.000 OA
ATOM     24  H   UNK A   1       3.233   1.367  22.177  0.00  0.00    +0.000 HD
ENDBRANCH  21  23
ENDBRANCH  17  21
ENDBRANCH  16  17
ENDBRANCH  15  16
ENDBRANCH  12  15
ENDBRANCH   1  11
BRANCH   1  25
ATOM     25  C   UNK A   1       4.266   6.458  18.099  0.00  0.00    +0.000 C 
BRANCH  25  26
ATOM     26  S   UNK A   1       5.630   5.391  18.701  0.00  0.00    +0.000 S 
BRANCH  26  28
ATOM     27  N   UNK A   1       5.826   4.309  16.275  0.00  0.00    +0.000 N 
ATOM     28  C   UNK A   1       6.503   5.116  17.188  0.00  0.00    +0.000 C 
ATOM     29  O   UNK A   1       7.551   5.705  16.951  0.00  0.00    +0.000 OA
BRANCH  27  30
ATOM     30  O   UNK A   1       5.193   3.164  16.832  0.00  0.00    +0.000 OA
ATOM     31  H   UNK A   1       4.262   3.319  16.586  0.00  0.00    +0.000 HD
ENDBRANCH  27  30
BRANCH  27  32
ATOM     32  C   UNK A   1       6.451   3.968  15.002  0.00  0.00    +0.000 C 
BRANCH  32  33
ATOM     33  C   UNK A   1       5.508   4.169  13.809  0.00  0.00    +0.000 C 
BRANCH  33  35
ATOM     34  C   UNK A   1       4.798   3.151  11.610  0.00  0.00    +0.000 C 
ATOM     35  C   UNK A   1       5.959   3.404  12.561  0.00  0.00    +0.000 C 
ENDBRANCH  33  35
ENDBRANCH  32  33
ENDBRANCH  27  32
ENDBRANCH  26  28
ENDBRANCH  25  26
ENDBRANCH   1  25
TORSDOF 18
ENDMDL
MODEL 2
REMARK VINA RESULT:      -6.5      1.880      2.613
REMARK  Name = 
REMARK  19 active torsions:
REMARK  status: ('A' for Active; 'I' for Inactive)
REMARK    1  A    between atoms: C_1  and  C_2
REMARK    2  A    between atoms: C_2  and  C_3
REMARK    3  A    between atoms: C_3  and  C_4
REMARK    4  A    between atoms: C_4  and  N_5
REMARK    5  A    between atoms: N_5  and  O_6
REMARK    6  A    between atoms: C_7  and  S_9
REMARK    7  A    between atoms: S_9  and  C_10
REMARK    8  A    between atoms: C_10  and  C_11
REMARK    9  A    between atoms: C_11  and  N_12
REMARK   10  A    between atoms: C_11  and  C_22
REMARK   11  A    between atoms: C_13  and  C_15
REMARK   12  A    between atoms: C_15  and  C_16
REMARK   13  A    between atoms: C_16  and  C_17
REMARK   14  A    between atoms: C_17  and  N_18
REMARK   15  A    between atoms: C_17  and  C_19
REMARK   16  A    between atoms: C_19  and  O_21
REMARK   17  A    between atoms: N_24  and  CA_25
REMARK   18  A    between atoms: CA_25  and  C_26
REMARK   19  A    between atoms: C_26  and  OXT_28
REMARK                            x       y       z     vdW  Elec       q    Type
REMARK                         _______ _______ _______ _____ _____    ______ ____
ROOT
ATOM      1  C   UNK A   1       4.413   5.789  18.280  0.00  0.00    +0.000 C 
ENDROOT
BRANCH   1   2
ATOM      2  C   UNK A   1       3.178   6.663  18.587  0.00  0.00    +0.000 C 
ATOM      3  O   UNK A   1       2.593   6.622  19.669  0.00  0.00    +0.000 OA
ATOM      4  N   GLY A   2       2.785   7.488  17.563  0.00  0.00    +0.000 N 
ATOM      5  H   GLY A   2       3.285   7.486  16.680  0.00  0.00    +0.000 HD
BRANCH   4   6
ATOM      6  CA  GLY A   2       1.593   8.316  17.644  0.00  0.00    +0.000 C 
BRANCH   6   7
ATOM      7  C   GLY A   2       1.967   9.697  18.160  0.00  0.00    +0.000 C 
ATOM      8  O   GLY A   2       2.714  10.473  17.567  0.00  0.00    +0.000 OA
BRANCH   7   9
ATOM      9  OXT GLY A   2       1.400  10.007  19.350  0.00  0.00    +0.000 OA
ATOM     10  HXT GLY A   2       1.027   9.242  19.827  0.00  0.00    +0.000 HD
ENDBRANCH   7   9
ENDBRANCH   6   7
ENDBRANCH   4   6
ENDBRANCH   1   2
BRANCH   1  11
ATOM     11  N   UNK A   1       3.893   4.439  18.018  0.00  0.00    +0.000 N 
ATOM     12  C   UNK A   1       4.242   3.331  18.741  0.00  0.00    +0.000 C 
ATOM     13  O   UNK A   1       5.081   3.316  19.640  0.00  0.00    +0.000 OA
ATOM     14  H   UNK A   1       3.146   4.379  17.329  0.00  0.00    +0.000 HD
BRANCH  12  15
ATOM     15  C   UNK A   1       3.570   2.051  18.297  0.00  0.00    +0.000 C 
BRANCH  15  16
ATOM     16  C   UNK A   1       2.630   1.513  19.377  0.00  0.00    +0.000 C 
BRANCH  16  17
ATOM     17  C   UNK A   1       1.293   2.256  19.516  0.00  0.00    +0.000 C 
BRANCH  17  18
ATOM     18  N   UNK A   1       1.068   3.031  18.269  0.00  0.00    +0.000 NA
ATOM     19  H   UNK A   1       0.110   3.391  18.291  0.00  0.00    +0.000 HD
ATOM     20  H   UNK A   1       1.057   2.378  17.484  0.00  0.00    +0.000 HD
ENDBRANCH  17  18
BRANCH  17  21
ATOM     21  C   UNK A   1       1.280   3.213  20.721  0.00  0.00    +0.000 C 
ATOM     22  O   UNK A   1       1.611   2.888  21.854  0.00  0.00    +0.000 OA
BRANCH  21  23
ATOM     23  O   UNK A   1       0.865   4.465  20.420  0.00  0.00    +0.000 OA
ATOM     24  H   UNK A   1       0.814   5.084  21.191  0.00  0.00    +0.000 HD
ENDBRANCH  21  23
ENDBRANCH  17  21
ENDBRANCH  16  17
ENDBRANCH  15  16
ENDBRANCH  12  15
ENDBRANCH   1  11
BRANCH   1  25
ATOM     25  C   UNK A   1       5.220   6.337  17.087  0.00  0.00    +0.000 C 
BRANCH  25  26
ATOM     26  S   UNK A   1       6.976   5.810  17.084  0.00  0.00    +0.000 S 
BRANCH  26  28
ATOM     27  N   UNK A   1       6.200   4.266  15.056  0.00  0.00    +0.000 N 
ATOM     28  C   UNK A   1       7.130   5.242  15.416  0.00  0.00    +0.000 C 
ATOM     29  O   UNK A   1       7.913   5.775  14.640  0.00  0.00    +0.000 OA
BRANCH  27  30
ATOM     30  O   UNK A   1       5.978   3.254  16.029  0.00  0.00    +0.000 OA
ATOM     31  H   UNK A   1       5.717   2.500  15.467  0.00  0.00    +0.000 HD
ENDBRANCH  27  30
BRANCH  27  32
ATOM     32  C   UNK A   1       6.241   3.681  13.721  0.00  0.00    +0.000 C 
BRANCH  32  33
ATOM     33  C   UNK A   1       4.890   3.763  12.999  0.00  0.00    +0.000 C 
BRANCH  33  35
ATOM     34  C   UNK A   1       3.647   3.325  10.846  0.00  0.00    +0.000 C 
ATOM     35  C   UNK A   1       4.876   2.987  11.678  0.00  0.00    +0.000 C 
ENDBRANCH  33  35
ENDBRANCH  32  33
ENDBRANCH  27  32
ENDBRANCH  26  28
ENDBRANCH  25  26
ENDBRANCH   1  25
TORSDOF 18
ENDMDL
MODEL 3
REMARK VINA RESULT:      -6.4      2.731      7.316
REMARK  Name = 
REMARK  19 active torsions:
REMARK  status: ('A' for Active; 'I' for Inactive)
REMARK    1  A    between atoms: C_1  and  C_2
REMARK    2  A    between atoms: C_2  and  C_3
REMARK    3  A    between atoms: C_3  and  C_4
REMARK    4  A    between atoms: C_4  and  N_5
REMARK    5  A    between atoms: N_5  and  O_6
REMARK    6  A    between atoms: C_7  and  S_9
REMARK    7  A    between atoms: S_9  and  C_10
REMARK    8  A    between atoms: C_10  and  C_11
REMARK    9  A    between atoms: C_11  and  N_12
REMARK   10  A    between atoms: C_11  and  C_22
REMARK   11  A    between atoms: C_13  and  C_15
REMARK   12  A    between atoms: C_15  and  C_16
REMARK   13  A    between atoms: C_16  and  C_17
REMARK   14  A    between atoms: C_17  and  N_18
REMARK   15  A    between atoms: C_17  and  C_19
REMARK   16  A    between atoms: C_19  and  O_21
REMARK   17  A    between atoms: N_24  and  CA_25
REMARK   18  A    between atoms: CA_25  and  C_26
REMARK   19  A    between atoms: C_26  and  OXT_28
REMARK                            x       y       z     vdW  Elec       q    Type
REMARK                         _______ _______ _______ _____ _____    ______ ____
ROOT
ATOM      1  C   UNK A   1       3.131   6.144  17.468  0.00  0.00    +0.000 C 
ENDROOT
BRANCH   1   2
ATOM      2  C   UNK A   1       4.566   6.442  16.984  0.00  0.00    +0.000 C 
ATOM      3  O   UNK A   1       4.802   6.902  15.867  0.00  0.00    +0.000 OA
ATOM      4  N   GLY A   2       5.554   6.157  17.892  0.00  0.00    +0.000 N 
ATOM      5  H   GLY A   2       5.321   5.767  18.800  0.00  0.00    +0.000 HD
BRANCH   4   6
ATOM      6  CA  GLY A   2       6.966   6.294  17.577  0.00  0.00    +0.000 C 
BRANCH   6   7
ATOM      7  C   GLY A   2       7.551   4.928  17.255  0.00  0.00    +0.000 C 
ATOM      8  O   GLY A   2       7.841   4.555  16.120  0.00  0.00    +0.000 OA
BRANCH   7   9
ATOM      9  OXT GLY A   2       7.728   4.140  18.342  0.00  0.00    +0.000 OA
ATOM     10  HXT GLY A   2       8.412   3.453  18.231  0.00  0.00    +0.000 HD
ENDBRANCH   7   9
ENDBRANCH   6   7
ENDBRANCH   4   6
ENDBRANCH   1   2
BRANCH   1  11
ATOM     11  N   UNK A   1       3.133   4.733  17.883  0.00  0.00    +0.000 N 
ATOM     12  C   UNK A   1       2.087   3.875  17.679  0.00  0.00    +0.000 C 
ATOM     13  O   UNK A   1       1.001   4.194  17.199  0.00  0.00    +0.000 OA
ATOM     14  H   UNK A   1       4.020   4.377  18.233  0.00  0.00    +0.000 HD
BRANCH  12  15
ATOM     15  C   UNK A   1       2.321   2.467  18.179  0.00  0.00    +0.000 C 
BRANCH  15  16
ATOM     16  C   UNK A   1       1.928   2.326  19.649  0.00  0.00    +0.000 C 
BRANCH  16  17
ATOM     17  C   UNK A   1       3.005   2.746  20.661  0.00  0.00    +0.000 C 
BRANCH  17  18
ATOM     18  N   UNK A   1       2.845   4.200  20.922  0.00  0.00    +0.000 NA
ATOM     19  H   UNK A   1       2.946   4.692  20.031  0.00  0.00    +0.000 HD
ATOM     20  H   UNK A   1       3.651   4.519  21.462  0.00  0.00    +0.000 HD
ENDBRANCH  17  18
BRANCH  17  21
ATOM     21  C   UNK A   1       4.429   2.474  20.146  0.00  0.00    +0.000 C 
ATOM     22  O   UNK A   1       4.981   1.383  20.213  0.00  0.00    +0.000 OA
BRANCH  21  23
ATOM     23  O   UNK A   1       5.032   3.558  19.606  0.00  0.00    +0.000 OA
ATOM     24  H   UNK A   1       6.003   3.458  19.447  0.00  0.00    +0.000 HD
ENDBRANCH  21  23
ENDBRANCH  17  21
ENDBRANCH  16  17
ENDBRANCH  15  16
ENDBRANCH  12  15
ENDBRANCH   1  11
BRANCH   1  25
ATOM     25  C   UNK A   1       2.708   7.081  18.618  0.00  0.00    +0.000 C 
BRANCH  25  26
ATOM     26  S   UNK A   1       2.200   8.750  18.055  0.00  0.00    +0.000 S 
BRANCH  26  28
ATOM     27  N   UNK A   1       0.137  10.142  19.005  0.00  0.00    +0.000 N 
ATOM     28  C   UNK A   1       1.100   9.200  19.364  0.00  0.00    +0.000 C 
ATOM     29  O   UNK A   1       1.133   8.618  20.442  0.00  0.00    +0.000 OA
BRANCH  27  30
ATOM     30  O   UNK A   1       0.612  11.220  18.208  0.00  0.00    +0.000 OA
ATOM     31  H   UNK A   1       0.695  10.792  17.335  0.00  0.00    +0.000 HD
ENDBRANCH  27  30
BRANCH  27  32
ATOM     32  C   UNK A   1      -0.810  10.632  20.000  0.00  0.00    +0.000 C 
BRANCH  32  33
ATOM     33  C   UNK A   1      -0.228  11.758  20.865  0.00  0.00    +0.000 C 
BRANCH  33  35
ATOM     34  C   UNK A   1      -2.011  12.016  22.633  0.00  0.00    +0.000 C 
ATOM     35  C   UNK A   1      -0.574  11.604  22.349  0.00  0.00    +0.000 C 
ENDBRANCH  33  35
ENDBRANCH  32  33
ENDBRANCH  27  32
ENDBRANCH  26  28
ENDBRANCH  25  26
ENDBRANCH   1  25
TORSDOF 18
ENDMDL
MODEL 4
REMARK VINA RESULT:      -6.4      3.722      7.187
REMARK  Name = 
REMARK  19 active torsions:
REMARK  status: ('A' for Active; 'I' for Inactive)
REMARK    1  A    between atoms: C_1  and  C_2
REMARK    2  A    between atoms: C_2  and  C_3
REMARK    3  A    between atoms: C_3  and  C_4
REMARK    4  A    between atoms: C_4  and  N_5
REMARK    5  A    between atoms: N_5  and  O_6
REMARK    6  A    between atoms: C_7  and  S_9
REMARK    7  A    between atoms: S_9  and  C_10
REMARK    8  A    between atoms: C_10  and  C_11
REMARK    9  A    between atoms: C_11  and  N_12
REMARK   10  A    between atoms: C_11  and  C_22
REMARK   11  A    between atoms: C_13  and  C_15
REMARK   12  A    between atoms: C_15  and  C_16
REMARK   13  A    between atoms: C_16  and  C_17
REMARK   14  A    between atoms: C_17  and  N_18
REMARK   15  A    between atoms: C_17  and  C_19
REMARK   16  A    between atoms: C_19  and  O_21
REMARK   17  A    between atoms: N_24  and  CA_25
REMARK   18  A    between atoms: CA_25  and  C_26
REMARK   19  A    between atoms: C_26  and  OXT_28
REMARK                            x       y       z     vdW  Elec       q    Type
REMARK                         _______ _______ _______ _____ _____    ______ ____
ROOT
ATOM      1  C   UNK A   1       6.441   4.896  16.145  0.00  0.00    +0.000 C 
ENDROOT
BRANCH   1   2
ATOM      2  C   UNK A   1       6.920   4.740  14.686  0.00  0.00    +0.000 C 
ATOM      3  O   UNK A   1       7.859   5.391  14.227  0.00  0.00    +0.000 OA
ATOM      4  N   GLY A   2       6.220   3.823  13.943  0.00  0.00    +0.000 N 
ATOM      5  H   GLY A   2       5.444   3.314  14.352  0.00  0.00    +0.000 HD
BRANCH   4   6
ATOM      6  CA  GLY A   2       6.476   3.608  12.528  0.00  0.00    +0.000 C 
BRANCH   6   7
ATOM      7  C   GLY A   2       5.374   2.744  11.936  0.00  0.00    +0.000 C 
ATOM      8  O   GLY A   2       4.230   3.141  11.722  0.00  0.00    +0.000 OA
BRANCH   7   9
ATOM      9  OXT GLY A   2       5.762   1.476  11.661  0.00  0.00    +0.000 OA
ATOM     10  HXT GLY A   2       6.625   1.410  11.211  0.00  0.00    +0.000 HD
ENDBRANCH   7   9
ENDBRANCH   6   7
ENDBRANCH   4   6
ENDBRANCH   1   2
BRANCH   1  11
ATOM     11  N   UNK A   1       5.366   3.908  16.322  0.00  0.00    +0.000 N 
ATOM     12  C   UNK A   1       4.170   4.180  16.928  0.00  0.00    +0.000 C 
ATOM     13  O   UNK A   1       3.881   5.250  17.461  0.00  0.00    +0.000 OA
ATOM     14  H   UNK A   1       5.506   3.015  15.853  0.00  0.00    +0.000 HD
BRANCH  12  15
ATOM     15  C   UNK A   1       3.213   3.011  16.985  0.00  0.00    +0.000 C 
BRANCH  15  16
ATOM     16  C   UNK A   1       2.402   3.018  18.282  0.00  0.00    +0.000 C 
BRANCH  16  17
ATOM     17  C   UNK A   1       3.230   2.966  19.575  0.00  0.00    +0.000 C 
BRANCH  17  18
ATOM     18  N   UNK A   1       4.222   1.869  19.439  0.00  0.00    +0.000 NA
ATOM     19  H   UNK A   1       5.135   2.233  19.726  0.00  0.00    +0.000 HD
ATOM     20  H   UNK A   1       4.348   1.672  18.445  0.00  0.00    +0.000 HD
ENDBRANCH  17  18
BRANCH  17  21
ATOM     21  C   UNK A   1       2.357   2.715  20.817  0.00  0.00    +0.000 C 
ATOM     22  O   UNK A   1       2.806   2.418  21.917  0.00  0.00    +0.000 OA
BRANCH  21  23
ATOM     23  O   UNK A   1       1.031   2.851  20.590  0.00  0.00    +0.000 OA
ATOM     24  H   UNK A   1       0.772   3.680  20.116  0.00  0.00    +0.000 HD
ENDBRANCH  21  23
ENDBRANCH  17  21
ENDBRANCH  16  17
ENDBRANCH  15  16
ENDBRANCH  12  15
ENDBRANCH   1  11
BRANCH   1  25
ATOM     25  C   UNK A   1       7.591   4.682  17.150  0.00  0.00    +0.000 C 
BRANCH  25  26
ATOM     26  S   UNK A   1       7.488   5.766  18.625  0.00  0.00    +0.000 S 
BRANCH  26  28
ATOM     27  N   UNK A   1       8.296   8.236  18.037  0.00  0.00    +0.000 N 
ATOM     28  C   UNK A   1       7.249   7.335  17.845  0.00  0.00    +0.000 C 
ATOM     29  O   UNK A   1       6.294   7.529  17.102  0.00  0.00    +0.000 OA
BRANCH  27  30
ATOM     30  O   UNK A   1       8.817   8.283  19.359  0.00  0.00    +0.000 OA
ATOM     31  H   UNK A   1       8.316   7.566  19.791  0.00  0.00    +0.000 HD
ENDBRANCH  27  30
BRANCH  27  32
ATOM     32  C   UNK A   1       8.210   9.581  17.481  0.00  0.00    +0.000 C 
BRANCH  32  33
ATOM     33  C   UNK A   1       9.166  10.566  18.167  0.00  0.00    +0.000 C 
BRANCH  33  35
ATOM     34  C   UNK A   1       9.997  12.948  18.084  0.00  0.00    +0.000 C 
ATOM     35  C   UNK A   1       8.797  12.029  17.904  0.00  0.00    +0.000 C 
ENDBRANCH  33  35
ENDBRANCH  32  33
ENDBRANCH  27  32
ENDBRANCH  26  28
ENDBRANCH  25  26
ENDBRANCH   1  25
TORSDOF 18
ENDMDL
MODEL 5
REMARK VINA RESULT:      -6.4      4.443      8.968
REMARK  Name = 
REMARK  19 active torsions:
REMARK  status: ('A' for Active; 'I' for Inactive)
REMARK    1  A    between atoms: C_1  and  C_2
REMARK    2  A    between atoms: C_2  and  C_3
REMARK    3  A    between atoms: C_3  and  C_4
REMARK    4  A    between atoms: C_4  and  N_5
REMARK    5  A    between atoms: N_5  and  O_6
REMARK    6  A    between atoms: C_7  and  S_9
REMARK    7  A    between atoms: S_9  and  C_10
REMARK    8  A    between atoms: C_10  and  C_11
REMARK    9  A    between atoms: C_11  and  N_12
REMARK   10  A    between atoms: C_11  and  C_22
REMARK   11  A    between atoms: C_13  and  C_15
REMARK   12  A    between atoms: C_15  and  C_16
REMARK   13  A    between atoms: C_16  and  C_17
REMARK   14  A    between atoms: C_17  and  N_18
REMARK   15  A    between atoms: C_17  and  C_19
REMARK   16  A    between atoms: C_19  and  O_21
REMARK   17  A    between atoms: N_24  and  CA_25
REMARK   18  A    between atoms: CA_25  and  C_26
REMARK   19  A    between atoms: C_26  and  OXT_28
REMARK                            x       y       z     vdW  Elec       q    Type
REMARK                         _______ _______ _______ _____ _____    ______ ____
ROOT
ATOM      1  C   UNK A   1       7.359   6.741  17.297  0.00  0.00    +0.000 C 
ENDROOT
BRANCH   1   2
ATOM      2  C   UNK A   1       6.727   6.356  15.942  0.00  0.00    +0.000 C 
ATOM      3  O   UNK A   1       5.604   6.734  15.608  0.00  0.00    +0.000 OA
ATOM      4  N   GLY A   2       7.511   5.565  15.142  0.00  0.00    +0.000 N 
ATOM      5  H   GLY A   2       8.428   5.262  15.456  0.00  0.00    +0.000 HD
BRANCH   4   6
ATOM      6  CA  GLY A   2       7.044   5.037  13.870  0.00  0.00    +0.000 C 
BRANCH   6   7
ATOM      7  C   GLY A   2       6.325   3.717  14.100  0.00  0.00    +0.000 C 
ATOM      8  O   GLY A   2       5.893   3.351  15.191  0.00  0.00    +0.000 OA
BRANCH   7   9
ATOM      9  OXT GLY A   2       6.200   2.962  12.983  0.00  0.00    +0.000 OA
ATOM     10  HXT GLY A   2       5.730   3.404  12.251  0.00  0.00    +0.000 HD
ENDBRANCH   7   9
ENDBRANCH   6   7
ENDBRANCH   4   6
ENDBRANCH   1   2
BRANCH   1  11
ATOM     11  N   UNK A   1       7.523   8.202  17.263  0.00  0.00    +0.000 N 
ATOM     12  C   UNK A   1       8.315   8.903  18.131  0.00  0.00    +0.000 C 
ATOM     13  O   UNK A   1       8.919   8.411  19.082  0.00  0.00    +0.000 OA
ATOM     14  H   UNK A   1       7.102   8.675  16.465  0.00  0.00    +0.000 HD
BRANCH  12  15
ATOM     15  C   UNK A   1       8.338  10.397  17.896  0.00  0.00    +0.000 C 
BRANCH  15  16
ATOM     16  C   UNK A   1       9.608  11.029  18.464  0.00  0.00    +0.000 C 
BRANCH  16  17
ATOM     17  C   UNK A   1       9.850  12.493  18.064  0.00  0.00    +0.000 C 
BRANCH  17  18
ATOM     18  N   UNK A   1       8.686  12.946  17.260  0.00  0.00    +0.000 NA
ATOM     19  H   UNK A   1       8.689  12.423  16.380  0.00  0.00    +0.000 HD
ATOM     20  H   UNK A   1       8.856  13.908  16.964  0.00  0.00    +0.000 HD
ENDBRANCH  17  18
BRANCH  17  21
ATOM     21  C   UNK A   1      11.139  12.669  17.241  0.00  0.00    +0.000 C 
ATOM     22  O   UNK A   1      11.318  13.577  16.440  0.00  0.00    +0.000 OA
BRANCH  21  23
ATOM     23  O   UNK A   1      12.073  11.719  17.479  0.00  0.00    +0.000 OA
ATOM     24  H   UNK A   1      12.671  11.522  16.716  0.00  0.00    +0.000 HD
ENDBRANCH  21  23
ENDBRANCH  17  21
ENDBRANCH  16  17
ENDBRANCH  15  16
ENDBRANCH  12  15
ENDBRANCH   1  11
BRANCH   1  25
ATOM     25  C   UNK A   1       6.488   6.286  18.484  0.00  0.00    +0.000 C 
BRANCH  25  26
ATOM     26  S   UNK A   1       6.305   4.466  18.608  0.00  0.00    +0.000 S 
BRANCH  26  28
ATOM     27  N   UNK A   1       4.022   3.102  18.746  0.00  0.00    +0.000 N 
ATOM     28  C   UNK A   1       4.587   4.350  19.006  0.00  0.00    +0.000 C 
ATOM     29  O   UNK A   1       4.010   5.268  19.578  0.00  0.00    +0.000 OA
BRANCH  27  30
ATOM     30  O   UNK A   1       4.404   2.509  17.512  0.00  0.00    +0.000 OA
ATOM     31  H   UNK A   1       5.370   2.650  17.521  0.00  0.00    +0.000 HD
ENDBRANCH  27  30
BRANCH  27  32
ATOM     32  C   UNK A   1       2.601   2.881  18.991  0.00  0.00    +0.000 C 
BRANCH  32  33
ATOM     33  C   UNK A   1       2.327   2.276  20.374  0.00  0.00    +0.000 C 
BRANCH  33  35
ATOM     34  C   UNK A   1       0.863   4.331  20.432  0.00  0.00    +0.000 C 
ATOM     35  C   UNK A   1       1.321   3.093  21.189  0.00  0.00    +0.000 C 
ENDBRANCH  33  35
ENDBRANCH  32  33
ENDBRANCH  27  32
ENDBRANCH  26  28
ENDBRANCH  25  26
ENDBRANCH   1  25
TORSDOF 18
ENDMDL
MODEL 6
REMARK VINA RESULT:      -6.3      3.431      6.934
REMARK  Name = 
REMARK  19 active torsions:
REMARK  status: ('A' for Active; 'I' for Inactive)
REMARK    1  A    between atoms: C_1  and  C_2
REMARK    2  A    between atoms: C_2  and  C_3
REMARK    3  A    between atoms: C_3  and  C_4
REMARK    4  A    between atoms: C_4  and  N_5
REMARK    5  A    between atoms: N_5  and  O_6
REMARK    6  A    between atoms: C_7  and  S_9
REMARK    7  A    between atoms: S_9  and  C_10
REMARK    8  A    between atoms: C_10  and  C_11
REMARK    9  A    between atoms: C_11  and  N_12
REMARK   10  A    between atoms: C_11  and  C_22
REMARK   11  A    between atoms: C_13  and  C_15
REMARK   12  A    between atoms: C_15  and  C_16
REMARK   13  A    between atoms: C_16  and  C_17
REMARK   14  A    between atoms: C_17  and  N_18
REMARK   15  A    between atoms: C_17  and  C_19
REMARK   16  A    between atoms: C_19  and  O_21
REMARK   17  A    between atoms: N_24  and  CA_25
REMARK   18  A    between atoms: CA_25  and  C_26
REMARK   19  A    between atoms: C_26  and  OXT_28
REMARK                            x       y       z     vdW  Elec       q    Type
REMARK                         _______ _______ _______ _____ _____    ______ ____
ROOT
ATOM      1  C   UNK A   1       5.009   4.998  15.929  0.00  0.00    +0.000 C 
ENDROOT
BRANCH   1   2
ATOM      2  C   UNK A   1       6.012   4.601  14.824  0.00  0.00    +0.000 C 
ATOM      3  O   UNK A   1       7.215   4.850  14.906  0.00  0.00    +0.000 OA
ATOM      4  N   GLY A   2       5.461   3.951  13.749  0.00  0.00    +0.000 N 
ATOM      5  H   GLY A   2       4.462   3.774  13.712  0.00  0.00    +0.000 HD
BRANCH   4   6
ATOM      6  CA  GLY A   2       6.240   3.580  12.580  0.00  0.00    +0.000 C 
BRANCH   6   7
ATOM      7  C   GLY A   2       5.444   2.606  11.725  0.00  0.00    +0.000 C 
ATOM      8  O   GLY A   2       4.319   2.837  11.287  0.00  0.00    +0.000 OA
BRANCH   7   9
ATOM      9  OXT GLY A   2       6.088   1.439  11.485  0.00  0.00    +0.000 OA
ATOM     10  HXT GLY A   2       6.580   1.088  12.251  0.00  0.00    +0.000 HD
ENDBRANCH   7   9
ENDBRANCH   6   7
ENDBRANCH   4   6
ENDBRANCH   1   2
BRANCH   1  11
ATOM     11  N   UNK A   1       4.418   3.739  16.405  0.00  0.00    +0.000 N 
ATOM     12  C   UNK A   1       3.257   3.662  17.124  0.00  0.00    +0.000 C 
ATOM     13  O   UNK A   1       2.613   4.632  17.522  0.00  0.00    +0.000 OA
ATOM     14  H   UNK A   1       4.860   2.887  16.064  0.00  0.00    +0.000 HD
BRANCH  12  15
ATOM     15  C   UNK A   1       2.835   2.258  17.493  0.00  0.00    +0.000 C 
BRANCH  15  16
ATOM     16  C   UNK A   1       2.812   2.065  19.010  0.00  0.00    +0.000 C 
BRANCH  16  17
ATOM     17  C   UNK A   1       1.417   2.068  19.653  0.00  0.00    +0.000 C 
BRANCH  17  18
ATOM     18  N   UNK A   1       0.424   2.361  18.588  0.00  0.00    +0.000 NA
ATOM     19  H   UNK A   1      -0.383   1.747  18.733  0.00  0.00    +0.000 HD
ATOM     20  H   UNK A   1       0.806   2.042  17.697  0.00  0.00    +0.000 HD
ENDBRANCH  17  18
BRANCH  17  21
ATOM     21  C   UNK A   1       1.291   3.117  20.772  0.00  0.00    +0.000 C 
ATOM     22  O   UNK A   1       0.963   4.280  20.582  0.00  0.00    +0.000 OA
BRANCH  21  23
ATOM     23  O   UNK A   1       1.581   2.639  22.004  0.00  0.00    +0.000 OA
ATOM     24  H   UNK A   1       1.589   1.652  22.077  0.00  0.00    +0.000 HD
ENDBRANCH  21  23
ENDBRANCH  17  21
ENDBRANCH  16  17
ENDBRANCH  15  16
ENDBRANCH  12  15
ENDBRANCH   1  11
BRANCH   1  25
ATOM     25  C   UNK A   1       5.693   5.780  17.068  0.00  0.00    +0.000 C 
BRANCH  25  26
ATOM     26  S   UNK A   1       6.651   4.717  18.216  0.00  0.00    +0.000 S 
BRANCH  26  28
ATOM     27  N   UNK A   1       7.774   7.133  18.250  0.00  0.00    +0.000 N 
ATOM     28  C   UNK A   1       7.715   5.926  18.947  0.00  0.00    +0.000 C 
ATOM     29  O   UNK A   1       8.235   5.729  20.038  0.00  0.00    +0.000 OA
BRANCH  27  30
ATOM     30  O   UNK A   1       7.868   7.011  16.836  0.00  0.00    +0.000 OA
ATOM     31  H   UNK A   1       7.097   7.533  16.546  0.00  0.00    +0.000 HD
ENDBRANCH  27  30
BRANCH  27  32
ATOM     32  C   UNK A   1       8.646   8.203  18.721  0.00  0.00    +0.000 C 
BRANCH  32  33
ATOM     33  C   UNK A   1       8.310   9.560  18.089  0.00  0.00    +0.000 C 
BRANCH  33  35
ATOM     34  C   UNK A   1       8.931  11.996  17.860  0.00  0.00    +0.000 C 
ATOM     35  C   UNK A   1       9.312  10.655  18.469  0.00  0.00    +0.000 C 
ENDBRANCH  33  35
ENDBRANCH  32  33
ENDBRANCH  27  32
ENDBRANCH  26  28
ENDBRANCH  25  26
ENDBRANCH   1  25
TORSDOF 18
ENDMDL
MODEL 7
REMARK VINA RESULT:      -6.3      2.189      7.563
REMARK  Name = 
REMARK  19 active torsions:
REMARK  status: ('A' for Active; 'I' for Inactive)
REMARK    1  A    between atoms: C_1  and  C_2
REMARK    2  A    between atoms: C_2  and  C_3
REMARK    3  A    between atoms: C_3  and  C_4
REMARK    4  A    between atoms: C_4  and  N_5
REMARK    5  A    between atoms: N_5  and  O_6
REMARK    6  A    between atoms: C_7  and  S_9
REMARK    7  A    between atoms: S_9  and  C_10
REMARK    8  A    between atoms: C_10  and  C_11
REMARK    9  A    between atoms: C_11  and  N_12
REMARK   10  A    between atoms: C_11  and  C_22
REMARK   11  A    between atoms: C_13  and  C_15
REMARK   12  A    between atoms: C_15  and  C_16
REMARK   13  A    between atoms: C_16  and  C_17
REMARK   14  A    between atoms: C_17  and  N_18
REMARK   15  A    between atoms: C_17  and  C_19
REMARK   16  A    between atoms: C_19  and  O_21
REMARK   17  A    between atoms: N_24  and  CA_25
REMARK   18  A    between atoms: CA_25  and  C_26
REMARK   19  A    between atoms: C_26  and  OXT_28
REMARK                            x       y       z     vdW  Elec       q    Type
REMARK                         _______ _______ _______ _____ _____    ______ ____
ROOT
ATOM      1  C   UNK A   1       2.827   6.352  18.084  0.00  0.00    +0.000 C 
ENDROOT
BRANCH   1   2
ATOM      2  C   UNK A   1       4.347   6.093  18.152  0.00  0.00    +0.000 C 
ATOM      3  O   UNK A   1       4.928   5.845  19.209  0.00  0.00    +0.000 OA
ATOM      4  N   GLY A   2       5.000   6.159  16.947  0.00  0.00    +0.000 N 
ATOM      5  H   GLY A   2       4.490   6.378  16.097  0.00  0.00    +0.000 HD
BRANCH   4   6
ATOM      6  CA  GLY A   2       6.442   6.027  16.833  0.00  0.00    +0.000 C 
BRANCH   6   7
ATOM      7  C   GLY A   2       6.796   4.592  16.474  0.00  0.00    +0.000 C 
ATOM      8  O   GLY A   2       6.117   3.882  15.736  0.00  0.00    +0.000 OA
BRANCH   7   9
ATOM      9  OXT GLY A   2       7.940   4.152  17.048  0.00  0.00    +0.000 OA
ATOM     10  HXT GLY A   2       8.004   3.180  17.120  0.00  0.00    +0.000 HD
ENDBRANCH   7   9
ENDBRANCH   6   7
ENDBRANCH   4   6
ENDBRANCH   1   2
BRANCH   1  11
ATOM     11  N   UNK A   1       2.208   5.334  18.945  0.00  0.00    +0.000 N 
ATOM     12  C   UNK A   1       1.488   4.270  18.474  0.00  0.00    +0.000 C 
ATOM     13  O   UNK A   1       1.208   4.080  17.292  0.00  0.00    +0.000 OA
ATOM     14  H   UNK A   1       2.446   5.387  19.934  0.00  0.00    +0.000 HD
BRANCH  12  15
ATOM     15  C   UNK A   1       0.957   3.345  19.546  0.00  0.00    +0.000 C 
BRANCH  15  16
ATOM     16  C   UNK A   1       1.988   2.280  19.923  0.00  0.00    +0.000 C 
BRANCH  16  17
ATOM     17  C   UNK A   1       3.272   2.280  19.079  0.00  0.00    +0.000 C 
BRANCH  17  18
ATOM     18  N   UNK A   1       3.328   0.996  18.334  0.00  0.00    +0.000 NA
ATOM     19  H   UNK A   1       4.018   0.395  18.794  0.00  0.00    +0.000 HD
ATOM     20  H   UNK A   1       3.744   1.175  17.418  0.00  0.00    +0.000 HD
ENDBRANCH  17  18
BRANCH  17  21
ATOM     21  C   UNK A   1       4.537   2.427  19.941  0.00  0.00    +0.000 C 
ATOM     22  O   UNK A   1       4.675   1.915  21.044  0.00  0.00    +0.000 OA
BRANCH  21  23
ATOM     23  O   UNK A   1       5.502   3.185  19.370  0.00  0.00    +0.000 OA
ATOM     24  H   UNK A   1       5.325   4.158  19.374  0.00  0.00    +0.000 HD
ENDBRANCH  21  23
ENDBRANCH  17  21
ENDBRANCH  16  17
ENDBRANCH  15  16
ENDBRANCH  12  15
ENDBRANCH   1  11
BRANCH   1  25
ATOM     25  C   UNK A   1       2.470   7.782  18.537  0.00  0.00    +0.000 C 
BRANCH  25  26
ATOM     26  S   UNK A   1       1.780   7.865  20.234  0.00  0.00    +0.000 S 
BRANCH  26  28
ATOM     27  N   UNK A   1       1.090  10.258  21.178  0.00  0.00    +0.000 N 
ATOM     28  C   UNK A   1       0.862   9.372  20.126  0.00  0.00    +0.000 C 
ATOM     29  O   UNK A   1       0.194   9.631  19.132  0.00  0.00    +0.000 OA
BRANCH  27  30
ATOM     30  O   UNK A   1       1.140   9.664  22.469  0.00  0.00    +0.000 OA
ATOM     31  H   UNK A   1       2.100   9.532  22.583  0.00  0.00    +0.000 HD
ENDBRANCH  27  30
BRANCH  27  32
ATOM     32  C   UNK A   1       0.366  11.523  21.234  0.00  0.00    +0.000 C 
BRANCH  32  33
ATOM     33  C   UNK A   1      -1.008  11.388  21.902  0.00  0.00    +0.000 C 
BRANCH  33  35
ATOM     34  C   UNK A   1      -2.359  13.416  22.564  0.00  0.00    +0.000 C 
ATOM     35  C   UNK A   1      -1.252  12.456  22.974  0.00  0.00    +0.000 C 
ENDBRANCH  33  35
ENDBRANCH  32  33
ENDBRANCH  27  32
ENDBRANCH  26  28
ENDBRANCH  25  26
ENDBRANCH   1  25
TORSDOF 18
ENDMDL
MODEL 8
REMARK VINA RESULT:      -6.3      2.690      6.852
REMARK  Name = 
REMARK  19 active torsions:
REMARK  status: ('A' for Active; 'I' for Inactive)
REMARK    1  A    between atoms: C_1  and  C_2
REMARK    2  A    between atoms: C_2  and  C_3
REMARK    3  A    between atoms: C_3  and  C_4
REMARK    4  A    between atoms: C_4  and  N_5
REMARK    5  A    between atoms: N_5  and  O_6
REMARK    6  A    between atoms: C_7  and  S_9
REMARK    7  A    between atoms: S_9  and  C_10
REMARK    8  A    between atoms: C_10  and  C_11
REMARK    9  A    between atoms: C_11  and  N_12
REMARK   10  A    between atoms: C_11  and  C_22
REMARK   11  A    between atoms: C_13  and  C_15
REMARK   12  A    between atoms: C_15  and  C_16
REMARK   13  A    between atoms: C_16  and  C_17
REMARK   14  A    between atoms: C_17  and  N_18
REMARK   15  A    between atoms: C_17  and  C_19
REMARK   16  A    between atoms: C_19  and  O_21
REMARK   17  A    between atoms: N_24  and  CA_25
REMARK   18  A    between atoms: CA_25  and  C_26
REMARK   19  A    between atoms: C_26  and  OXT_28
REMARK                            x       y       z     vdW  Elec       q    Type
REMARK                         _______ _______ _______ _____ _____    ______ ____
ROOT
ATOM      1  C   UNK A   1       3.491   6.079  18.438  0.00  0.00    +0.000 C 
ENDROOT
BRANCH   1   2
ATOM      2  C   UNK A   1       4.677   6.527  17.557  0.00  0.00    +0.000 C 
ATOM      3  O   UNK A   1       4.522   7.195  16.534  0.00  0.00    +0.000 OA
ATOM      4  N   GLY A   2       5.911   6.124  17.999  0.00  0.00    +0.000 N 
ATOM      5  H   GLY A   2       5.999   5.563  18.840  0.00  0.00    +0.000 HD
BRANCH   4   6
ATOM      6  CA  GLY A   2       7.130   6.381  17.250  0.00  0.00    +0.000 C 
BRANCH   6   7
ATOM      7  C   GLY A   2       7.836   7.598  17.827  0.00  0.00    +0.000 C 
ATOM      8  O   GLY A   2       7.797   8.718  17.322  0.00  0.00    +0.000 OA
BRANCH   7   9
ATOM      9  OXT GLY A   2       8.526   7.341  18.963  0.00  0.00    +0.000 OA
ATOM     10  HXT GLY A   2       8.379   6.448  19.328  0.00  0.00    +0.000 HD
ENDBRANCH   7   9
ENDBRANCH   6   7
ENDBRANCH   4   6
ENDBRANCH   1   2
BRANCH   1  11
ATOM     11  N   UNK A   1       2.719   7.298  18.720  0.00  0.00    +0.000 N 
ATOM     12  C   UNK A   1       1.991   7.495  19.862  0.00  0.00    +0.000 C 
ATOM     13  O   UNK A   1       1.833   6.656  20.747  0.00  0.00    +0.000 OA
ATOM     14  H   UNK A   1       2.848   8.065  18.063  0.00  0.00    +0.000 HD
BRANCH  12  15
ATOM     15  C   UNK A   1       1.288   8.832  19.938  0.00  0.00    +0.000 C 
BRANCH  15  16
ATOM     16  C   UNK A   1       0.362   8.905  21.153  0.00  0.00    +0.000 C 
BRANCH  16  17
ATOM     17  C   UNK A   1      -0.105  10.317  21.540  0.00  0.00    +0.000 C 
BRANCH  17  18
ATOM     18  N   UNK A   1       1.068  11.224  21.459  0.00  0.00    +0.000 NA
ATOM     19  H   UNK A   1       0.859  11.947  20.764  0.00  0.00    +0.000 HD
ATOM     20  H   UNK A   1       1.844  10.709  21.039  0.00  0.00    +0.000 HD
ENDBRANCH  17  18
BRANCH  17  21
ATOM     21  C   UNK A   1      -0.693  10.368  22.961  0.00  0.00    +0.000 C 
ATOM     22  O   UNK A   1      -1.598  11.121  23.298  0.00  0.00    +0.000 OA
BRANCH  21  23
ATOM     23  O   UNK A   1      -0.118   9.498  23.823  0.00  0.00    +0.000 OA
ATOM     24  H   UNK A   1       0.839   9.313  23.652  0.00  0.00    +0.000 HD
ENDBRANCH  21  23
ENDBRANCH  17  21
ENDBRANCH  16  17
ENDBRANCH  15  16
ENDBRANCH  12  15
ENDBRANCH   1  11
BRANCH   1  25
ATOM     25  C   UNK A   1       2.635   5.003  17.742  0.00  0.00    +0.000 C 
BRANCH  25  26
ATOM     26  S   UNK A   1       3.620   3.637  17.016  0.00  0.00    +0.000 S 
BRANCH  26  28
ATOM     27  N   UNK A   1       4.280   2.882  19.484  0.00  0.00    +0.000 N 
ATOM     28  C   UNK A   1       3.577   2.477  18.350  0.00  0.00    +0.000 C 
ATOM     29  O   UNK A   1       2.874   1.475  18.290  0.00  0.00    +0.000 OA
BRANCH  27  30
ATOM     30  O   UNK A   1       5.547   3.476  19.231  0.00  0.00    +0.000 OA
ATOM     31  H   UNK A   1       5.352   4.420  19.384  0.00  0.00    +0.000 HD
ENDBRANCH  27  30
BRANCH  27  32
ATOM     32  C   UNK A   1       4.360   2.002  20.644  0.00  0.00    +0.000 C 
BRANCH  32  33
ATOM     33  C   UNK A   1       3.091   2.043  21.506  0.00  0.00    +0.000 C 
BRANCH  33  35
ATOM     34  C   UNK A   1       1.004   3.271  20.793  0.00  0.00    +0.000 C 
ATOM     35  C   UNK A   1       2.375   3.396  21.441  0.00  0.00    +0.000 C 
ENDBRANCH  33  35
ENDBRANCH  32  33
ENDBRANCH  27  32
ENDBRANCH  26  28
ENDBRANCH  25  26
ENDBRANCH   1  25
TORSDOF 18
ENDMDL
MODEL 9
REMARK VINA RESULT:      -6.3      4.205      8.829
REMARK  Name = 
REMARK  19 active torsions:
REMARK  status: ('A' for Active; 'I' for Inactive)
REMARK    1  A    between atoms: C_1  and  C_2
REMARK    2  A    between atoms: C_2  and  C_3
REMARK    3  A    between atoms: C_3  and  C_4
REMARK    4  A    between atoms: C_4  and  N_5
REMARK    5  A    between atoms: N_5  and  O_6
REMARK    6  A    between atoms: C_7  and  S_9
REMARK    7  A    between atoms: S_9  and  C_10
REMARK    8  A    between atoms: C_10  and  C_11
REMARK    9  A    between atoms: C_11  and  N_12
REMARK   10  A    between atoms: C_11  and  C_22
REMARK   11  A    between atoms: C_13  and  C_15
REMARK   12  A    between atoms: C_15  and  C_16
REMARK   13  A    between atoms: C_16  and  C_17
REMARK   14  A    between atoms: C_17  and  N_18
REMARK   15  A    between atoms: C_17  and  C_19
REMARK   16  A    between atoms: C_19  and  O_21
REMARK   17  A    between atoms: N_24  and  CA_25
REMARK   18  A    between atoms: CA_25  and  C_26
REMARK   19  A    between atoms: C_26  and  OXT_28
REMARK                            x       y       z     vdW  Elec       q    Type
REMARK                         _______ _______ _______ _____ _____    ______ ____
ROOT
ATOM      1  C   UNK A   1       6.908   6.138  17.064  0.00  0.00    +0.000 C 
ENDROOT
BRANCH   1   2
ATOM      2  C   UNK A   1       6.137   5.835  15.761  0.00  0.00    +0.000 C 
ATOM      3  O   UNK A   1       5.522   6.702  15.142  0.00  0.00    +0.000 OA
ATOM      4  N   GLY A   2       6.193   4.528  15.348  0.00  0.00    +0.000 N 
ATOM      5  H   GLY A   2       6.700   3.837  15.891  0.00  0.00    +0.000 HD
BRANCH   4   6
ATOM      6  CA  GLY A   2       5.457   4.044  14.192  0.00  0.00    +0.000 C 
BRANCH   6   7
ATOM      7  C   GLY A   2       6.416   3.823  13.033  0.00  0.00    +0.000 C 
ATOM      8  O   GLY A   2       7.294   4.620  12.707  0.00  0.00    +0.000 OA
BRANCH   7   9
ATOM      9  OXT GLY A   2       6.219   2.657  12.375  0.00  0.00    +0.000 OA
ATOM     10  HXT GLY A   2       5.445   2.659  11.780  0.00  0.00    +0.000 HD
ENDBRANCH   7   9
ENDBRANCH   6   7
ENDBRANCH   4   6
ENDBRANCH   1   2
BRANCH   1  11
ATOM     11  N   UNK A   1       7.140   7.590  17.063  0.00  0.00    +0.000 N 
ATOM     12  C   UNK A   1       8.007   8.227  17.909  0.00  0.00    +0.000 C 
ATOM     13  O   UNK A   1       8.633   7.678  18.814  0.00  0.00    +0.000 OA
ATOM     14  H   UNK A   1       6.704   8.107  16.301  0.00  0.00    +0.000 HD
BRANCH  12  15
ATOM     15  C   UNK A   1       8.091   9.724  17.715  0.00  0.00    +0.000 C 
BRANCH  15  16
ATOM     16  C   UNK A   1       9.429  10.275  18.212  0.00  0.00    +0.000 C 
BRANCH  16  17
ATOM     17  C   UNK A   1       9.478  11.797  18.419  0.00  0.00    +0.000 C 
BRANCH  17  18
ATOM     18  N   UNK A   1       8.466  12.413  17.523  0.00  0.00    +0.000 NA
ATOM     19  H   UNK A   1       8.274  11.753  16.764  0.00  0.00    +0.000 HD
ATOM     20  H   UNK A   1       8.901  13.204  17.044  0.00  0.00    +0.000 HD
ENDBRANCH  17  18
BRANCH  17  21
ATOM     21  C   UNK A   1      10.864  12.385  18.104  0.00  0.00    +0.000 C 
ATOM     22  O   UNK A   1      11.200  13.528  18.385  0.00  0.00    +0.000 OA
BRANCH  21  23
ATOM     23  O   UNK A   1      11.696  11.519  17.480  0.00  0.00    +0.000 OA
ATOM     24  H   UNK A   1      12.503  11.270  17.996  0.00  0.00    +0.000 HD
ENDBRANCH  21  23
ENDBRANCH  17  21
ENDBRANCH  16  17
ENDBRANCH  15  16
ENDBRANCH  12  15
ENDBRANCH   1  11
BRANCH   1  25
ATOM     25  C   UNK A   1       6.125   5.682  18.311  0.00  0.00    +0.000 C 
BRANCH  25  26
ATOM     26  S   UNK A   1       4.369   6.211  18.310  0.00  0.00    +0.000 S 
BRANCH  26  28
ATOM     27  N   UNK A   1       3.865   3.629  18.730  0.00  0.00    +0.000 N 
ATOM     28  C   UNK A   1       3.648   4.902  19.256  0.00  0.00    +0.000 C 
ATOM     29  O   UNK A   1       3.121   5.125  20.340  0.00  0.00    +0.000 OA
BRANCH  27  30
ATOM     30  O   UNK A   1       3.710   3.522  17.321  0.00  0.00    +0.000 OA
ATOM     31  H   UNK A   1       4.627   3.656  17.015  0.00  0.00    +0.000 HD
ENDBRANCH  27  30
BRANCH  27  32
ATOM     32  C   UNK A   1       3.290   2.462  19.389  0.00  0.00    +0.000 C 
BRANCH  32  33
ATOM     33  C   UNK A   1       1.860   2.164  18.922  0.00  0.00    +0.000 C 
BRANCH  33  35
ATOM     34  C   UNK A   1       1.269   2.688  21.319  0.00  0.00    +0.000 C 
ATOM     35  C   UNK A   1       0.797   2.724  19.873  0.00  0.00    +0.000 C 
ENDBRANCH  33  35
ENDBRANCH  32  33
ENDBRANCH  27  32
ENDBRANCH  26  28
ENDBRANCH  25  26
ENDBRANCH   1  25
TORSDOF 18
ENDMDL
