MODEL 1
REMARK VINA RESULT:      -7.3      0.000      0.000
REMARK  Name = 
REMARK  9 active torsions:
REMARK  status: ('A' for Active; 'I' for Inactive)
REMARK    1  A    between atoms: C_1  and  C_2
REMARK    2  A    between atoms: C_5  and  C_6
REMARK    3  A    between atoms: C_6  and  C_7
REMARK    4  A    between atoms: C_6  and  C_8
REMARK    5  A    between atoms: C_8  and  C_9
REMARK    6  A    between atoms: C_9  and  N_10
REMARK    7  A    between atoms: N_14  and  C_15
REMARK    8  A    between atoms: C_15  and  C_16
REMARK    9  A    between atoms: C_15  and  C_17
REMARK                            x       y       z     vdW  Elec       q    Type
REMARK                         _______ _______ _______ _____ _____    ______ ____
ROOT
ATOM      1  C   UNL     1       6.009   4.875  18.941  0.00  0.00    +0.000 C 
ENDROOT
BRANCH   1   2
ATOM      2  N   UNL     1       4.987   3.875  18.501  0.00  0.00    +0.000 NA
ATOM      3  C   UNL     1       3.749   4.569  18.108  0.00  0.00    +0.000 C 
ATOM      4  C   UNL     1       2.654   3.779  17.387  0.00  0.00    +0.000 C 
ATOM      5  C   UNL     1       2.175   2.435  17.930  0.00  0.00    +0.000 C 
ATOM      6  N   UNL     1       2.369   2.128  19.346  0.00  0.00    +0.000 NA
ATOM      7  C   UNL     1       3.790   1.807  19.559  0.00  0.00    +0.000 C 
ATOM      8  C   UNL     1       4.783   2.980  19.673  0.00  0.00    +0.000 C 
BRANCH   6   9
ATOM      9  C   UNL     1       1.772   3.076  20.308  0.00  0.00    +0.000 C 
ATOM     10  C   UNL     1       0.328   3.449  19.942  0.00  0.00    +0.000 C 
ATOM     11  C   UNL     1       1.769   2.547  21.752  0.00  0.00    +0.000 C 
ENDBRANCH   6   9
ENDBRANCH   1   2
BRANCH   1  12
ATOM     12  C   UNL     1       7.290   4.936  18.092  0.00  0.00    +0.000 C 
BRANCH  12  13
ATOM     13  C   UNL     1       7.214   5.903  16.892  0.00  0.00    +0.000 C 
ATOM     14  C   UNL     1       6.242   7.060  17.127  0.00  0.00    +0.000 C 
BRANCH  13  19
ATOM     15  C   UNL     1       7.719   5.123  12.139  0.00  0.00    +0.000 C 
ATOM     16  C   UNL     1       7.142   4.820  13.462  0.00  0.00    +0.000 A 
ATOM     17  C   UNL     1       6.215   3.908  13.912  0.00  0.00    +0.000 A 
ATOM     18  C   UNL     1       6.079   4.128  15.302  0.00  0.00    +0.000 A 
ATOM     19  C   UNL     1       6.933   5.167  15.619  0.00  0.00    +0.000 A 
ATOM     20  O   UNL     1       7.579   5.591  14.496  0.00  0.00    +0.000 OA
ENDBRANCH  13  19
ENDBRANCH  12  13
ENDBRANCH   1  12
TORSDOF 5
ENDMDL
MODEL 2
REMARK VINA RESULT:      -6.8      1.302      1.732
REMARK  Name = 
REMARK  9 active torsions:
REMARK  status: ('A' for Active; 'I' for Inactive)
REMARK    1  A    between atoms: C_1  and  C_2
REMARK    2  A    between atoms: C_5  and  C_6
REMARK    3  A    between atoms: C_6  and  C_7
REMARK    4  A    between atoms: C_6  and  C_8
REMARK    5  A    between atoms: C_8  and  C_9
REMARK    6  A    between atoms: C_9  and  N_10
REMARK    7  A    between atoms: N_14  and  C_15
REMARK    8  A    between atoms: C_15  and  C_16
REMARK    9  A    between atoms: C_15  and  C_17
REMARK                            x       y       z     vdW  Elec       q    Type
REMARK                         _______ _______ _______ _____ _____    ______ ____
ROOT
ATOM      1  C   UNL     1       5.678   4.397  17.666  0.00  0.00    +0.000 C 
ENDROOT
BRANCH   1   2
ATOM      2  N   UNL     1       4.352   3.703  17.662  0.00  0.00    +0.000 NA
ATOM      3  C   UNL     1       3.273   4.691  17.825  0.00  0.00    +0.000 C 
ATOM      4  C   UNL     1       1.825   4.251  17.599  0.00  0.00    +0.000 C 
ATOM      5  C   UNL     1       1.281   2.988  18.261  0.00  0.00    +0.000 C 
ATOM      6  N   UNL     1       1.932   2.477  19.467  0.00  0.00    +0.000 NA
ATOM      7  C   UNL     1       3.195   1.833  19.072  0.00  0.00    +0.000 C 
ATOM      8  C   UNL     1       4.410   2.740  18.795  0.00  0.00    +0.000 C 
BRANCH   6   9
ATOM      9  C   UNL     1       2.015   3.410  20.609  0.00  0.00    +0.000 C 
ATOM     10  C   UNL     1       0.874   4.438  20.609  0.00  0.00    +0.000 C 
ATOM     11  C   UNL     1       2.003   2.695  21.971  0.00  0.00    +0.000 C 
ENDBRANCH   6   9
ENDBRANCH   1   2
BRANCH   1  12
ATOM     12  C   UNL     1       6.563   4.151  16.432  0.00  0.00    +0.000 C 
BRANCH  12  13
ATOM     13  C   UNL     1       6.580   5.312  15.417  0.00  0.00    +0.000 C 
ATOM     14  C   UNL     1       5.372   6.239  15.560  0.00  0.00    +0.000 C 
BRANCH  13  19
ATOM     15  C   UNL     1       5.486   2.426  11.685  0.00  0.00    +0.000 C 
ATOM     16  C   UNL     1       6.277   3.491  12.330  0.00  0.00    +0.000 A 
ATOM     17  C   UNL     1       7.355   4.249  11.935  0.00  0.00    +0.000 A 
ATOM     18  C   UNL     1       7.665   5.100  13.021  0.00  0.00    +0.000 A 
ATOM     19  C   UNL     1       6.754   4.808  14.018  0.00  0.00    +0.000 A 
ATOM     20  O   UNL     1       5.910   3.824  13.598  0.00  0.00    +0.000 OA
ENDBRANCH  13  19
ENDBRANCH  12  13
ENDBRANCH   1  12
TORSDOF 5
ENDMDL
MODEL 3
REMARK VINA RESULT:      -6.7      1.434      2.315
REMARK  Name = 
REMARK  9 active torsions:
REMARK  status: ('A' for Active; 'I' for Inactive)
REMARK    1  A    between atoms: C_1  and  C_2
REMARK    2  A    between atoms: C_5  and  C_6
REMARK    3  A    between atoms: C_6  and  C_7
REMARK    4  A    between atoms: C_6  and  C_8
REMARK    5  A    between atoms: C_8  and  C_9
REMARK    6  A    between atoms: C_9  and  N_10
REMARK    7  A    between atoms: N_14  and  C_15
REMARK    8  A    between atoms: C_15  and  C_16
REMARK    9  A    between atoms: C_15  and  C_17
REMARK                            x       y       z     vdW  Elec       q    Type
REMARK                         _______ _______ _______ _____ _____    ______ ____
ROOT
ATOM      1  C   UNL     1       4.329   6.253  17.031  0.00  0.00    +0.000 C 
ENDROOT
BRANCH   1   2
ATOM      2  N   UNL     1       3.121   5.909  17.843  0.00  0.00    +0.000 NA
ATOM      3  C   UNL     1       3.432   6.036  19.276  0.00  0.00    +0.000 C 
ATOM      4  C   UNL     1       2.287   5.980  20.291  0.00  0.00    +0.000 C 
ATOM      5  C   UNL     1       1.244   4.867  20.231  0.00  0.00    +0.000 C 
ATOM      6  N   UNL     1       1.580   3.610  19.564  0.00  0.00    +0.000 NA
ATOM      7  C   UNL     1       1.552   3.836  18.110  0.00  0.00    +0.000 C 
ATOM      8  C   UNL     1       2.777   4.511  17.463  0.00  0.00    +0.000 C 
BRANCH   6   9
ATOM      9  C   UNL     1       2.762   2.892  20.081  0.00  0.00    +0.000 C 
ATOM     10  C   UNL     1       2.589   2.457  21.544  0.00  0.00    +0.000 C 
ATOM     11  C   UNL     1       3.115   1.643  19.258  0.00  0.00    +0.000 C 
ENDBRANCH   6   9
ENDBRANCH   1   2
BRANCH   1  12
ATOM     12  C   UNL     1       5.678   6.142  17.763  0.00  0.00    +0.000 C 
BRANCH  12  13
ATOM     13  C   UNL     1       6.453   4.839  17.477  0.00  0.00    +0.000 C 
ATOM     14  C   UNL     1       7.838   4.822  18.125  0.00  0.00    +0.000 C 
BRANCH  13  19
ATOM     15  C   UNL     1       8.071   5.561  12.970  0.00  0.00    +0.000 C 
ATOM     16  C   UNL     1       7.216   4.883  13.962  0.00  0.00    +0.000 A 
ATOM     17  C   UNL     1       6.245   3.911  13.878  0.00  0.00    +0.000 A 
ATOM     18  C   UNL     1       5.783   3.692  15.196  0.00  0.00    +0.000 A 
ATOM     19  C   UNL     1       6.502   4.548  16.009  0.00  0.00    +0.000 A 
ATOM     20  O   UNL     1       7.374   5.277  15.255  0.00  0.00    +0.000 OA
ENDBRANCH  13  19
ENDBRANCH  12  13
ENDBRANCH   1  12
TORSDOF 5
ENDMDL
MODEL 4
REMARK VINA RESULT:      -6.6      1.371      2.018
REMARK  Name = 
REMARK  9 active torsions:
REMARK  status: ('A' for Active; 'I' for Inactive)
REMARK    1  A    between atoms: C_1  and  C_2
REMARK    2  A    between atoms: C_5  and  C_6
REMARK    3  A    between atoms: C_6  and  C_7
REMARK    4  A    between atoms: C_6  and  C_8
REMARK    5  A    between atoms: C_8  and  C_9
REMARK    6  A    between atoms: C_9  and  N_10
REMARK    7  A    between atoms: N_14  and  C_15
REMARK    8  A    between atoms: C_15  and  C_16
REMARK    9  A    between atoms: C_15  and  C_17
REMARK                            x       y       z     vdW  Elec       q    Type
REMARK                         _______ _______ _______ _____ _____    ______ ____
ROOT
ATOM      1  C   UNL     1       4.508   5.754  17.069  0.00  0.00    +0.000 C 
ENDROOT
BRANCH   1   2
ATOM      2  N   UNL     1       4.251   4.350  17.520  0.00  0.00    +0.000 NA
ATOM      3  C   UNL     1       2.839   4.004  17.288  0.00  0.00    +0.000 C 
ATOM      4  C   UNL     1       2.399   2.545  17.435  0.00  0.00    +0.000 C 
ATOM      5  C   UNL     1       2.787   1.734  18.669  0.00  0.00    +0.000 C 
ATOM      6  N   UNL     1       3.128   2.436  19.906  0.00  0.00    +0.000 NA
ATOM      7  C   UNL     1       4.473   3.013  19.754  0.00  0.00    +0.000 C 
ATOM      8  C   UNL     1       4.606   4.331  18.965  0.00  0.00    +0.000 C 
BRANCH   6   9
ATOM      9  C   UNL     1       2.095   3.341  20.448  0.00  0.00    +0.000 C 
ATOM     10  C   UNL     1       0.672   2.886  20.094  0.00  0.00    +0.000 C 
ATOM     11  C   UNL     1       2.173   3.495  21.976  0.00  0.00    +0.000 C 
ENDBRANCH   6   9
ENDBRANCH   1   2
BRANCH   1  12
ATOM     12  C   UNL     1       5.470   5.905  15.878  0.00  0.00    +0.000 C 
BRANCH  12  13
ATOM     13  C   UNL     1       6.373   4.680  15.629  0.00  0.00    +0.000 C 
ATOM     14  C   UNL     1       7.700   4.761  16.384  0.00  0.00    +0.000 C 
BRANCH  13  19
ATOM     15  C   UNL     1       5.417   2.400  11.464  0.00  0.00    +0.000 C 
ATOM     16  C   UNL     1       6.146   3.390  12.278  0.00  0.00    +0.000 A 
ATOM     17  C   UNL     1       7.166   4.275  12.014  0.00  0.00    +0.000 A 
ATOM     18  C   UNL     1       7.435   4.950  13.228  0.00  0.00    +0.000 A 
ATOM     19  C   UNL     1       6.560   4.433  14.164  0.00  0.00    +0.000 A 
ATOM     20  O   UNL     1       5.776   3.479  13.585  0.00  0.00    +0.000 OA
ENDBRANCH  13  19
ENDBRANCH  12  13
ENDBRANCH   1  12
TORSDOF 5
ENDMDL
MODEL 5
REMARK VINA RESULT:      -6.6      1.607      3.212
REMARK  Name = 
REMARK  9 active torsions:
REMARK  status: ('A' for Active; 'I' for Inactive)
REMARK    1  A    between atoms: C_1  and  C_2
REMARK    2  A    between atoms: C_5  and  C_6
REMARK    3  A    between atoms: C_6  and  C_7
REMARK    4  A    between atoms: C_6  and  C_8
REMARK    5  A    between atoms: C_8  and  C_9
REMARK    6  A    between atoms: C_9  and  N_10
REMARK    7  A    between atoms: N_14  and  C_15
REMARK    8  A    between atoms: C_15  and  C_16
REMARK    9  A    between atoms: C_15  and  C_17
REMARK                            x       y       z     vdW  Elec       q    Type
REMARK                         _______ _______ _______ _____ _____    ______ ____
ROOT
ATOM      1  C   UNL     1       4.015   4.820  16.378  0.00  0.00    +0.000 C 
ENDROOT
BRANCH   1   2
ATOM      2  N   UNL     1       3.078   3.795  16.935  0.00  0.00    +0.000 NA
ATOM      3  C   UNL     1       2.148   4.433  17.881  0.00  0.00    +0.000 C 
ATOM      4  C   UNL     1       0.942   3.637  18.385  0.00  0.00    +0.000 C 
ATOM      5  C   UNL     1       1.111   2.219  18.923  0.00  0.00    +0.000 C 
ATOM      6  N   UNL     1       2.419   1.798  19.424  0.00  0.00    +0.000 NA
ATOM      7  C   UNL     1       3.301   1.560  18.270  0.00  0.00    +0.000 C 
ATOM      8  C   UNL     1       3.949   2.785  17.595  0.00  0.00    +0.000 C 
BRANCH   6   9
ATOM      9  C   UNL     1       2.992   2.610  20.516  0.00  0.00    +0.000 C 
ATOM     10  C   UNL     1       2.067   2.683  21.740  0.00  0.00    +0.000 C 
ATOM     11  C   UNL     1       4.362   2.097  20.992  0.00  0.00    +0.000 C 
ENDBRANCH   6   9
ENDBRANCH   1   2
BRANCH   1  12
ATOM     12  C   UNL     1       5.390   4.294  15.932  0.00  0.00    +0.000 C 
BRANCH  12  13
ATOM     13  C   UNL     1       6.401   5.395  15.550  0.00  0.00    +0.000 C 
ATOM     14  C   UNL     1       7.444   4.914  14.540  0.00  0.00    +0.000 C 
BRANCH  13  19
ATOM     15  C   UNL     1       8.282   9.089  18.054  0.00  0.00    +0.000 C 
ATOM     16  C   UNL     1       7.891   7.676  17.899  0.00  0.00    +0.000 A 
ATOM     17  C   UNL     1       8.003   6.562  18.701  0.00  0.00    +0.000 A 
ATOM     18  C   UNL     1       7.441   5.488  17.974  0.00  0.00    +0.000 A 
ATOM     19  C   UNL     1       7.019   6.011  16.766  0.00  0.00    +0.000 A 
ATOM     20  O   UNL     1       7.296   7.345  16.720  0.00  0.00    +0.000 OA
ENDBRANCH  13  19
ENDBRANCH  12  13
ENDBRANCH   1  12
TORSDOF 5
ENDMDL
MODEL 6
REMARK VINA RESULT:      -6.6      0.914      1.181
REMARK  Name = 
REMARK  9 active torsions:
REMARK  status: ('A' for Active; 'I' for Inactive)
REMARK    1  A    between atoms: C_1  and  C_2
REMARK    2  A    between atoms: C_5  and  C_6
REMARK    3  A    between atoms: C_6  and  C_7
REMARK    4  A    between atoms: C_6  and  C_8
REMARK    5  A    between atoms: C_8  and  C_9
REMARK    6  A    between atoms: C_9  and  N_10
REMARK    7  A    between atoms: N_14  and  C_15
REMARK    8  A    between atoms: C_15  and  C_16
REMARK    9  A    between atoms: C_15  and  C_17
REMARK                            x       y       z     vdW  Elec       q    Type
REMARK                         _______ _______ _______ _____ _____    ______ ____
ROOT
ATOM      1  C   UNL     1       6.041   5.386  19.253  0.00  0.00    +0.000 C 
ENDROOT
BRANCH   1   2
ATOM      2  N   UNL     1       5.100   4.358  18.710  0.00  0.00    +0.000 NA
ATOM      3  C   UNL     1       3.819   4.992  18.359  0.00  0.00    +0.000 C 
ATOM      4  C   UNL     1       2.793   4.192  17.553  0.00  0.00    +0.000 C 
ATOM      5  C   UNL     1       2.408   2.774  17.968  0.00  0.00    +0.000 C 
ATOM      6  N   UNL     1       2.610   2.358  19.355  0.00  0.00    +0.000 NA
ATOM      7  C   UNL     1       4.048   2.123  19.563  0.00  0.00    +0.000 C 
ATOM      8  C   UNL     1       4.951   3.350  19.796  0.00  0.00    +0.000 C 
BRANCH   6   9
ATOM      9  C   UNL     1       1.935   3.171  20.386  0.00  0.00    +0.000 C 
ATOM     10  C   UNL     1       0.477   3.486  20.022  0.00  0.00    +0.000 C 
ATOM     11  C   UNL     1       1.940   2.508  21.774  0.00  0.00    +0.000 C 
ENDBRANCH   6   9
ENDBRANCH   1   2
BRANCH   1  12
ATOM     12  C   UNL     1       7.471   5.346  18.687  0.00  0.00    +0.000 C 
BRANCH  12  13
ATOM     13  C   UNL     1       7.701   6.268  17.471  0.00  0.00    +0.000 C 
ATOM     14  C   UNL     1       7.646   7.752  17.836  0.00  0.00    +0.000 C 
BRANCH  13  19
ATOM     15  C   UNL     1       6.408   3.708  13.568  0.00  0.00    +0.000 C 
ATOM     16  C   UNL     1       6.198   4.776  14.563  0.00  0.00    +0.000 A 
ATOM     17  C   UNL     1       5.231   5.740  14.737  0.00  0.00    +0.000 A 
ATOM     18  C   UNL     1       5.603   6.478  15.884  0.00  0.00    +0.000 A 
ATOM     19  C   UNL     1       6.780   5.919  16.344  0.00  0.00    +0.000 A 
ATOM     20  O   UNL     1       7.145   4.883  15.536  0.00  0.00    +0.000 OA
ENDBRANCH  13  19
ENDBRANCH  12  13
ENDBRANCH   1  12
TORSDOF 5
ENDMDL
MODEL 7
REMARK VINA RESULT:      -6.6      1.175      2.101
REMARK  Name = 
REMARK  9 active torsions:
REMARK  status: ('A' for Active; 'I' for Inactive)
REMARK    1  A    between atoms: C_1  and  C_2
REMARK    2  A    between atoms: C_5  and  C_6
REMARK    3  A    between atoms: C_6  and  C_7
REMARK    4  A    between atoms: C_6  and  C_8
REMARK    5  A    between atoms: C_8  and  C_9
REMARK    6  A    between atoms: C_9  and  N_10
REMARK    7  A    between atoms: N_14  and  C_15
REMARK    8  A    between atoms: C_15  and  C_16
REMARK    9  A    between atoms: C_15  and  C_17
REMARK                            x       y       z     vdW  Elec       q    Type
REMARK                         _______ _______ _______ _____ _____    ______ ____
ROOT
ATOM      1  C   UNL     1       5.944   5.357  19.201  0.00  0.00    +0.000 C 
ENDROOT
BRANCH   1   2
ATOM      2  N   UNL     1       4.837   4.786  20.030  0.00  0.00    +0.000 NA
ATOM      3  C   UNL     1       4.749   3.333  19.810  0.00  0.00    +0.000 C 
ATOM      4  C   UNL     1       3.862   2.496  20.735  0.00  0.00    +0.000 C 
ATOM      5  C   UNL     1       2.426   2.919  21.031  0.00  0.00    +0.000 C 
ATOM      6  N   UNL     1       1.733   3.799  20.091  0.00  0.00    +0.000 NA
ATOM      7  C   UNL     1       2.261   5.163  20.258  0.00  0.00    +0.000 C 
ATOM      8  C   UNL     1       3.608   5.499  19.588  0.00  0.00    +0.000 C 
BRANCH   6   9
ATOM      9  C   UNL     1       1.627   3.315  18.700  0.00  0.00    +0.000 C 
ATOM     10  C   UNL     1       0.563   2.220  18.540  0.00  0.00    +0.000 C 
ATOM     11  C   UNL     1       1.304   4.435  17.697  0.00  0.00    +0.000 C 
ENDBRANCH   6   9
ENDBRANCH   1   2
BRANCH   1  12
ATOM     12  C   UNL     1       6.438   4.468  18.047  0.00  0.00    +0.000 C 
BRANCH  12  13
ATOM     13  C   UNL     1       7.316   5.199  17.010  0.00  0.00    +0.000 C 
ATOM     14  C   UNL     1       7.279   6.720  17.171  0.00  0.00    +0.000 C 
BRANCH  13  19
ATOM     15  C   UNL     1       7.791   5.367  12.193  0.00  0.00    +0.000 C 
ATOM     16  C   UNL     1       7.184   4.847  13.432  0.00  0.00    +0.000 A 
ATOM     17  C   UNL     1       6.185   3.937  13.695  0.00  0.00    +0.000 A 
ATOM     18  C   UNL     1       6.057   3.879  15.102  0.00  0.00    +0.000 A 
ATOM     19  C   UNL     1       6.988   4.762  15.616  0.00  0.00    +0.000 A 
ATOM     20  O   UNL     1       7.673   5.355  14.597  0.00  0.00    +0.000 OA
ENDBRANCH  13  19
ENDBRANCH  12  13
ENDBRANCH   1  12
TORSDOF 5
ENDMDL
MODEL 8
REMARK VINA RESULT:      -6.5      1.487      2.479
REMARK  Name = 
REMARK  9 active torsions:
REMARK  status: ('A' for Active; 'I' for Inactive)
REMARK    1  A    between atoms: C_1  and  C_2
REMARK    2  A    between atoms: C_5  and  C_6
REMARK    3  A    between atoms: C_6  and  C_7
REMARK    4  A    between atoms: C_6  and  C_8
REMARK    5  A    between atoms: C_8  and  C_9
REMARK    6  A    between atoms: C_9  and  N_10
REMARK    7  A    between atoms: N_14  and  C_15
REMARK    8  A    between atoms: C_15  and  C_16
REMARK    9  A    between atoms: C_15  and  C_17
REMARK                            x       y       z     vdW  Elec       q    Type
REMARK                         _______ _______ _______ _____ _____    ______ ____
ROOT
ATOM      1  C   UNL     1       6.458   4.517  18.103  0.00  0.00    +0.000 C 
ENDROOT
BRANCH   1   2
ATOM      2  N   UNL     1       5.451   4.239  19.174  0.00  0.00    +0.000 NA
ATOM      3  C   UNL     1       5.018   2.834  19.097  0.00  0.00    +0.000 C 
ATOM      4  C   UNL     1       4.185   2.251  20.241  0.00  0.00    +0.000 C 
ATOM      5  C   UNL     1       2.961   2.993  20.772  0.00  0.00    +0.000 C 
ATOM      6  N   UNL     1       2.289   3.966  19.912  0.00  0.00    +0.000 NA
ATOM      7  C   UNL     1       3.114   5.184  19.860  0.00  0.00    +0.000 C 
ATOM      8  C   UNL     1       4.334   5.188  18.918  0.00  0.00    +0.000 C 
BRANCH   6   9
ATOM      9  C   UNL     1       1.802   3.463  18.612  0.00  0.00    +0.000 C 
ATOM     10  C   UNL     1       0.662   2.446  18.769  0.00  0.00    +0.000 C 
ATOM     11  C   UNL     1       1.308   4.582  17.681  0.00  0.00    +0.000 C 
ENDBRANCH   6   9
ENDBRANCH   1   2
BRANCH   1  12
ATOM     12  C   UNL     1       5.996   4.233  16.663  0.00  0.00    +0.000 C 
BRANCH  12  13
ATOM     13  C   UNL     1       6.268   5.380  15.668  0.00  0.00    +0.000 C 
ATOM     14  C   UNL     1       5.174   6.448  15.684  0.00  0.00    +0.000 C 
BRANCH  13  19
ATOM     15  C   UNL     1       5.294   2.586  11.834  0.00  0.00    +0.000 C 
ATOM     16  C   UNL     1       6.112   3.575  12.560  0.00  0.00    +0.000 A 
ATOM     17  C   UNL     1       7.292   4.226  12.280  0.00  0.00    +0.000 A 
ATOM     18  C   UNL     1       7.568   5.051  13.395  0.00  0.00    +0.000 A 
ATOM     19  C   UNL     1       6.537   4.853  14.293  0.00  0.00    +0.000 A 
ATOM     20  O   UNL     1       5.651   3.950  13.785  0.00  0.00    +0.000 OA
ENDBRANCH  13  19
ENDBRANCH  12  13
ENDBRANCH   1  12
TORSDOF 5
ENDMDL
MODEL 9
REMARK VINA RESULT:      -6.5      2.514      4.029
REMARK  Name = 
REMARK  9 active torsions:
REMARK  status: ('A' for Active; 'I' for Inactive)
REMARK    1  A    between atoms: C_1  and  C_2
REMARK    2  A    between atoms: C_5  and  C_6
REMARK    3  A    between atoms: C_6  and  C_7
REMARK    4  A    between atoms: C_6  and  C_8
REMARK    5  A    between atoms: C_8  and  C_9
REMARK    6  A    between atoms: C_9  and  N_10
REMARK    7  A    between atoms: N_14  and  C_15
REMARK    8  A    between atoms: C_15  and  C_16
REMARK    9  A    between atoms: C_15  and  C_17
REMARK                            x       y       z     vdW  Elec       q    Type
REMARK                         _______ _______ _______ _____ _____    ______ ____
ROOT
ATOM      1  C   UNL     1       5.677   4.436  17.036  0.00  0.00    +0.000 C 
ENDROOT
BRANCH   1   2
ATOM      2  N   UNL     1       4.855   3.330  17.618  0.00  0.00    +0.000 NA
ATOM      3  C   UNL     1       3.459   3.456  17.166  0.00  0.00    +0.000 C 
ATOM      4  C   UNL     1       2.489   2.301  17.426  0.00  0.00    +0.000 C 
ATOM      5  C   UNL     1       2.379   1.671  18.811  0.00  0.00    +0.000 C 
ATOM      6  N   UNL     1       2.795   2.443  19.982  0.00  0.00    +0.000 NA
ATOM      7  C   UNL     1       4.266   2.475  20.016  0.00  0.00    +0.000 C 
ATOM      8  C   UNL     1       4.985   3.478  19.093  0.00  0.00    +0.000 C 
BRANCH   6   9
ATOM      9  C   UNL     1       2.117   3.740  20.182  0.00  0.00    +0.000 C 
ATOM     10  C   UNL     1       0.592   3.632  20.035  0.00  0.00    +0.000 C 
ATOM     11  C   UNL     1       2.414   4.367  21.554  0.00  0.00    +0.000 C 
ENDBRANCH   6   9
ENDBRANCH   1   2
BRANCH   1  12
ATOM     12  C   UNL     1       4.912   5.445  16.161  0.00  0.00    +0.000 C 
BRANCH  12  13
ATOM     13  C   UNL     1       4.983   6.903  16.659  0.00  0.00    +0.000 C 
ATOM     14  C   UNL     1       6.325   7.241  17.310  0.00  0.00    +0.000 C 
BRANCH  13  19
ATOM     15  C   UNL     1       1.153   9.567  17.960  0.00  0.00    +0.000 C 
ATOM     16  C   UNL     1       2.094   8.447  18.147  0.00  0.00    +0.000 A 
ATOM     17  C   UNL     1       2.241   7.476  19.112  0.00  0.00    +0.000 A 
ATOM     18  C   UNL     1       3.352   6.691  18.723  0.00  0.00    +0.000 A 
ATOM     19  C   UNL     1       3.818   7.233  17.541  0.00  0.00    +0.000 A 
ATOM     20  O   UNL     1       3.053   8.306  17.191  0.00  0.00    +0.000 OA
ENDBRANCH  13  19
ENDBRANCH  12  13
ENDBRANCH   1  12
TORSDOF 5
ENDMDL
