MODEL 1
REMARK VINA RESULT:      -7.9      0.000      0.000
REMARK  Name = 
REMARK  8 active torsions:
REMARK  status: ('A' for Active; 'I' for Inactive)
REMARK    1  A    between atoms: N_2  and  C_4
REMARK    2  A    between atoms: N_6  and  C_7
REMARK    3  A    between atoms: C_16  and  N_17
REMARK    4  A    between atoms: N_17  and  C1*_18
REMARK    5  A    between atoms: C4*_20  and  C5*_21
REMARK    6  A    between atoms: C5*_21  and  O5*_22
REMARK    7  A    between atoms: C3*_23  and  O3*_24
REMARK    8  A    between atoms: C2*_25  and  O2*_26
REMARK                            x       y       z     vdW  Elec       q    Type
REMARK                         _______ _______ _______ _____ _____    ______ ____
ROOT
ATOM      1  C   UNL     1       2.390   6.265  19.458  0.00  0.00    +0.000 A 
ATOM      2  C   UNL     1       2.010   7.560  19.803  0.00  0.00    +0.000 A 
ATOM      3  N   UNL     1       1.402   7.813  21.055  0.00  0.00    +0.000 N 
ATOM      4  N   UNL     1       2.243   8.562  18.936  0.00  0.00    +0.000 NA
ATOM      5  C   UNL     1       2.851   8.235  17.782  0.00  0.00    +0.000 A 
ATOM      6  N   UNL     1       3.305   7.016  17.434  0.00  0.00    +0.000 NA
ATOM      7  C   UNL     1       3.103   6.010  18.291  0.00  0.00    +0.000 A 
ATOM      8  H   UNL     1       1.925   7.421  21.834  0.00  0.00    +0.000 HD
ENDROOT
BRANCH   3   9
ATOM      9  C   UNL     1       0.491   8.801  21.484  0.00  0.00    +0.000 A 
ATOM     10  C   UNL     1       0.165   9.024  22.822  0.00  0.00    +0.000 A 
ATOM     11  C   UNL     1      -0.602  10.131  23.205  0.00  0.00    +0.000 A 
ATOM     12  C   UNL     1      -1.034  11.053  22.255  0.00  0.00    +0.000 A 
ATOM     13  C   UNL     1      -0.724  10.852  20.915  0.00  0.00    +0.000 A 
ATOM     14  C   UNL     1       0.030   9.736  20.536  0.00  0.00    +0.000 A 
ENDBRANCH   3   9
BRANCH   1  16
ATOM     15  O   UNL     1       1.078   4.421  19.758  0.00  0.00    +0.000 OA
ATOM     16  N   UNL     1       1.933   5.176  20.255  0.00  0.00    +0.000 N 
ATOM     17  O   UNL     1       2.418   5.056  21.386  0.00  0.00    +0.000 OA
ENDBRANCH   1  16
BRANCH   7  18
ATOM     18  N   UNL     1       3.575   4.755  17.985  0.00  0.00    +0.000 N 
ATOM     19  H   UNL     1       2.957   3.958  18.094  0.00  0.00    +0.000 HD
BRANCH  18  20
ATOM     20  C1* UNL     1       4.902   4.373  17.562  0.00  0.00    +0.000 C 
ATOM     21  O4* UNL     1       5.743   4.627  18.698  0.00  0.00    +0.000 OA
ATOM     22  C4* UNL     1       7.080   4.871  18.237  0.00  0.00    +0.000 C 
ATOM     23  C3* UNL     1       7.002   5.283  16.772  0.00  0.00    +0.000 C 
ATOM     24  C2* UNL     1       5.535   5.107  16.372  0.00  0.00    +0.000 C 
BRANCH  23  25
ATOM     25  O3* UNL     1       7.865   4.466  15.957  0.00  0.00    +0.000 OA
ATOM     26  H3* UNL     1       8.683   4.968  15.779  0.00  0.00    +0.000 HD
ENDBRANCH  23  25
BRANCH  24  27
ATOM     27  O2* UNL     1       5.453   4.342  15.157  0.00  0.00    +0.000 OA
ATOM     28  H2* UNL     1       6.326   4.428  14.725  0.00  0.00    +0.000 HD
ENDBRANCH  24  27
BRANCH  22  29
ATOM     29  C5* UNL     1       7.794   5.900  19.119  0.00  0.00    +0.000 C 
BRANCH  29  30
ATOM     30  O5* UNL     1       7.923   5.437  20.462  0.00  0.00    +0.000 OA
ATOM     31  H5* UNL     1       8.845   5.144  20.572  0.00  0.00    +0.000 HD
ENDBRANCH  29  30
ENDBRANCH  22  29
ENDBRANCH  18  20
ENDBRANCH   7  18
TORSDOF 8
ENDMDL
MODEL 2
REMARK VINA RESULT:      -7.8      3.746      7.923
REMARK  Name = 
REMARK  8 active torsions:
REMARK  status: ('A' for Active; 'I' for Inactive)
REMARK    1  A    between atoms: N_2  and  C_4
REMARK    2  A    between atoms: N_6  and  C_7
REMARK    3  A    between atoms: C_16  and  N_17
REMARK    4  A    between atoms: N_17  and  C1*_18
REMARK    5  A    between atoms: C4*_20  and  C5*_21
REMARK    6  A    between atoms: C5*_21  and  O5*_22
REMARK    7  A    between atoms: C3*_23  and  O3*_24
REMARK    8  A    between atoms: C2*_25  and  O2*_26
REMARK                            x       y       z     vdW  Elec       q    Type
REMARK                         _______ _______ _______ _____ _____    ______ ____
ROOT
ATOM      1  C   UNL     1       5.201   5.246  17.571  0.00  0.00    +0.000 A 
ATOM      2  C   UNL     1       6.181   5.099  16.592  0.00  0.00    +0.000 A 
ATOM      3  N   UNL     1       5.854   5.271  15.226  0.00  0.00    +0.000 N 
ATOM      4  N   UNL     1       7.440   4.805  16.966  0.00  0.00    +0.000 NA
ATOM      5  C   UNL     1       7.666   4.688  18.286  0.00  0.00    +0.000 A 
ATOM      6  N   UNL     1       6.775   4.893  19.273  0.00  0.00    +0.000 NA
ATOM      7  C   UNL     1       5.523   5.207  18.923  0.00  0.00    +0.000 A 
ATOM      8  H   UNL     1       5.358   6.140  15.046  0.00  0.00    +0.000 HD
ENDROOT
BRANCH   3   9
ATOM      9  C   UNL     1       6.402   4.730  14.044  0.00  0.00    +0.000 A 
ATOM     10  C   UNL     1       5.844   3.654  13.354  0.00  0.00    +0.000 A 
ATOM     11  C   UNL     1       6.324   3.275  12.095  0.00  0.00    +0.000 A 
ATOM     12  C   UNL     1       7.355   3.987  11.489  0.00  0.00    +0.000 A 
ATOM     13  C   UNL     1       7.929   5.063  12.156  0.00  0.00    +0.000 A 
ATOM     14  C   UNL     1       7.456   5.428  13.422  0.00  0.00    +0.000 A 
ENDBRANCH   3   9
BRANCH   1  16
ATOM     15  O   UNL     1       3.248   6.401  17.318  0.00  0.00    +0.000 OA
ATOM     16  N   UNL     1       3.834   5.313  17.175  0.00  0.00    +0.000 N 
ATOM     17  O   UNL     1       3.324   4.284  16.714  0.00  0.00    +0.000 OA
ENDBRANCH   1  16
BRANCH   7  18
ATOM     18  N   UNL     1       4.588   5.451  19.902  0.00  0.00    +0.000 N 
ATOM     19  H   UNL     1       4.617   6.335  20.398  0.00  0.00    +0.000 HD
BRANCH  18  20
ATOM     20  C1* UNL     1       3.551   4.573  20.393  0.00  0.00    +0.000 C 
ATOM     21  O4* UNL     1       3.923   3.264  19.934  0.00  0.00    +0.000 OA
ATOM     22  C4* UNL     1       2.738   2.462  19.820  0.00  0.00    +0.000 C 
ATOM     23  C3* UNL     1       1.544   3.404  19.713  0.00  0.00    +0.000 C 
ATOM     24  C2* UNL     1       2.107   4.811  19.933  0.00  0.00    +0.000 C 
BRANCH  23  25
ATOM     25  O3* UNL     1       0.543   3.084  20.699  0.00  0.00    +0.000 OA
ATOM     26  H3* UNL     1      -0.090   2.458  20.302  0.00  0.00    +0.000 HD
ENDBRANCH  23  25
BRANCH  24  27
ATOM     27  O2* UNL     1       1.326   5.494  20.927  0.00  0.00    +0.000 OA
ATOM     28  H2* UNL     1       1.689   5.220  21.792  0.00  0.00    +0.000 HD
ENDBRANCH  24  27
BRANCH  22  29
ATOM     29  C5* UNL     1       2.841   1.478  18.650  0.00  0.00    +0.000 C 
BRANCH  29  30
ATOM     30  O5* UNL     1       2.042   1.895  17.546  0.00  0.00    +0.000 OA
ATOM     31  H5* UNL     1       1.112   1.781  17.810  0.00  0.00    +0.000 HD
ENDBRANCH  29  30
ENDBRANCH  22  29
ENDBRANCH  18  20
ENDBRANCH   7  18
TORSDOF 8
ENDMDL
MODEL 3
REMARK VINA RESULT:      -7.7      3.777      7.922
REMARK  Name = 
REMARK  8 active torsions:
REMARK  status: ('A' for Active; 'I' for Inactive)
REMARK    1  A    between atoms: N_2  and  C_4
REMARK    2  A    between atoms: N_6  and  C_7
REMARK    3  A    between atoms: C_16  and  N_17
REMARK    4  A    between atoms: N_17  and  C1*_18
REMARK    5  A    between atoms: C4*_20  and  C5*_21
REMARK    6  A    between atoms: C5*_21  and  O5*_22
REMARK    7  A    between atoms: C3*_23  and  O3*_24
REMARK    8  A    between atoms: C2*_25  and  O2*_26
REMARK                            x       y       z     vdW  Elec       q    Type
REMARK                         _______ _______ _______ _____ _____    ______ ____
ROOT
ATOM      1  C   UNL     1       5.261   5.218  17.397  0.00  0.00    +0.000 A 
ATOM      2  C   UNL     1       6.131   5.045  16.323  0.00  0.00    +0.000 A 
ATOM      3  N   UNL     1       5.681   5.264  15.000  0.00  0.00    +0.000 N 
ATOM      4  N   UNL     1       7.404   4.681  16.565  0.00  0.00    +0.000 NA
ATOM      5  C   UNL     1       7.753   4.523  17.854  0.00  0.00    +0.000 A 
ATOM      6  N   UNL     1       6.974   4.750  18.928  0.00  0.00    +0.000 NA
ATOM      7  C   UNL     1       5.712   5.133  18.710  0.00  0.00    +0.000 A 
ATOM      8  H   UNL     1       5.215   6.161  14.886  0.00  0.00    +0.000 HD
ENDROOT
BRANCH   3   9
ATOM      9  C   UNL     1       6.082   4.724  13.760  0.00  0.00    +0.000 A 
ATOM     10  C   UNL     1       7.280   5.051  13.125  0.00  0.00    +0.000 A 
ATOM     11  C   UNL     1       7.711   4.353  11.990  0.00  0.00    +0.000 A 
ATOM     12  C   UNL     1       6.962   3.294  11.486  0.00  0.00    +0.000 A 
ATOM     13  C   UNL     1       5.763   2.949  12.100  0.00  0.00    +0.000 A 
ATOM     14  C   UNL     1       5.329   3.660  13.225  0.00  0.00    +0.000 A 
ENDBRANCH   3   9
BRANCH   1  16
ATOM     15  O   UNL     1       3.371   6.494  17.283  0.00  0.00    +0.000 OA
ATOM     16  N   UNL     1       3.867   5.362  17.140  0.00  0.00    +0.000 N 
ATOM     17  O   UNL     1       3.246   4.351  16.791  0.00  0.00    +0.000 OA
ENDBRANCH   1  16
BRANCH   7  18
ATOM     18  N   UNL     1       4.892   5.401  19.781  0.00  0.00    +0.000 N 
ATOM     19  H   UNL     1       5.004   6.279  20.277  0.00  0.00    +0.000 HD
BRANCH  18  20
ATOM     20  C1* UNL     1       3.878   4.557  20.369  0.00  0.00    +0.000 C 
ATOM     21  O4* UNL     1       4.120   3.250  19.826  0.00  0.00    +0.000 OA
ATOM     22  C4* UNL     1       2.889   2.512  19.836  0.00  0.00    +0.000 C 
ATOM     23  C3* UNL     1       1.743   3.514  19.908  0.00  0.00    +0.000 C 
ATOM     24  C2* UNL     1       2.403   4.882  20.100  0.00  0.00    +0.000 C 
BRANCH  23  25
ATOM     25  O3* UNL     1       0.854   3.207  21.001  0.00  0.00    +0.000 OA
ATOM     26  H3* UNL     1       1.018   2.286  21.279  0.00  0.00    +0.000 HD
ENDBRANCH  23  25
BRANCH  24  27
ATOM     27  O2* UNL     1       1.787   5.565  21.205  0.00  0.00    +0.000 OA
ATOM     28  H2* UNL     1       2.430   6.241  21.496  0.00  0.00    +0.000 HD
ENDBRANCH  24  27
BRANCH  22  29
ATOM     29  C5* UNL     1       2.795   1.569  18.632  0.00  0.00    +0.000 C 
BRANCH  29  30
ATOM     30  O5* UNL     1       3.973   1.626  17.831  0.00  0.00    +0.000 OA
ATOM     31  H5* UNL     1       4.568   2.273  18.250  0.00  0.00    +0.000 HD
ENDBRANCH  29  30
ENDBRANCH  22  29
ENDBRANCH  18  20
ENDBRANCH   7  18
TORSDOF 8
ENDMDL
MODEL 4
REMARK VINA RESULT:      -7.4      2.490      3.774
REMARK  Name = 
REMARK  8 active torsions:
REMARK  status: ('A' for Active; 'I' for Inactive)
REMARK    1  A    between atoms: N_2  and  C_4
REMARK    2  A    between atoms: N_6  and  C_7
REMARK    3  A    between atoms: C_16  and  N_17
REMARK    4  A    between atoms: N_17  and  C1*_18
REMARK    5  A    between atoms: C4*_20  and  C5*_21
REMARK    6  A    between atoms: C5*_21  and  O5*_22
REMARK    7  A    between atoms: C3*_23  and  O3*_24
REMARK    8  A    between atoms: C2*_25  and  O2*_26
REMARK                            x       y       z     vdW  Elec       q    Type
REMARK                         _______ _______ _______ _____ _____    ______ ____
ROOT
ATOM      1  C   UNL     1       1.979   7.718  19.685  0.00  0.00    +0.000 A 
ATOM      2  C   UNL     1       1.463   8.933  19.241  0.00  0.00    +0.000 A 
ATOM      3  N   UNL     1       0.593   9.682  20.068  0.00  0.00    +0.000 N 
ATOM      4  N   UNL     1       1.816   9.387  18.024  0.00  0.00    +0.000 NA
ATOM      5  C   UNL     1       2.669   8.625  17.318  0.00  0.00    +0.000 A 
ATOM      6  N   UNL     1       3.253   7.484  17.730  0.00  0.00    +0.000 NA
ATOM      7  C   UNL     1       2.932   7.026  18.945  0.00  0.00    +0.000 A 
ATOM      8  H   UNL     1       0.963   9.821  21.005  0.00  0.00    +0.000 HD
ENDROOT
BRANCH   3   9
ATOM      9  C   UNL     1      -0.440  10.596  19.775  0.00  0.00    +0.000 A 
ATOM     10  C   UNL     1      -1.331  10.443  18.712  0.00  0.00    +0.000 A 
ATOM     11  C   UNL     1      -2.445  11.279  18.576  0.00  0.00    +0.000 A 
ATOM     12  C   UNL     1      -2.704  12.270  19.519  0.00  0.00    +0.000 A 
ATOM     13  C   UNL     1      -1.831  12.444  20.587  0.00  0.00    +0.000 A 
ATOM     14  C   UNL     1      -0.710  11.615  20.711  0.00  0.00    +0.000 A 
ENDBRANCH   3   9
BRANCH   1  16
ATOM     15  O   UNL     1       1.078   5.928  20.779  0.00  0.00    +0.000 OA
ATOM     16  N   UNL     1       1.426   7.119  20.854  0.00  0.00    +0.000 N 
ATOM     17  O   UNL     1       1.332   7.827  21.864  0.00  0.00    +0.000 OA
ENDBRANCH   1  16
BRANCH   7  18
ATOM     18  N   UNL     1       3.527   5.879  19.414  0.00  0.00    +0.000 N 
ATOM     19  H   UNL     1       4.014   5.907  20.304  0.00  0.00    +0.000 HD
BRANCH  18  20
ATOM     20  C1* UNL     1       3.615   4.586  18.775  0.00  0.00    +0.000 C 
ATOM     21  O4* UNL     1       2.262   4.247  18.432  0.00  0.00    +0.000 OA
ATOM     22  C4* UNL     1       2.147   2.818  18.371  0.00  0.00    +0.000 C 
ATOM     23  C3* UNL     1       3.295   2.221  19.175  0.00  0.00    +0.000 C 
ATOM     24  C2* UNL     1       4.178   3.406  19.577  0.00  0.00    +0.000 C 
BRANCH  23  25
ATOM     25  O3* UNL     1       4.034   1.264  18.391  0.00  0.00    +0.000 OA
ATOM     26  H3* UNL     1       3.666   1.258  17.488  0.00  0.00    +0.000 HD
ENDBRANCH  23  25
BRANCH  24  27
ATOM     27  O2* UNL     1       5.547   3.124  19.242  0.00  0.00    +0.000 OA
ATOM     28  H2* UNL     1       6.082   3.460  19.988  0.00  0.00    +0.000 HD
ENDBRANCH  24  27
BRANCH  22  29
ATOM     29  C5* UNL     1       0.767   2.350  18.844  0.00  0.00    +0.000 C 
BRANCH  29  30
ATOM     30  O5* UNL     1       0.356   3.039  20.021  0.00  0.00    +0.000 OA
ATOM     31  H5* UNL     1      -0.260   2.451  20.493  0.00  0.00    +0.000 HD
ENDBRANCH  29  30
ENDBRANCH  22  29
ENDBRANCH  18  20
ENDBRANCH   7  18
TORSDOF 8
ENDMDL
MODEL 5
REMARK VINA RESULT:      -7.4      0.455      1.174
REMARK  Name = 
REMARK  8 active torsions:
REMARK  status: ('A' for Active; 'I' for Inactive)
REMARK    1  A    between atoms: N_2  and  C_4
REMARK    2  A    between atoms: N_6  and  C_7
REMARK    3  A    between atoms: C_16  and  N_17
REMARK    4  A    between atoms: N_17  and  C1*_18
REMARK    5  A    between atoms: C4*_20  and  C5*_21
REMARK    6  A    between atoms: C5*_21  and  O5*_22
REMARK    7  A    between atoms: C3*_23  and  O3*_24
REMARK    8  A    between atoms: C2*_25  and  O2*_26
REMARK                            x       y       z     vdW  Elec       q    Type
REMARK                         _______ _______ _______ _____ _____    ______ ____
ROOT
ATOM      1  C   UNL     1       2.343   6.508  19.478  0.00  0.00    +0.000 A 
ATOM      2  C   UNL     1       2.077   7.832  19.821  0.00  0.00    +0.000 A 
ATOM      3  N   UNL     1       1.642   8.154  21.128  0.00  0.00    +0.000 N 
ATOM      4  N   UNL     1       2.254   8.795  18.898  0.00  0.00    +0.000 NA
ATOM      5  C   UNL     1       2.697   8.401  17.691  0.00  0.00    +0.000 A 
ATOM      6  N   UNL     1       3.040   7.149  17.333  0.00  0.00    +0.000 NA
ATOM      7  C   UNL     1       2.891   6.181  18.242  0.00  0.00    +0.000 A 
ATOM      8  H   UNL     1       2.236   7.755  21.851  0.00  0.00    +0.000 HD
ENDROOT
BRANCH   3   9
ATOM      9  C   UNL     1       0.845   9.205  21.630  0.00  0.00    +0.000 A 
ATOM     10  C   UNL     1       0.601  10.390  20.937  0.00  0.00    +0.000 A 
ATOM     11  C   UNL     1      -0.339  11.319  21.400  0.00  0.00    +0.000 A 
ATOM     12  C   UNL     1      -1.074  11.063  22.554  0.00  0.00    +0.000 A 
ATOM     13  C   UNL     1      -0.848   9.890  23.264  0.00  0.00    +0.000 A 
ATOM     14  C   UNL     1       0.103   8.972  22.805  0.00  0.00    +0.000 A 
ENDBRANCH   3   9
BRANCH   1  16
ATOM     15  O   UNL     1       2.586   5.309  21.406  0.00  0.00    +0.000 OA
ATOM     16  N   UNL     1       1.930   5.470  20.362  0.00  0.00    +0.000 N 
ATOM     17  O   UNL     1       0.944   4.799  20.029  0.00  0.00    +0.000 OA
ENDBRANCH   1  16
BRANCH   7  18
ATOM     18  N   UNL     1       3.255   4.893  17.925  0.00  0.00    +0.000 N 
ATOM     19  H   UNL     1       2.533   4.185  17.843  0.00  0.00    +0.000 HD
BRANCH  18  20
ATOM     20  C1* UNL     1       4.582   4.355  17.734  0.00  0.00    +0.000 C 
ATOM     21  O4* UNL     1       5.301   4.704  18.928  0.00  0.00    +0.000 OA
ATOM     22  C4* UNL     1       6.700   4.778  18.619  0.00  0.00    +0.000 C 
ATOM     23  C3* UNL     1       6.837   4.982  17.115  0.00  0.00    +0.000 C 
ATOM     24  C2* UNL     1       5.418   4.861  16.551  0.00  0.00    +0.000 C 
BRANCH  23  25
ATOM     25  O3* UNL     1       7.712   3.994  16.536  0.00  0.00    +0.000 OA
ATOM     26  H3* UNL     1       8.335   4.449  15.939  0.00  0.00    +0.000 HD
ENDBRANCH  23  25
BRANCH  24  27
ATOM     27  O2* UNL     1       5.412   3.939  15.449  0.00  0.00    +0.000 OA
ATOM     28  H2* UNL     1       4.913   4.378  14.732  0.00  0.00    +0.000 HD
ENDBRANCH  24  27
BRANCH  22  29
ATOM     29  C5* UNL     1       7.396   5.865  19.443  0.00  0.00    +0.000 C 
BRANCH  29  30
ATOM     30  O5* UNL     1       8.066   5.315  20.575  0.00  0.00    +0.000 OA
ATOM     31  H5* UNL     1       8.481   4.484  20.280  0.00  0.00    +0.000 HD
ENDBRANCH  29  30
ENDBRANCH  22  29
ENDBRANCH  18  20
ENDBRANCH   7  18
TORSDOF 8
ENDMDL
MODEL 6
REMARK VINA RESULT:      -7.3      1.335      2.235
REMARK  Name = 
REMARK  8 active torsions:
REMARK  status: ('A' for Active; 'I' for Inactive)
REMARK    1  A    between atoms: N_2  and  C_4
REMARK    2  A    between atoms: N_6  and  C_7
REMARK    3  A    between atoms: C_16  and  N_17
REMARK    4  A    between atoms: N_17  and  C1*_18
REMARK    5  A    between atoms: C4*_20  and  C5*_21
REMARK    6  A    between atoms: C5*_21  and  O5*_22
REMARK    7  A    between atoms: C3*_23  and  O3*_24
REMARK    8  A    between atoms: C2*_25  and  O2*_26
REMARK                            x       y       z     vdW  Elec       q    Type
REMARK                         _______ _______ _______ _____ _____    ______ ____
ROOT
ATOM      1  C   UNL     1       2.334   7.330  19.287  0.00  0.00    +0.000 A 
ATOM      2  C   UNL     1       1.750   8.532  19.682  0.00  0.00    +0.000 A 
ATOM      3  N   UNL     1       1.277   8.691  21.005  0.00  0.00    +0.000 N 
ATOM      4  N   UNL     1       1.656   9.536  18.791  0.00  0.00    +0.000 NA
ATOM      5  C   UNL     1       2.157   9.306  17.565  0.00  0.00    +0.000 A 
ATOM      6  N   UNL     1       2.797   8.194  17.157  0.00  0.00    +0.000 NA
ATOM      7  C   UNL     1       2.920   7.192  18.033  0.00  0.00    +0.000 A 
ATOM      8  H   UNL     1       1.968   8.434  21.705  0.00  0.00    +0.000 HD
ENDROOT
BRANCH   3   9
ATOM      9  C   UNL     1       0.251   9.488  21.556  0.00  0.00    +0.000 A 
ATOM     10  C   UNL     1      -0.171   9.398  22.883  0.00  0.00    +0.000 A 
ATOM     11  C   UNL     1      -1.063  10.332  23.424  0.00  0.00    +0.000 A 
ATOM     12  C   UNL     1      -1.528  11.393  22.651  0.00  0.00    +0.000 A 
ATOM     13  C   UNL     1      -1.123  11.504  21.326  0.00  0.00    +0.000 A 
ATOM     14  C   UNL     1      -0.243  10.559  20.786  0.00  0.00    +0.000 A 
ENDBRANCH   3   9
BRANCH   1  16
ATOM     15  O   UNL     1       3.255   5.553  20.386  0.00  0.00    +0.000 OA
ATOM     16  N   UNL     1       2.218   6.193  20.138  0.00  0.00    +0.000 N 
ATOM     17  O   UNL     1       1.091   5.922  20.574  0.00  0.00    +0.000 OA
ENDBRANCH   1  16
BRANCH   7  18
ATOM     18  N   UNL     1       3.590   6.050  17.664  0.00  0.00    +0.000 N 
ATOM     19  H   UNL     1       3.055   5.239  17.372  0.00  0.00    +0.000 HD
BRANCH  18  20
ATOM     20  C1* UNL     1       5.013   5.797  17.683  0.00  0.00    +0.000 C 
ATOM     21  O4* UNL     1       5.466   6.118  16.359  0.00  0.00    +0.000 OA
ATOM     22  C4* UNL     1       6.655   5.363  16.083  0.00  0.00    +0.000 C 
ATOM     23  C3* UNL     1       6.683   4.171  17.032  0.00  0.00    +0.000 C 
ATOM     24  C2* UNL     1       5.504   4.376  17.987  0.00  0.00    +0.000 C 
BRANCH  23  25
ATOM     25  O3* UNL     1       7.930   4.111  17.751  0.00  0.00    +0.000 OA
ATOM     26  H3* UNL     1       8.395   3.293  17.491  0.00  0.00    +0.000 HD
ENDBRANCH  23  25
BRANCH  24  27
ATOM     27  O2* UNL     1       5.951   4.234  19.345  0.00  0.00    +0.000 OA
ATOM     28  H2* UNL     1       5.187   3.889  19.847  0.00  0.00    +0.000 HD
ENDBRANCH  24  27
BRANCH  22  29
ATOM     29  C5* UNL     1       6.732   4.964  14.606  0.00  0.00    +0.000 C 
BRANCH  29  30
ATOM     30  O5* UNL     1       7.889   5.510  13.977  0.00  0.00    +0.000 OA
ATOM     31  H5* UNL     1       7.687   6.441  13.773  0.00  0.00    +0.000 HD
ENDBRANCH  29  30
ENDBRANCH  22  29
ENDBRANCH  18  20
ENDBRANCH   7  18
TORSDOF 8
ENDMDL
MODEL 7
REMARK VINA RESULT:      -7.3      4.261      8.431
REMARK  Name = 
REMARK  8 active torsions:
REMARK  status: ('A' for Active; 'I' for Inactive)
REMARK    1  A    between atoms: N_2  and  C_4
REMARK    2  A    between atoms: N_6  and  C_7
REMARK    3  A    between atoms: C_16  and  N_17
REMARK    4  A    between atoms: N_17  and  C1*_18
REMARK    5  A    between atoms: C4*_20  and  C5*_21
REMARK    6  A    between atoms: C5*_21  and  O5*_22
REMARK    7  A    between atoms: C3*_23  and  O3*_24
REMARK    8  A    between atoms: C2*_25  and  O2*_26
REMARK                            x       y       z     vdW  Elec       q    Type
REMARK                         _______ _______ _______ _____ _____    ______ ____
ROOT
ATOM      1  C   UNL     1       1.258   9.478  19.562  0.00  0.00    +0.000 A 
ATOM      2  C   UNL     1       1.619   8.268  20.152  0.00  0.00    +0.000 A 
ATOM      3  N   UNL     1       2.098   7.203  19.354  0.00  0.00    +0.000 N 
ATOM      4  N   UNL     1       1.517   8.136  21.487  0.00  0.00    +0.000 NA
ATOM      5  C   UNL     1       1.079   9.209  22.169  0.00  0.00    +0.000 A 
ATOM      6  N   UNL     1       0.791  10.420  21.658  0.00  0.00    +0.000 NA
ATOM      7  C   UNL     1       0.906  10.579  20.336  0.00  0.00    +0.000 A 
ATOM      8  H   UNL     1       2.850   7.485  18.730  0.00  0.00    +0.000 HD
ENDROOT
BRANCH   3   9
ATOM      9  C   UNL     1       2.054   5.802  19.516  0.00  0.00    +0.000 A 
ATOM     10  C   UNL     1       1.831   5.172  20.740  0.00  0.00    +0.000 A 
ATOM     11  C   UNL     1       1.618   3.790  20.814  0.00  0.00    +0.000 A 
ATOM     12  C   UNL     1       1.596   3.016  19.657  0.00  0.00    +0.000 A 
ATOM     13  C   UNL     1       1.817   3.621  18.425  0.00  0.00    +0.000 A 
ATOM     14  C   UNL     1       2.045   5.000  18.358  0.00  0.00    +0.000 A 
ENDBRANCH   3   9
BRANCH   1  16
ATOM     15  O   UNL     1      -0.012   9.677  17.676  0.00  0.00    +0.000 OA
ATOM     16  N   UNL     1       1.132   9.545  18.145  0.00  0.00    +0.000 N 
ATOM     17  O   UNL     1       2.172   9.468  17.477  0.00  0.00    +0.000 OA
ENDBRANCH   1  16
BRANCH   7  18
ATOM     18  N   UNL     1       0.647  11.808  19.777  0.00  0.00    +0.000 N 
ATOM     19  H   UNL     1       1.391  12.291  19.285  0.00  0.00    +0.000 HD
BRANCH  18  20
ATOM     20  C1* UNL     1      -0.572  12.582  19.834  0.00  0.00    +0.000 C 
ATOM     21  O4* UNL     1      -0.788  12.835  21.231  0.00  0.00    +0.000 OA
ATOM     22  C4* UNL     1      -2.192  13.032  21.452  0.00  0.00    +0.000 C 
ATOM     23  C3* UNL     1      -2.943  12.400  20.286  0.00  0.00    +0.000 C 
ATOM     24  C2* UNL     1      -1.865  11.959  19.292  0.00  0.00    +0.000 C 
BRANCH  23  25
ATOM     25  O3* UNL     1      -3.853  13.341  19.684  0.00  0.00    +0.000 OA
ATOM     26  H3* UNL     1      -4.581  12.842  19.269  0.00  0.00    +0.000 HD
ENDBRANCH  23  25
BRANCH  24  27
ATOM     27  O2* UNL     1      -2.192  12.443  17.979  0.00  0.00    +0.000 OA
ATOM     28  H2* UNL     1      -1.688  13.274  17.864  0.00  0.00    +0.000 HD
ENDBRANCH  24  27
BRANCH  22  29
ATOM     29  C5* UNL     1      -2.624  12.488  22.817  0.00  0.00    +0.000 C 
BRANCH  29  30
ATOM     30  O5* UNL     1      -1.850  11.352  23.195  0.00  0.00    +0.000 OA
ATOM     31  H5* UNL     1      -1.056  11.351  22.632  0.00  0.00    +0.000 HD
ENDBRANCH  29  30
ENDBRANCH  22  29
ENDBRANCH  18  20
ENDBRANCH   7  18
TORSDOF 8
ENDMDL
MODEL 8
REMARK VINA RESULT:      -7.3      3.945      6.498
REMARK  Name = 
REMARK  8 active torsions:
REMARK  status: ('A' for Active; 'I' for Inactive)
REMARK    1  A    between atoms: N_2  and  C_4
REMARK    2  A    between atoms: N_6  and  C_7
REMARK    3  A    between atoms: C_16  and  N_17
REMARK    4  A    between atoms: N_17  and  C1*_18
REMARK    5  A    between atoms: C4*_20  and  C5*_21
REMARK    6  A    between atoms: C5*_21  and  O5*_22
REMARK    7  A    between atoms: C3*_23  and  O3*_24
REMARK    8  A    between atoms: C2*_25  and  O2*_26
REMARK                            x       y       z     vdW  Elec       q    Type
REMARK                         _______ _______ _______ _____ _____    ______ ____
ROOT
ATOM      1  C   UNL     1       6.881   5.600  18.207  0.00  0.00    +0.000 A 
ATOM      2  C   UNL     1       7.555   6.696  17.673  0.00  0.00    +0.000 A 
ATOM      3  N   UNL     1       8.248   7.589  18.524  0.00  0.00    +0.000 N 
ATOM      4  N   UNL     1       7.546   6.882  16.340  0.00  0.00    +0.000 NA
ATOM      5  C   UNL     1       6.887   5.969  15.606  0.00  0.00    +0.000 A 
ATOM      6  N   UNL     1       6.286   4.855  16.065  0.00  0.00    +0.000 NA
ATOM      7  C   UNL     1       6.301   4.640  17.384  0.00  0.00    +0.000 A 
ATOM      8  H   UNL     1       8.879   7.114  19.163  0.00  0.00    +0.000 HD
ENDROOT
BRANCH   3   9
ATOM      9  C   UNL     1       8.558   8.961  18.408  0.00  0.00    +0.000 A 
ATOM     10  C   UNL     1       7.923   9.826  17.516  0.00  0.00    +0.000 A 
ATOM     11  C   UNL     1       8.142  11.207  17.569  0.00  0.00    +0.000 A 
ATOM     12  C   UNL     1       8.982  11.753  18.536  0.00  0.00    +0.000 A 
ATOM     13  C   UNL     1       9.627  10.912  19.436  0.00  0.00    +0.000 A 
ATOM     14  C   UNL     1       9.417   9.530  19.369  0.00  0.00    +0.000 A 
ENDBRANCH   3   9
BRANCH   1  16
ATOM     15  O   UNL     1       5.511   5.585  20.033  0.00  0.00    +0.000 OA
ATOM     16  N   UNL     1       6.682   5.532  19.616  0.00  0.00    +0.000 N 
ATOM     17  O   UNL     1       7.688   5.425  20.328  0.00  0.00    +0.000 OA
ENDBRANCH   1  16
BRANCH   7  18
ATOM     18  N   UNL     1       5.723   3.501  17.891  0.00  0.00    +0.000 N 
ATOM     19  H   UNL     1       6.317   2.791  18.305  0.00  0.00    +0.000 HD
BRANCH  18  20
ATOM     20  C1* UNL     1       4.330   3.116  17.874  0.00  0.00    +0.000 C 
ATOM     21  O4* UNL     1       3.609   4.313  18.205  0.00  0.00    +0.000 OA
ATOM     22  C4* UNL     1       2.355   3.946  18.799  0.00  0.00    +0.000 C 
ATOM     23  C3* UNL     1       2.484   2.521  19.322  0.00  0.00    +0.000 C 
ATOM     24  C2* UNL     1       3.854   2.030  18.847  0.00  0.00    +0.000 C 
BRANCH  23  25
ATOM     25  O3* UNL     1       1.427   1.685  18.813  0.00  0.00    +0.000 OA
ATOM     26  H3* UNL     1       0.799   2.248  18.324  0.00  0.00    +0.000 HD
ENDBRANCH  23  25
BRANCH  24  27
ATOM     27  O2* UNL     1       3.714   0.751  18.206  0.00  0.00    +0.000 OA
ATOM     28  H2* UNL     1       4.132   0.841  17.327  0.00  0.00    +0.000 HD
ENDBRANCH  24  27
BRANCH  22  29
ATOM     29  C5* UNL     1       1.934   4.951  19.876  0.00  0.00    +0.000 C 
BRANCH  29  30
ATOM     30  O5* UNL     1       2.840   6.049  19.949  0.00  0.00    +0.000 OA
ATOM     31  H5* UNL     1       3.714   5.680  20.168  0.00  0.00    +0.000 HD
ENDBRANCH  29  30
ENDBRANCH  22  29
ENDBRANCH  18  20
ENDBRANCH   7  18
TORSDOF 8
ENDMDL
MODEL 9
REMARK VINA RESULT:      -7.2      2.737      3.963
REMARK  Name = 
REMARK  8 active torsions:
REMARK  status: ('A' for Active; 'I' for Inactive)
REMARK    1  A    between atoms: N_2  and  C_4
REMARK    2  A    between atoms: N_6  and  C_7
REMARK    3  A    between atoms: C_16  and  N_17
REMARK    4  A    between atoms: N_17  and  C1*_18
REMARK    5  A    between atoms: C4*_20  and  C5*_21
REMARK    6  A    between atoms: C5*_21  and  O5*_22
REMARK    7  A    between atoms: C3*_23  and  O3*_24
REMARK    8  A    between atoms: C2*_25  and  O2*_26
REMARK                            x       y       z     vdW  Elec       q    Type
REMARK                         _______ _______ _______ _____ _____    ______ ____
ROOT
ATOM      1  C   UNL     1       2.246   7.408  19.477  0.00  0.00    +0.000 A 
ATOM      2  C   UNL     1       1.839   8.631  18.949  0.00  0.00    +0.000 A 
ATOM      3  N   UNL     1       0.962   9.465  19.682  0.00  0.00    +0.000 N 
ATOM      4  N   UNL     1       2.301   9.009  17.744  0.00  0.00    +0.000 NA
ATOM      5  C   UNL     1       3.152   8.168  17.131  0.00  0.00    +0.000 A 
ATOM      6  N   UNL     1       3.635   7.014  17.629  0.00  0.00    +0.000 NA
ATOM      7  C   UNL     1       3.204   6.630  18.835  0.00  0.00    +0.000 A 
ATOM      8  H   UNL     1       1.275   9.623  20.637  0.00  0.00    +0.000 HD
ENDROOT
BRANCH   3   9
ATOM      9  C   UNL     1       0.010  10.425  19.281  0.00  0.00    +0.000 A 
ATOM     10  C   UNL     1       0.210  11.803  19.381  0.00  0.00    +0.000 A 
ATOM     11  C   UNL     1      -0.689  12.707  18.804  0.00  0.00    +0.000 A 
ATOM     12  C   UNL     1      -1.793  12.248  18.090  0.00  0.00    +0.000 A 
ATOM     13  C   UNL     1      -2.015  10.880  17.977  0.00  0.00    +0.000 A 
ATOM     14  C   UNL     1      -1.122   9.980  18.569  0.00  0.00    +0.000 A 
ENDBRANCH   3   9
BRANCH   1  16
ATOM     15  O   UNL     1       1.468   7.649  21.610  0.00  0.00    +0.000 OA
ATOM     16  N   UNL     1       1.579   6.895  20.627  0.00  0.00    +0.000 N 
ATOM     17  O   UNL     1       1.155   5.734  20.567  0.00  0.00    +0.000 OA
ENDBRANCH   1  16
BRANCH   7  18
ATOM     18  N   UNL     1       3.693   5.471  19.391  0.00  0.00    +0.000 N 
ATOM     19  H   UNL     1       4.139   5.513  20.301  0.00  0.00    +0.000 HD
BRANCH  18  20
ATOM     20  C1* UNL     1       3.718   4.143  18.822  0.00  0.00    +0.000 C 
ATOM     21  O4* UNL     1       2.381   3.915  18.348  0.00  0.00    +0.000 OA
ATOM     22  C4* UNL     1       2.130   2.503  18.337  0.00  0.00    +0.000 C 
ATOM     23  C3* UNL     1       3.121   1.844  19.289  0.00  0.00    +0.000 C 
ATOM     24  C2* UNL     1       4.071   2.960  19.733  0.00  0.00    +0.000 C 
BRANCH  23  25
ATOM     25  O3* UNL     1       3.839   0.779  18.634  0.00  0.00    +0.000 OA
ATOM     26  H3* UNL     1       4.494   1.178  18.030  0.00  0.00    +0.000 HD
ENDBRANCH  23  25
BRANCH  24  27
ATOM     27  O2* UNL     1       5.432   2.532  19.564  0.00  0.00    +0.000 OA
ATOM     28  H2* UNL     1       5.479   2.125  18.676  0.00  0.00    +0.000 HD
ENDBRANCH  24  27
BRANCH  22  29
ATOM     29  C5* UNL     1       0.668   2.194  18.675  0.00  0.00    +0.000 C 
BRANCH  29  30
ATOM     30  O5* UNL     1       0.232   2.921  19.821  0.00  0.00    +0.000 OA
ATOM     31  H5* UNL     1      -0.505   2.418  20.210  0.00  0.00    +0.000 HD
ENDBRANCH  29  30
ENDBRANCH  22  29
ENDBRANCH  18  20
ENDBRANCH   7  18
TORSDOF 8
ENDMDL
