MODEL 1
REMARK VINA RESULT:      -8.2      0.000      0.000
REMARK  Name = 
REMARK  7 active torsions:
REMARK  status: ('A' for Active; 'I' for Inactive)
REMARK    1  A    between atoms: N_5  and  C_6
REMARK    2  A    between atoms: C_6  and  C_7
REMARK    3  A    between atoms: C_6  and  C_13
REMARK    4  A    between atoms: C_6  and  C_19
REMARK    5  A    between atoms: N_27  and  C_28
REMARK    6  A    between atoms: C_28  and  C_29
REMARK    7  A    between atoms: C_29  and  O_30
REMARK                            x       y       z     vdW  Elec       q    Type
REMARK                         _______ _______ _______ _____ _____    ______ ____
ROOT
ATOM      1  C   UNL     1       5.073   5.225  16.951  0.00  0.00    +0.000 C 
ENDROOT
BRANCH   1   6
ATOM      2  O   UNL     1       2.203   6.125  20.954  0.00  0.00    +0.000 OA
ATOM      3  C   UNL     1       2.343   6.723  19.885  0.00  0.00    +0.000 A 
ATOM      4  N   UNL     1       3.055   6.176  18.855  0.00  0.00    +0.000 NA
ATOM      5  C   UNL     1       3.219   6.792  17.729  0.00  0.00    +0.000 A 
ATOM      6  N   UNL     1       4.001   6.241  16.724  0.00  0.00    +0.000 N 
ATOM      7  C   UNL     1       2.637   8.148  17.506  0.00  0.00    +0.000 A 
ATOM      8  C   UNL     1       1.978   8.691  18.531  0.00  0.00    +0.000 A 
ATOM      9  N   UNL     1       1.804   7.997  19.707  0.00  0.00    +0.000 N 
ATOM     10  H   UNL     1       4.184   6.822  15.918  0.00  0.00    +0.000 HD
BRANCH   9  11
ATOM     11  C   UNL     1       1.015   8.578  20.796  0.00  0.00    +0.000 C 
BRANCH  11  12
ATOM     12  C   UNL     1       0.644  10.044  20.564  0.00  0.00    +0.000 C 
BRANCH  12  13
ATOM     13  O   UNL     1       1.015  10.850  21.680  0.00  0.00    +0.000 OA
ATOM     14  H   UNL     1       1.427  10.246  22.323  0.00  0.00    +0.000 HD
ENDBRANCH  12  13
ENDBRANCH  11  12
ENDBRANCH   9  11
ENDBRANCH   1   6
BRANCH   1  15
ATOM     15  C   UNL     1       4.401   4.025  17.710  0.00  0.00    +0.000 A 
ATOM     16  C   UNL     1       3.279   3.362  17.152  0.00  0.00    +0.000 A 
ATOM     17  C   UNL     1       2.638   2.309  17.814  0.00  0.00    +0.000 A 
ATOM     18  C   UNL     1       3.077   1.906  19.070  0.00  0.00    +0.000 A 
ATOM     19  C   UNL     1       4.147   2.564  19.666  0.00  0.00    +0.000 A 
ATOM     20  C   UNL     1       4.794   3.613  18.998  0.00  0.00    +0.000 A 
ENDBRANCH   1  15
BRANCH   1  21
ATOM     21  C   UNL     1       5.594   4.820  15.505  0.00  0.00    +0.000 A 
ATOM     22  C   UNL     1       6.954   5.019  15.165  0.00  0.00    +0.000 A 
ATOM     23  C   UNL     1       7.451   4.708  13.893  0.00  0.00    +0.000 A 
ATOM     24  C   UNL     1       6.605   4.179  12.925  0.00  0.00    +0.000 A 
ATOM     25  C   UNL     1       5.274   3.931  13.239  0.00  0.00    +0.000 A 
ATOM     26  C   UNL     1       4.780   4.229  14.516  0.00  0.00    +0.000 A 
ENDBRANCH   1  21
BRANCH   1  27
ATOM     27  C   UNL     1       6.297   5.884  17.697  0.00  0.00    +0.000 A 
ATOM     28  C   UNL     1       6.971   5.264  18.773  0.00  0.00    +0.000 A 
ATOM     29  C   UNL     1       8.051   5.867  19.422  0.00  0.00    +0.000 A 
ATOM     30  C   UNL     1       8.477   7.125  19.029  0.00  0.00    +0.000 A 
ATOM     31  C   UNL     1       7.820   7.783  17.995  0.00  0.00    +0.000 A 
ATOM     32  C   UNL     1       6.737   7.177  17.343  0.00  0.00    +0.000 A 
ENDBRANCH   1  27
TORSDOF 7
ENDMDL
MODEL 2
REMARK VINA RESULT:      -8.1      0.111      1.244
REMARK  Name = 
REMARK  7 active torsions:
REMARK  status: ('A' for Active; 'I' for Inactive)
REMARK    1  A    between atoms: N_5  and  C_6
REMARK    2  A    between atoms: C_6  and  C_7
REMARK    3  A    between atoms: C_6  and  C_13
REMARK    4  A    between atoms: C_6  and  C_19
REMARK    5  A    between atoms: N_27  and  C_28
REMARK    6  A    between atoms: C_28  and  C_29
REMARK    7  A    between atoms: C_29  and  O_30
REMARK                            x       y       z     vdW  Elec       q    Type
REMARK                         _______ _______ _______ _____ _____    ______ ____
ROOT
ATOM      1  C   UNL     1       5.048   5.297  16.974  0.00  0.00    +0.000 C 
ENDROOT
BRANCH   1   6
ATOM      2  O   UNL     1       2.124   6.238  20.928  0.00  0.00    +0.000 OA
ATOM      3  C   UNL     1       2.284   6.829  19.858  0.00  0.00    +0.000 A 
ATOM      4  N   UNL     1       3.007   6.271  18.841  0.00  0.00    +0.000 NA
ATOM      5  C   UNL     1       3.192   6.880  17.714  0.00  0.00    +0.000 A 
ATOM      6  N   UNL     1       3.985   6.318  16.724  0.00  0.00    +0.000 N 
ATOM      7  C   UNL     1       2.622   8.238  17.475  0.00  0.00    +0.000 A 
ATOM      8  C   UNL     1       1.950   8.791  18.487  0.00  0.00    +0.000 A 
ATOM      9  N   UNL     1       1.755   8.105  19.664  0.00  0.00    +0.000 N 
ATOM     10  H   UNL     1       4.184   6.894  15.918  0.00  0.00    +0.000 HD
BRANCH   9  11
ATOM     11  C   UNL     1       0.953   8.697  20.738  0.00  0.00    +0.000 C 
BRANCH  11  12
ATOM     12  C   UNL     1       0.611  10.169  20.500  0.00  0.00    +0.000 C 
BRANCH  12  13
ATOM     13  O   UNL     1       1.150  10.994  21.532  0.00  0.00    +0.000 OA
ATOM     14  H   UNL     1       0.412  11.183  22.137  0.00  0.00    +0.000 HD
ENDBRANCH  12  13
ENDBRANCH  11  12
ENDBRANCH   9  11
ENDBRANCH   1   6
BRANCH   1  15
ATOM     15  C   UNL     1       4.361   4.114  17.746  0.00  0.00    +0.000 A 
ATOM     16  C   UNL     1       4.830   3.724  19.025  0.00  0.00    +0.000 A 
ATOM     17  C   UNL     1       4.262   2.655  19.727  0.00  0.00    +0.000 A 
ATOM     18  C   UNL     1       3.227   1.921  19.160  0.00  0.00    +0.000 A 
ATOM     19  C   UNL     1       2.772   2.248  17.887  0.00  0.00    +0.000 A 
ATOM     20  C   UNL     1       3.336   3.324  17.189  0.00  0.00    +0.000 A 
ENDBRANCH   1  15
BRANCH   1  21
ATOM     21  C   UNL     1       5.575   4.867  15.538  0.00  0.00    +0.000 A 
ATOM     22  C   UNL     1       6.940   5.043  15.205  0.00  0.00    +0.000 A 
ATOM     23  C   UNL     1       7.442   4.709  13.942  0.00  0.00    +0.000 A 
ATOM     24  C   UNL     1       6.598   4.178  12.974  0.00  0.00    +0.000 A 
ATOM     25  C   UNL     1       5.261   3.951  13.281  0.00  0.00    +0.000 A 
ATOM     26  C   UNL     1       4.761   4.273  14.549  0.00  0.00    +0.000 A 
ENDBRANCH   1  21
BRANCH   1  27
ATOM     27  C   UNL     1       6.272   5.957  17.717  0.00  0.00    +0.000 A 
ATOM     28  C   UNL     1       6.787   7.230  17.383  0.00  0.00    +0.000 A 
ATOM     29  C   UNL     1       7.875   7.794  18.051  0.00  0.00    +0.000 A 
ATOM     30  C   UNL     1       8.502   7.089  19.066  0.00  0.00    +0.000 A 
ATOM     31  C   UNL     1       8.047   5.818  19.404  0.00  0.00    +0.000 A 
ATOM     32  C   UNL     1       6.954   5.254  18.733  0.00  0.00    +0.000 A 
ENDBRANCH   1  27
TORSDOF 7
ENDMDL
MODEL 3
REMARK VINA RESULT:      -8.1      0.084      1.242
REMARK  Name = 
REMARK  7 active torsions:
REMARK  status: ('A' for Active; 'I' for Inactive)
REMARK    1  A    between atoms: N_5  and  C_6
REMARK    2  A    between atoms: C_6  and  C_7
REMARK    3  A    between atoms: C_6  and  C_13
REMARK    4  A    between atoms: C_6  and  C_19
REMARK    5  A    between atoms: N_27  and  C_28
REMARK    6  A    between atoms: C_28  and  C_29
REMARK    7  A    between atoms: C_29  and  O_30
REMARK                            x       y       z     vdW  Elec       q    Type
REMARK                         _______ _______ _______ _____ _____    ______ ____
ROOT
ATOM      1  C   UNL     1       5.107   5.279  16.957  0.00  0.00    +0.000 C 
ENDROOT
BRANCH   1   6
ATOM      2  O   UNL     1       2.202   6.170  20.936  0.00  0.00    +0.000 OA
ATOM      3  C   UNL     1       2.341   6.763  19.864  0.00  0.00    +0.000 A 
ATOM      4  N   UNL     1       3.066   6.217  18.842  0.00  0.00    +0.000 NA
ATOM      5  C   UNL     1       3.229   6.828  17.713  0.00  0.00    +0.000 A 
ATOM      6  N   UNL     1       4.024   6.280  16.716  0.00  0.00    +0.000 N 
ATOM      7  C   UNL     1       2.632   8.175  17.477  0.00  0.00    +0.000 A 
ATOM      8  C   UNL     1       1.959   8.717  18.494  0.00  0.00    +0.000 A 
ATOM      9  N   UNL     1       1.787   8.028  19.673  0.00  0.00    +0.000 N 
ATOM     10  H   UNL     1       4.205   6.858  15.907  0.00  0.00    +0.000 HD
BRANCH   9  11
ATOM     11  C   UNL     1       0.984   8.607  20.754  0.00  0.00    +0.000 C 
BRANCH  11  12
ATOM     12  C   UNL     1       0.591  10.065  20.506  0.00  0.00    +0.000 C 
BRANCH  12  13
ATOM     13  O   UNL     1       1.163  10.924  21.490  0.00  0.00    +0.000 OA
ATOM     14  H   UNL     1       0.640  10.791  22.300  0.00  0.00    +0.000 HD
ENDBRANCH  12  13
ENDBRANCH  11  12
ENDBRANCH   9  11
ENDBRANCH   1   6
BRANCH   1  15
ATOM     15  C   UNL     1       4.443   4.070  17.709  0.00  0.00    +0.000 A 
ATOM     16  C   UNL     1       3.349   3.379  17.130  0.00  0.00    +0.000 A 
ATOM     17  C   UNL     1       2.715   2.318  17.785  0.00  0.00    +0.000 A 
ATOM     18  C   UNL     1       3.133   1.933  19.055  0.00  0.00    +0.000 A 
ATOM     19  C   UNL     1       4.174   2.619  19.671  0.00  0.00    +0.000 A 
ATOM     20  C   UNL     1       4.814   3.676  19.010  0.00  0.00    +0.000 A 
ENDBRANCH   1  15
BRANCH   1  21
ATOM     21  C   UNL     1       5.651   4.880  15.519  0.00  0.00    +0.000 A 
ATOM     22  C   UNL     1       4.766   4.335  14.557  0.00  0.00    +0.000 A 
ATOM     23  C   UNL     1       5.207   3.940  13.288  0.00  0.00    +0.000 A 
ATOM     24  C   UNL     1       6.544   4.084  12.937  0.00  0.00    +0.000 A 
ATOM     25  C   UNL     1       7.431   4.656  13.842  0.00  0.00    +0.000 A 
ATOM     26  C   UNL     1       6.988   5.065  15.107  0.00  0.00    +0.000 A 
ENDBRANCH   1  21
BRANCH   1  27
ATOM     27  C   UNL     1       6.313   5.955  17.717  0.00  0.00    +0.000 A 
ATOM     28  C   UNL     1       6.821   7.232  17.382  0.00  0.00    +0.000 A 
ATOM     29  C   UNL     1       7.892   7.810  18.065  0.00  0.00    +0.000 A 
ATOM     30  C   UNL     1       8.510   7.117  19.094  0.00  0.00    +0.000 A 
ATOM     31  C   UNL     1       8.062   5.844  19.433  0.00  0.00    +0.000 A 
ATOM     32  C   UNL     1       6.986   5.265  18.748  0.00  0.00    +0.000 A 
ENDBRANCH   1  27
TORSDOF 7
ENDMDL
MODEL 4
REMARK VINA RESULT:      -8.0      0.487      1.003
REMARK  Name = 
REMARK  7 active torsions:
REMARK  status: ('A' for Active; 'I' for Inactive)
REMARK    1  A    between atoms: N_5  and  C_6
REMARK    2  A    between atoms: C_6  and  C_7
REMARK    3  A    between atoms: C_6  and  C_13
REMARK    4  A    between atoms: C_6  and  C_19
REMARK    5  A    between atoms: N_27  and  C_28
REMARK    6  A    between atoms: C_28  and  C_29
REMARK    7  A    between atoms: C_29  and  O_30
REMARK                            x       y       z     vdW  Elec       q    Type
REMARK                         _______ _______ _______ _____ _____    ______ ____
ROOT
ATOM      1  C   UNL     1       5.086   5.244  17.019  0.00  0.00    +0.000 C 
ENDROOT
BRANCH   1   6
ATOM      2  O   UNL     1       2.114   5.943  20.987  0.00  0.00    +0.000 OA
ATOM      3  C   UNL     1       2.261   6.579  19.942  0.00  0.00    +0.000 A 
ATOM      4  N   UNL     1       3.007   6.083  18.909  0.00  0.00    +0.000 NA
ATOM      5  C   UNL     1       3.177   6.739  17.807  0.00  0.00    +0.000 A 
ATOM      6  N   UNL     1       3.993   6.240  16.802  0.00  0.00    +0.000 N 
ATOM      7  C   UNL     1       2.566   8.086  17.615  0.00  0.00    +0.000 A 
ATOM      8  C   UNL     1       1.873   8.580  18.643  0.00  0.00    +0.000 A 
ATOM      9  N   UNL     1       1.693   7.844  19.792  0.00  0.00    +0.000 N 
ATOM     10  H   UNL     1       4.177   6.851  16.018  0.00  0.00    +0.000 HD
BRANCH   9  11
ATOM     11  C   UNL     1       0.868   8.370  20.883  0.00  0.00    +0.000 C 
BRANCH  11  12
ATOM     12  C   UNL     1       1.461   9.613  21.549  0.00  0.00    +0.000 C 
BRANCH  12  13
ATOM     13  O   UNL     1       2.123   9.277  22.767  0.00  0.00    +0.000 OA
ATOM     14  H   UNL     1       2.360   8.336  22.692  0.00  0.00    +0.000 HD
ENDBRANCH  12  13
ENDBRANCH  11  12
ENDBRANCH   9  11
ENDBRANCH   1   6
BRANCH   1  15
ATOM     15  C   UNL     1       4.441   4.028  17.778  0.00  0.00    +0.000 A 
ATOM     16  C   UNL     1       3.355   3.320  17.206  0.00  0.00    +0.000 A 
ATOM     17  C   UNL     1       2.738   2.252  17.868  0.00  0.00    +0.000 A 
ATOM     18  C   UNL     1       3.167   1.879  19.136  0.00  0.00    +0.000 A 
ATOM     19  C   UNL     1       4.200   2.581  19.746  0.00  0.00    +0.000 A 
ATOM     20  C   UNL     1       4.823   3.645  19.078  0.00  0.00    +0.000 A 
ENDBRANCH   1  15
BRANCH   1  21
ATOM     21  C   UNL     1       5.605   4.853  15.569  0.00  0.00    +0.000 A 
ATOM     22  C   UNL     1       6.961   5.069  15.224  0.00  0.00    +0.000 A 
ATOM     23  C   UNL     1       7.456   4.770  13.949  0.00  0.00    +0.000 A 
ATOM     24  C   UNL     1       6.613   4.238  12.980  0.00  0.00    +0.000 A 
ATOM     25  C   UNL     1       5.285   3.974  13.299  0.00  0.00    +0.000 A 
ATOM     26  C   UNL     1       4.793   4.260  14.579  0.00  0.00    +0.000 A 
ENDBRANCH   1  21
BRANCH   1  27
ATOM     27  C   UNL     1       6.302   5.923  17.759  0.00  0.00    +0.000 A 
ATOM     28  C   UNL     1       6.816   7.190  17.400  0.00  0.00    +0.000 A 
ATOM     29  C   UNL     1       7.897   7.771  18.066  0.00  0.00    +0.000 A 
ATOM     30  C   UNL     1       8.517   7.091  19.102  0.00  0.00    +0.000 A 
ATOM     31  C   UNL     1       8.061   5.827  19.464  0.00  0.00    +0.000 A 
ATOM     32  C   UNL     1       6.976   5.245  18.796  0.00  0.00    +0.000 A 
ENDBRANCH   1  27
TORSDOF 7
ENDMDL
MODEL 5
REMARK VINA RESULT:      -8.0      0.243      4.259
REMARK  Name = 
REMARK  7 active torsions:
REMARK  status: ('A' for Active; 'I' for Inactive)
REMARK    1  A    between atoms: N_5  and  C_6
REMARK    2  A    between atoms: C_6  and  C_7
REMARK    3  A    between atoms: C_6  and  C_13
REMARK    4  A    between atoms: C_6  and  C_19
REMARK    5  A    between atoms: N_27  and  C_28
REMARK    6  A    between atoms: C_28  and  C_29
REMARK    7  A    between atoms: C_29  and  O_30
REMARK                            x       y       z     vdW  Elec       q    Type
REMARK                         _______ _______ _______ _____ _____    ______ ____
ROOT
ATOM      1  C   UNL     1       5.196   5.405  16.792  0.00  0.00    +0.000 C 
ENDROOT
BRANCH   1   6
ATOM      2  O   UNL     1       2.268   5.870  20.826  0.00  0.00    +0.000 OA
ATOM      3  C   UNL     1       2.415   6.574  19.826  0.00  0.00    +0.000 A 
ATOM      4  N   UNL     1       3.145   6.140  18.754  0.00  0.00    +0.000 NA
ATOM      5  C   UNL     1       3.316   6.869  17.699  0.00  0.00    +0.000 A 
ATOM      6  N   UNL     1       4.116   6.428  16.654  0.00  0.00    +0.000 N 
ATOM      7  C   UNL     1       2.724   8.234  17.606  0.00  0.00    +0.000 A 
ATOM      8  C   UNL     1       2.046   8.666  18.672  0.00  0.00    +0.000 A 
ATOM      9  N   UNL     1       1.865   7.854  19.769  0.00  0.00    +0.000 N 
ATOM     10  H   UNL     1       4.303   7.090  15.913  0.00  0.00    +0.000 HD
BRANCH   9  11
ATOM     11  C   UNL     1       1.057   8.315  20.901  0.00  0.00    +0.000 C 
BRANCH  11  12
ATOM     12  C   UNL     1       0.607   9.772  20.773  0.00  0.00    +0.000 C 
BRANCH  12  13
ATOM     13  O   UNL     1       1.169  10.576  21.809  0.00  0.00    +0.000 OA
ATOM     14  H   UNL     1       0.739  10.290  22.634  0.00  0.00    +0.000 HD
ENDBRANCH  12  13
ENDBRANCH  11  12
ENDBRANCH   9  11
ENDBRANCH   1   6
BRANCH   1  15
ATOM     15  C   UNL     1       6.351   6.079  17.617  0.00  0.00    +0.000 A 
ATOM     16  C   UNL     1       6.817   7.373  17.274  0.00  0.00    +0.000 A 
ATOM     17  C   UNL     1       7.863   7.990  17.968  0.00  0.00    +0.000 A 
ATOM     18  C   UNL     1       8.500   7.320  19.007  0.00  0.00    +0.000 A 
ATOM     19  C   UNL     1       8.098   6.031  19.340  0.00  0.00    +0.000 A 
ATOM     20  C   UNL     1       7.044   5.418  18.650  0.00  0.00    +0.000 A 
ENDBRANCH   1  15
BRANCH   1  21
ATOM     21  C   UNL     1       4.532   4.181  17.557  0.00  0.00    +0.000 A 
ATOM     22  C   UNL     1       3.439   3.494  16.974  0.00  0.00    +0.000 A 
ATOM     23  C   UNL     1       2.802   2.431  17.625  0.00  0.00    +0.000 A 
ATOM     24  C   UNL     1       3.243   2.015  18.876  0.00  0.00    +0.000 A 
ATOM     25  C   UNL     1       4.340   2.639  19.458  0.00  0.00    +0.000 A 
ATOM     26  C   UNL     1       4.987   3.693  18.800  0.00  0.00    +0.000 A 
ENDBRANCH   1  21
BRANCH   1  27
ATOM     27  C   UNL     1       5.618   4.865  15.371  0.00  0.00    +0.000 A 
ATOM     28  C   UNL     1       4.716   4.242  14.480  0.00  0.00    +0.000 A 
ATOM     29  C   UNL     1       5.112   3.768  13.228  0.00  0.00    +0.000 A 
ATOM     30  C   UNL     1       6.436   3.879  12.835  0.00  0.00    +0.000 A 
ATOM     31  C   UNL     1       7.363   4.456  13.697  0.00  0.00    +0.000 A 
ATOM     32  C   UNL     1       6.964   4.933  14.952  0.00  0.00    +0.000 A 
ENDBRANCH   1  27
TORSDOF 7
ENDMDL
MODEL 6
REMARK VINA RESULT:      -7.8      0.262      4.201
REMARK  Name = 
REMARK  7 active torsions:
REMARK  status: ('A' for Active; 'I' for Inactive)
REMARK    1  A    between atoms: N_5  and  C_6
REMARK    2  A    between atoms: C_6  and  C_7
REMARK    3  A    between atoms: C_6  and  C_13
REMARK    4  A    between atoms: C_6  and  C_19
REMARK    5  A    between atoms: N_27  and  C_28
REMARK    6  A    between atoms: C_28  and  C_29
REMARK    7  A    between atoms: C_29  and  O_30
REMARK                            x       y       z     vdW  Elec       q    Type
REMARK                         _______ _______ _______ _____ _____    ______ ____
ROOT
ATOM      1  C   UNL     1       5.232   5.382  16.795  0.00  0.00    +0.000 C 
ENDROOT
BRANCH   1   6
ATOM      2  O   UNL     1       2.296   5.902  20.818  0.00  0.00    +0.000 OA
ATOM      3  C   UNL     1       2.442   6.590  19.806  0.00  0.00    +0.000 A 
ATOM      4  N   UNL     1       3.175   6.141  18.743  0.00  0.00    +0.000 NA
ATOM      5  C   UNL     1       3.345   6.853  17.675  0.00  0.00    +0.000 A 
ATOM      6  N   UNL     1       4.148   6.399  16.639  0.00  0.00    +0.000 N 
ATOM      7  C   UNL     1       2.748   8.215  17.560  0.00  0.00    +0.000 A 
ATOM      8  C   UNL     1       2.067   8.661  18.617  0.00  0.00    +0.000 A 
ATOM      9  N   UNL     1       1.887   7.867  19.727  0.00  0.00    +0.000 N 
ATOM     10  H   UNL     1       4.334   7.049  15.888  0.00  0.00    +0.000 HD
BRANCH   9  11
ATOM     11  C   UNL     1       1.076   8.344  20.850  0.00  0.00    +0.000 C 
BRANCH  11  12
ATOM     12  C   UNL     1       0.600   9.789  20.687  0.00  0.00    +0.000 C 
BRANCH  12  13
ATOM     13  O   UNL     1       1.102  10.615  21.737  0.00  0.00    +0.000 OA
ATOM     14  H   UNL     1       1.984  10.909  21.449  0.00  0.00    +0.000 HD
ENDBRANCH  12  13
ENDBRANCH  11  12
ENDBRANCH   9  11
ENDBRANCH   1   6
BRANCH   1  15
ATOM     15  C   UNL     1       6.379   6.070  17.620  0.00  0.00    +0.000 A 
ATOM     16  C   UNL     1       6.828   7.370  17.277  0.00  0.00    +0.000 A 
ATOM     17  C   UNL     1       7.867   8.000  17.970  0.00  0.00    +0.000 A 
ATOM     18  C   UNL     1       8.512   7.339  19.009  0.00  0.00    +0.000 A 
ATOM     19  C   UNL     1       8.127   6.045  19.342  0.00  0.00    +0.000 A 
ATOM     20  C   UNL     1       7.080   5.419  18.653  0.00  0.00    +0.000 A 
ENDBRANCH   1  15
BRANCH   1  21
ATOM     21  C   UNL     1       4.568   4.163  17.570  0.00  0.00    +0.000 A 
ATOM     22  C   UNL     1       5.009   3.833  18.874  0.00  0.00    +0.000 A 
ATOM     23  C   UNL     1       4.477   2.749  19.582  0.00  0.00    +0.000 A 
ATOM     24  C   UNL     1       3.480   1.966  19.012  0.00  0.00    +0.000 A 
ATOM     25  C   UNL     1       2.993   2.288  17.750  0.00  0.00    +0.000 A 
ATOM     26  C   UNL     1       3.516   3.382  17.047  0.00  0.00    +0.000 A 
ENDBRANCH   1  21
BRANCH   1  27
ATOM     27  C   UNL     1       5.666   4.828  15.384  0.00  0.00    +0.000 A 
ATOM     28  C   UNL     1       6.997   4.871  14.911  0.00  0.00    +0.000 A 
ATOM     29  C   UNL     1       7.359   4.378  13.656  0.00  0.00    +0.000 A 
ATOM     30  C   UNL     1       6.392   3.846  12.818  0.00  0.00    +0.000 A 
ATOM     31  C   UNL     1       5.064   3.815  13.232  0.00  0.00    +0.000 A 
ATOM     32  C   UNL     1       4.702   4.309  14.493  0.00  0.00    +0.000 A 
ENDBRANCH   1  27
TORSDOF 7
ENDMDL
MODEL 7
REMARK VINA RESULT:      -7.7      0.253      4.208
REMARK  Name = 
REMARK  7 active torsions:
REMARK  status: ('A' for Active; 'I' for Inactive)
REMARK    1  A    between atoms: N_5  and  C_6
REMARK    2  A    between atoms: C_6  and  C_7
REMARK    3  A    between atoms: C_6  and  C_13
REMARK    4  A    between atoms: C_6  and  C_19
REMARK    5  A    between atoms: N_27  and  C_28
REMARK    6  A    between atoms: C_28  and  C_29
REMARK    7  A    between atoms: C_29  and  O_30
REMARK                            x       y       z     vdW  Elec       q    Type
REMARK                         _______ _______ _______ _____ _____    ______ ____
ROOT
ATOM      1  C   UNL     1       5.195   5.223  16.770  0.00  0.00    +0.000 C 
ENDROOT
BRANCH   1   6
ATOM      2  O   UNL     1       2.201   5.949  20.717  0.00  0.00    +0.000 OA
ATOM      3  C   UNL     1       2.410   6.617  19.702  0.00  0.00    +0.000 A 
ATOM      4  N   UNL     1       3.140   6.117  18.661  0.00  0.00    +0.000 NA
ATOM      5  C   UNL     1       3.375   6.807  17.592  0.00  0.00    +0.000 A 
ATOM      6  N   UNL     1       4.175   6.298  16.579  0.00  0.00    +0.000 N 
ATOM      7  C   UNL     1       2.858   8.199  17.450  0.00  0.00    +0.000 A 
ATOM      8  C   UNL     1       2.180   8.694  18.487  0.00  0.00    +0.000 A 
ATOM      9  N   UNL     1       1.930   7.923  19.599  0.00  0.00    +0.000 N 
ATOM     10  H   UNL     1       4.414   6.928  15.826  0.00  0.00    +0.000 HD
BRANCH   9  11
ATOM     11  C   UNL     1       1.121   8.456  20.699  0.00  0.00    +0.000 C 
BRANCH  11  12
ATOM     12  C   UNL     1       0.722   9.920  20.506  0.00  0.00    +0.000 C 
BRANCH  12  13
ATOM     13  O   UNL     1       1.123  10.712  21.623  0.00  0.00    +0.000 OA
ATOM     14  H   UNL     1       0.581  10.412  22.374  0.00  0.00    +0.000 HD
ENDBRANCH  12  13
ENDBRANCH  11  12
ENDBRANCH   9  11
ENDBRANCH   1   6
BRANCH   1  15
ATOM     15  C   UNL     1       5.658   4.783  15.334  0.00  0.00    +0.000 A 
ATOM     16  C   UNL     1       6.973   5.068  14.886  0.00  0.00    +0.000 A 
ATOM     17  C   UNL     1       7.408   4.718  13.603  0.00  0.00    +0.000 A 
ATOM     18  C   UNL     1       6.535   4.100  12.715  0.00  0.00    +0.000 A 
ATOM     19  C   UNL     1       5.225   3.848  13.107  0.00  0.00    +0.000 A 
ATOM     20  C   UNL     1       4.792   4.190  14.395  0.00  0.00    +0.000 A 
ENDBRANCH   1  15
BRANCH   1  21
ATOM     21  C   UNL     1       6.366   5.887  17.613  0.00  0.00    +0.000 A 
ATOM     22  C   UNL     1       6.770   7.216  17.336  0.00  0.00    +0.000 A 
ATOM     23  C   UNL     1       7.818   7.831  18.031  0.00  0.00    +0.000 A 
ATOM     24  C   UNL     1       8.490   7.140  19.032  0.00  0.00    +0.000 A 
ATOM     25  C   UNL     1       8.092   5.849  19.360  0.00  0.00    +0.000 A 
ATOM     26  C   UNL     1       7.034   5.238  18.674  0.00  0.00    +0.000 A 
ENDBRANCH   1  21
BRANCH   1  27
ATOM     27  C   UNL     1       4.605   4.065  17.663  0.00  0.00    +0.000 A 
ATOM     28  C   UNL     1       5.013   3.831  18.996  0.00  0.00    +0.000 A 
ATOM     29  C   UNL     1       4.480   2.797  19.769  0.00  0.00    +0.000 A 
ATOM     30  C   UNL     1       3.535   1.944  19.222  0.00  0.00    +0.000 A 
ATOM     31  C   UNL     1       3.129   2.120  17.903  0.00  0.00    +0.000 A 
ATOM     32  C   UNL     1       3.664   3.159  17.129  0.00  0.00    +0.000 A 
ENDBRANCH   1  27
TORSDOF 7
ENDMDL
MODEL 8
REMARK VINA RESULT:      -7.6      0.256      4.168
REMARK  Name = 
REMARK  7 active torsions:
REMARK  status: ('A' for Active; 'I' for Inactive)
REMARK    1  A    between atoms: N_5  and  C_6
REMARK    2  A    between atoms: C_6  and  C_7
REMARK    3  A    between atoms: C_6  and  C_13
REMARK    4  A    between atoms: C_6  and  C_19
REMARK    5  A    between atoms: N_27  and  C_28
REMARK    6  A    between atoms: C_28  and  C_29
REMARK    7  A    between atoms: C_29  and  O_30
REMARK                            x       y       z     vdW  Elec       q    Type
REMARK                         _______ _______ _______ _____ _____    ______ ____
ROOT
ATOM      1  C   UNL     1       5.200   5.276  16.732  0.00  0.00    +0.000 C 
ENDROOT
BRANCH   1   6
ATOM      2  O   UNL     1       2.187   5.928  20.677  0.00  0.00    +0.000 OA
ATOM      3  C   UNL     1       2.408   6.621  19.682  0.00  0.00    +0.000 A 
ATOM      4  N   UNL     1       3.141   6.141  18.633  0.00  0.00    +0.000 NA
ATOM      5  C   UNL     1       3.389   6.856  17.583  0.00  0.00    +0.000 A 
ATOM      6  N   UNL     1       4.191   6.365  16.563  0.00  0.00    +0.000 N 
ATOM      7  C   UNL     1       2.887   8.256  17.474  0.00  0.00    +0.000 A 
ATOM      8  C   UNL     1       2.206   8.730  18.519  0.00  0.00    +0.000 A 
ATOM      9  N   UNL     1       1.941   7.933  19.610  0.00  0.00    +0.000 N 
ATOM     10  H   UNL     1       4.442   7.012  15.828  0.00  0.00    +0.000 HD
BRANCH   9  11
ATOM     11  C   UNL     1       1.130   8.445  20.717  0.00  0.00    +0.000 C 
BRANCH  11  12
ATOM     12  C   UNL     1       0.661   9.887  20.511  0.00  0.00    +0.000 C 
BRANCH  12  13
ATOM     13  O   UNL     1       1.087  10.724  21.585  0.00  0.00    +0.000 OA
ATOM     14  H   UNL     1       0.286  10.936  22.095  0.00  0.00    +0.000 HD
ENDBRANCH  12  13
ENDBRANCH  11  12
ENDBRANCH   9  11
ENDBRANCH   1   6
BRANCH   1  15
ATOM     15  C   UNL     1       5.678   4.878  15.289  0.00  0.00    +0.000 A 
ATOM     16  C   UNL     1       4.807   4.187  14.410  0.00  0.00    +0.000 A 
ATOM     17  C   UNL     1       5.211   3.792  13.130  0.00  0.00    +0.000 A 
ATOM     18  C   UNL     1       6.508   4.046  12.699  0.00  0.00    +0.000 A 
ATOM     19  C   UNL     1       7.402   4.681  13.554  0.00  0.00    +0.000 A 
ATOM     20  C   UNL     1       6.994   5.084  14.832  0.00  0.00    +0.000 A 
ENDBRANCH   1  15
BRANCH   1  21
ATOM     21  C   UNL     1       6.365   5.902  17.612  0.00  0.00    +0.000 A 
ATOM     22  C   UNL     1       6.814   7.220  17.353  0.00  0.00    +0.000 A 
ATOM     23  C   UNL     1       7.859   7.802  18.080  0.00  0.00    +0.000 A 
ATOM     24  C   UNL     1       8.483   7.088  19.096  0.00  0.00    +0.000 A 
ATOM     25  C   UNL     1       8.039   5.808  19.406  0.00  0.00    +0.000 A 
ATOM     26  C   UNL     1       6.984   5.230  18.688  0.00  0.00    +0.000 A 
ENDBRANCH   1  21
BRANCH   1  27
ATOM     27  C   UNL     1       4.588   4.095  17.581  0.00  0.00    +0.000 A 
ATOM     28  C   UNL     1       3.554   3.256  17.107  0.00  0.00    +0.000 A 
ATOM     29  C   UNL     1       3.024   2.218  17.877  0.00  0.00    +0.000 A 
ATOM     30  C   UNL     1       3.496   2.001  19.161  0.00  0.00    +0.000 A 
ATOM     31  C   UNL     1       4.491   2.825  19.677  0.00  0.00    +0.000 A 
ATOM     32  C   UNL     1       5.024   3.865  18.904  0.00  0.00    +0.000 A 
ENDBRANCH   1  27
TORSDOF 7
ENDMDL
MODEL 9
REMARK VINA RESULT:      -7.5      5.383      8.934
REMARK  Name = 
REMARK  7 active torsions:
REMARK  status: ('A' for Active; 'I' for Inactive)
REMARK    1  A    between atoms: N_5  and  C_6
REMARK    2  A    between atoms: C_6  and  C_7
REMARK    3  A    between atoms: C_6  and  C_13
REMARK    4  A    between atoms: C_6  and  C_19
REMARK    5  A    between atoms: N_27  and  C_28
REMARK    6  A    between atoms: C_28  and  C_29
REMARK    7  A    between atoms: C_29  and  O_30
REMARK                            x       y       z     vdW  Elec       q    Type
REMARK                         _______ _______ _______ _____ _____    ______ ____
ROOT
ATOM      1  C   UNL     1      -0.438  11.304  19.002  0.00  0.00    +0.000 C 
ENDROOT
BRANCH   1   6
ATOM      2  O   UNL     1       3.051  13.598  21.766  0.00  0.00    +0.000 OA
ATOM      3  C   UNL     1       2.779  13.652  20.565  0.00  0.00    +0.000 A 
ATOM      4  N   UNL     1       1.647  13.070  20.066  0.00  0.00    +0.000 NA
ATOM      5  C   UNL     1       1.350  13.111  18.808  0.00  0.00    +0.000 A 
ATOM      6  N   UNL     1       0.228  12.455  18.321  0.00  0.00    +0.000 N 
ATOM      7  C   UNL     1       2.245  13.797  17.831  0.00  0.00    +0.000 A 
ATOM      8  C   UNL     1       3.367  14.328  18.320  0.00  0.00    +0.000 A 
ATOM      9  N   UNL     1       3.640  14.285  19.668  0.00  0.00    +0.000 N 
ATOM     10  H   UNL     1       0.116  12.428  17.317  0.00  0.00    +0.000 HD
BRANCH   9  11
ATOM     11  C   UNL     1       4.840  14.937  20.198  0.00  0.00    +0.000 C 
BRANCH  11  12
ATOM     12  C   UNL     1       4.622  16.405  20.570  0.00  0.00    +0.000 C 
BRANCH  12  13
ATOM     13  O   UNL     1       4.211  16.534  21.931  0.00  0.00    +0.000 OA
ATOM     14  H   UNL     1       4.859  16.031  22.455  0.00  0.00    +0.000 HD
ENDBRANCH  12  13
ENDBRANCH  11  12
ENDBRANCH   9  11
ENDBRANCH   1   6
BRANCH   1  15
ATOM     15  C   UNL     1      -0.938  11.834  20.394  0.00  0.00    +0.000 A 
ATOM     16  C   UNL     1      -0.571  11.166  21.590  0.00  0.00    +0.000 A 
ATOM     17  C   UNL     1      -1.022  11.593  22.843  0.00  0.00    +0.000 A 
ATOM     18  C   UNL     1      -1.882  12.682  22.940  0.00  0.00    +0.000 A 
ATOM     19  C   UNL     1      -2.299  13.331  21.783  0.00  0.00    +0.000 A 
ATOM     20  C   UNL     1      -1.838  12.908  20.529  0.00  0.00    +0.000 A 
ENDBRANCH   1  15
BRANCH   1  21
ATOM     21  C   UNL     1      -1.632  10.872  18.047  0.00  0.00    +0.000 A 
ATOM     22  C   UNL     1      -1.861  11.578  16.840  0.00  0.00    +0.000 A 
ATOM     23  C   UNL     1      -2.920  11.254  15.984  0.00  0.00    +0.000 A 
ATOM     24  C   UNL     1      -3.779  10.208  16.302  0.00  0.00    +0.000 A 
ATOM     25  C   UNL     1      -3.557   9.467  17.457  0.00  0.00    +0.000 A 
ATOM     26  C   UNL     1      -2.489   9.782  18.307  0.00  0.00    +0.000 A 
ENDBRANCH   1  21
BRANCH   1  27
ATOM     27  C   UNL     1       0.544  10.071  19.071  0.00  0.00    +0.000 A 
ATOM     28  C   UNL     1       1.264   9.591  17.954  0.00  0.00    +0.000 A 
ATOM     29  C   UNL     1       2.125   8.495  18.036  0.00  0.00    +0.000 A 
ATOM     30  C   UNL     1       2.276   7.825  19.240  0.00  0.00    +0.000 A 
ATOM     31  C   UNL     1       1.560   8.245  20.356  0.00  0.00    +0.000 A 
ATOM     32  C   UNL     1       0.697   9.346  20.273  0.00  0.00    +0.000 A 
ENDBRANCH   1  27
TORSDOF 7
ENDMDL
