MODEL 1
REMARK VINA RESULT:      -8.1      0.000      0.000
REMARK  Name = 
REMARK  2 active torsions:
REMARK  status: ('A' for Active; 'I' for Inactive)
REMARK    1  A    between atoms: N_4  and  C_5
REMARK    2  A    between atoms: C_14  and  C_15
REMARK                            x       y       z     vdW  Elec       q    Type
REMARK                         _______ _______ _______ _____ _____    ______ ____
ROOT
ATOM      1  O   UNL     1       7.600   5.622  19.067  0.00  0.00    +0.000 OA
ATOM      2  C   UNL     1       7.804   6.752  18.675  0.00  0.00    +0.000 C 
ATOM      3  N   UNL     1       8.770   7.622  19.146  0.00  0.00    +0.000 N 
ATOM      4  N   UNL     1       8.621   8.906  18.605  0.00  0.00    +0.000 N 
ATOM      5  C   UNL     1       7.630   8.901  17.609  0.00  0.00    +0.000 C 
ATOM      6  O   UNL     1       7.216   9.793  16.888  0.00  0.00    +0.000 OA
ATOM      7  C   UNL     1       7.070   7.518  17.640  0.00  0.00    +0.000 C 
ATOM      8  C   UNL     1       6.014   7.177  16.882  0.00  0.00    +0.000 C 
ATOM      9  H   UNL     1       9.275   7.435  20.001  0.00  0.00    +0.000 HD
ENDROOT
BRANCH   8  10
ATOM     10  C   UNL     1       5.189   5.985  16.975  0.00  0.00    +0.000 A 
ATOM     11  C   UNL     1       5.571   4.797  16.479  0.00  0.00    +0.000 A 
ATOM     12  O   UNL     1       4.871   3.616  16.552  0.00  0.00    +0.000 OA
ATOM     13  C   UNL     1       4.003   3.497  17.604  0.00  0.00    +0.000 A 
ATOM     14  C   UNL     1       3.620   2.209  17.969  0.00  0.00    +0.000 A 
ATOM     15  C   UNL     1       2.966   2.016  19.185  0.00  0.00    +0.000 A 
ATOM     16  C   UNL     1       2.684   3.115  20.002  0.00  0.00    +0.000 A 
ATOM     17 CL   UNL     1       2.079   2.843  21.590  0.00  0.00    +0.000 Cl
ATOM     18  C   UNL     1       2.948   4.417  19.571  0.00  0.00    +0.000 A 
ATOM     19  C   UNL     1       3.603   4.603  18.353  0.00  0.00    +0.000 A 
ATOM     20  C   UNL     1       3.983   5.946  17.859  0.00  0.00    +0.000 A 
ATOM     21  O   UNL     1       3.366   6.948  18.194  0.00  0.00    +0.000 OA
ENDBRANCH   8  10
BRANCH   4  22
ATOM     22  C   UNL     1       9.318  10.037  19.112  0.00  0.00    +0.000 A 
ATOM     23  C   UNL     1       9.163  10.462  20.440  0.00  0.00    +0.000 A 
ATOM     24  C   UNL     1       9.875  11.558  20.942  0.00  0.00    +0.000 A 
ATOM     25  C   UNL     1      10.749  12.259  20.121  0.00  0.00    +0.000 A 
ATOM     26  C   UNL     1      10.913  11.862  18.798  0.00  0.00    +0.000 A 
ATOM     27  C   UNL     1      10.210  10.758  18.300  0.00  0.00    +0.000 A 
ENDBRANCH   4  22
TORSDOF 2
ENDMDL
MODEL 2
REMARK VINA RESULT:      -7.9      6.690      9.280
REMARK  Name = 
REMARK  2 active torsions:
REMARK  status: ('A' for Active; 'I' for Inactive)
REMARK    1  A    between atoms: N_4  and  C_5
REMARK    2  A    between atoms: C_14  and  C_15
REMARK                            x       y       z     vdW  Elec       q    Type
REMARK                         _______ _______ _______ _____ _____    ______ ____
ROOT
ATOM      1  O   UNL     1       1.742  10.076  18.160  0.00  0.00    +0.000 OA
ATOM      2  C   UNL     1       1.988   8.964  18.578  0.00  0.00    +0.000 C 
ATOM      3  N   UNL     1       2.743   7.996  17.942  0.00  0.00    +0.000 N 
ATOM      4  N   UNL     1       2.682   6.765  18.609  0.00  0.00    +0.000 N 
ATOM      5  C   UNL     1       1.999   6.910  19.830  0.00  0.00    +0.000 C 
ATOM      6  O   UNL     1       1.751   6.101  20.708  0.00  0.00    +0.000 OA
ATOM      7  C   UNL     1       1.523   8.324  19.832  0.00  0.00    +0.000 C 
ATOM      8  C   UNL     1       0.732   8.791  20.812  0.00  0.00    +0.000 C 
ATOM      9  H   UNL     1       3.006   8.088  16.970  0.00  0.00    +0.000 HD
ENDROOT
BRANCH   8  10
ATOM     10  C   UNL     1      -0.026  10.030  20.842  0.00  0.00    +0.000 A 
ATOM     11  C   UNL     1      -0.682  10.507  19.772  0.00  0.00    +0.000 A 
ATOM     12  O   UNL     1      -1.448  11.647  19.721  0.00  0.00    +0.000 OA
ATOM     13  C   UNL     1      -2.004  12.050  20.906  0.00  0.00    +0.000 A 
ATOM     14  C   UNL     1      -3.104  12.900  20.835  0.00  0.00    +0.000 A 
ATOM     15  C   UNL     1      -3.866  13.118  21.981  0.00  0.00    +0.000 A 
ATOM     16  C   UNL     1      -3.502  12.503  23.183  0.00  0.00    +0.000 A 
ATOM     17 CL   UNL     1      -4.568  12.601  24.530  0.00  0.00    +0.000 Cl
ATOM     18  C   UNL     1      -2.322  11.761  23.282  0.00  0.00    +0.000 A 
ATOM     19  C   UNL     1      -1.564  11.547  22.130  0.00  0.00    +0.000 A 
ATOM     20  C   UNL     1      -0.341  10.713  22.136  0.00  0.00    +0.000 A 
ATOM     21  O   UNL     1       0.332  10.572  23.148  0.00  0.00    +0.000 OA
ENDBRANCH   8  10
BRANCH   4  22
ATOM     22  C   UNL     1       3.156   5.555  18.034  0.00  0.00    +0.000 A 
ATOM     23  C   UNL     1       4.515   5.365  17.739  0.00  0.00    +0.000 A 
ATOM     24  C   UNL     1       4.981   4.160  17.201  0.00  0.00    +0.000 A 
ATOM     25  C   UNL     1       4.094   3.123  16.935  0.00  0.00    +0.000 A 
ATOM     26  C   UNL     1       2.742   3.292  17.211  0.00  0.00    +0.000 A 
ATOM     27  C   UNL     1       2.278   4.493  17.761  0.00  0.00    +0.000 A 
ENDBRANCH   4  22
TORSDOF 2
ENDMDL
MODEL 3
REMARK VINA RESULT:      -7.7      6.169      9.219
REMARK  Name = 
REMARK  2 active torsions:
REMARK  status: ('A' for Active; 'I' for Inactive)
REMARK    1  A    between atoms: N_4  and  C_5
REMARK    2  A    between atoms: C_14  and  C_15
REMARK                            x       y       z     vdW  Elec       q    Type
REMARK                         _______ _______ _______ _____ _____    ______ ____
ROOT
ATOM      1  O   UNL     1       2.360   8.734  18.427  0.00  0.00    +0.000 OA
ATOM      2  C   UNL     1       2.413   7.651  18.972  0.00  0.00    +0.000 C 
ATOM      3  N   UNL     1       3.034   6.517  18.483  0.00  0.00    +0.000 N 
ATOM      4  N   UNL     1       2.756   5.391  19.271  0.00  0.00    +0.000 N 
ATOM      5  C   UNL     1       2.056   5.771  20.429  0.00  0.00    +0.000 C 
ATOM      6  O   UNL     1       1.651   5.111  21.371  0.00  0.00    +0.000 OA
ATOM      7  C   UNL     1       1.805   7.232  20.257  0.00  0.00    +0.000 C 
ATOM      8  C   UNL     1       1.056   7.918  21.137  0.00  0.00    +0.000 C 
ATOM      9  H   UNL     1       3.348   6.460  17.524  0.00  0.00    +0.000 HD
ENDROOT
BRANCH   8  10
ATOM     10  C   UNL     1       0.499   9.252  20.995  0.00  0.00    +0.000 A 
ATOM     11  C   UNL     1       0.006   9.714  19.834  0.00  0.00    +0.000 A 
ATOM     12  O   UNL     1      -0.569  10.944  19.620  0.00  0.00    +0.000 OA
ATOM     13  C   UNL     1      -1.143  11.537  20.712  0.00  0.00    +0.000 A 
ATOM     14  C   UNL     1      -2.090  12.529  20.473  0.00  0.00    +0.000 A 
ATOM     15  C   UNL     1      -2.893  12.966  21.525  0.00  0.00    +0.000 A 
ATOM     16  C   UNL     1      -2.718  12.425  22.802  0.00  0.00    +0.000 A 
ATOM     17 CL   UNL     1      -3.853  12.809  24.036  0.00  0.00    +0.000 Cl
ATOM     18  C   UNL     1      -1.678  11.530  23.067  0.00  0.00    +0.000 A 
ATOM     19  C   UNL     1      -0.878  11.096  22.008  0.00  0.00    +0.000 A 
ATOM     20  C   UNL     1       0.198  10.097  22.192  0.00  0.00    +0.000 A 
ATOM     21  O   UNL     1       0.763   9.957  23.269  0.00  0.00    +0.000 OA
ENDBRANCH   8  10
BRANCH   4  22
ATOM     22  C   UNL     1       3.060   4.067  18.852  0.00  0.00    +0.000 A 
ATOM     23  C   UNL     1       4.009   3.283  19.526  0.00  0.00    +0.000 A 
ATOM     24  C   UNL     1       4.282   1.969  19.127  0.00  0.00    +0.000 A 
ATOM     25  C   UNL     1       3.620   1.416  18.038  0.00  0.00    +0.000 A 
ATOM     26  C   UNL     1       2.681   2.177  17.350  0.00  0.00    +0.000 A 
ATOM     27  C   UNL     1       2.399   3.487  17.756  0.00  0.00    +0.000 A 
ENDBRANCH   4  22
TORSDOF 2
ENDMDL
MODEL 4
REMARK VINA RESULT:      -7.6      6.765      9.325
REMARK  Name = 
REMARK  2 active torsions:
REMARK  status: ('A' for Active; 'I' for Inactive)
REMARK    1  A    between atoms: N_4  and  C_5
REMARK    2  A    between atoms: C_14  and  C_15
REMARK                            x       y       z     vdW  Elec       q    Type
REMARK                         _______ _______ _______ _____ _____    ______ ____
ROOT
ATOM      1  O   UNL     1       1.798  10.180  17.472  0.00  0.00    +0.000 OA
ATOM      2  C   UNL     1       2.069   9.130  18.018  0.00  0.00    +0.000 C 
ATOM      3  N   UNL     1       2.831   8.104  17.491  0.00  0.00    +0.000 N 
ATOM      4  N   UNL     1       2.802   6.963  18.305  0.00  0.00    +0.000 N 
ATOM      5  C   UNL     1       2.137   7.246  19.511  0.00  0.00    +0.000 C 
ATOM      6  O   UNL     1       1.917   6.547  20.486  0.00  0.00    +0.000 OA
ATOM      7  C   UNL     1       1.637   8.642  19.349  0.00  0.00    +0.000 C 
ATOM      8  C   UNL     1       0.853   9.214  20.280  0.00  0.00    +0.000 C 
ATOM      9  H   UNL     1       3.077   8.080  16.511  0.00  0.00    +0.000 HD
ENDROOT
BRANCH   8  10
ATOM     10  C   UNL     1       0.075  10.435  20.172  0.00  0.00    +0.000 A 
ATOM     11  C   UNL     1      -1.110  10.489  19.541  0.00  0.00    +0.000 A 
ATOM     12  O   UNL     1      -1.925  11.590  19.422  0.00  0.00    +0.000 OA
ATOM     13  C   UNL     1      -1.805  12.535  20.406  0.00  0.00    +0.000 A 
ATOM     14  C   UNL     1      -2.872  13.413  20.577  0.00  0.00    +0.000 A 
ATOM     15  C   UNL     1      -2.920  14.204  21.723  0.00  0.00    +0.000 A 
ATOM     16  C   UNL     1      -1.890  14.124  22.665  0.00  0.00    +0.000 A 
ATOM     17 CL   UNL     1      -2.068  14.936  24.171  0.00  0.00    +0.000 Cl
ATOM     18  C   UNL     1      -0.757  13.343  22.425  0.00  0.00    +0.000 A 
ATOM     19  C   UNL     1      -0.715  12.553  21.276  0.00  0.00    +0.000 A 
ATOM     20  C   UNL     1       0.417  11.645  20.984  0.00  0.00    +0.000 A 
ATOM     21  O   UNL     1       1.540  11.862  21.419  0.00  0.00    +0.000 OA
ENDBRANCH   8  10
BRANCH   4  22
ATOM     22  C   UNL     1       3.287   5.699  17.873  0.00  0.00    +0.000 A 
ATOM     23  C   UNL     1       4.633   5.510  17.520  0.00  0.00    +0.000 A 
ATOM     24  C   UNL     1       5.112   4.257  17.124  0.00  0.00    +0.000 A 
ATOM     25  C   UNL     1       4.252   3.167  17.063  0.00  0.00    +0.000 A 
ATOM     26  C   UNL     1       2.913   3.331  17.400  0.00  0.00    +0.000 A 
ATOM     27  C   UNL     1       2.436   4.583  17.807  0.00  0.00    +0.000 A 
ENDBRANCH   4  22
TORSDOF 2
ENDMDL
MODEL 5
REMARK VINA RESULT:      -7.6      6.104      8.211
REMARK  Name = 
REMARK  2 active torsions:
REMARK  status: ('A' for Active; 'I' for Inactive)
REMARK    1  A    between atoms: N_4  and  C_5
REMARK    2  A    between atoms: C_14  and  C_15
REMARK                            x       y       z     vdW  Elec       q    Type
REMARK                         _______ _______ _______ _____ _____    ______ ____
ROOT
ATOM      1  O   UNL     1       1.485   6.596  20.894  0.00  0.00    +0.000 OA
ATOM      2  C   UNL     1       2.126   6.710  19.869  0.00  0.00    +0.000 C 
ATOM      3  N   UNL     1       3.031   5.796  19.362  0.00  0.00    +0.000 N 
ATOM      4  N   UNL     1       3.729   6.312  18.262  0.00  0.00    +0.000 N 
ATOM      5  C   UNL     1       3.191   7.555  17.886  0.00  0.00    +0.000 C 
ATOM      6  O   UNL     1       3.489   8.314  16.979  0.00  0.00    +0.000 OA
ATOM      7  C   UNL     1       2.157   7.848  18.920  0.00  0.00    +0.000 C 
ATOM      8  C   UNL     1       1.503   9.021  18.939  0.00  0.00    +0.000 C 
ATOM      9  H   UNL     1       3.366   5.022  19.918  0.00  0.00    +0.000 HD
ENDROOT
BRANCH   8  10
ATOM     10  C   UNL     1       0.675   9.573  19.997  0.00  0.00    +0.000 A 
ATOM     11  C   UNL     1       1.126   9.759  21.249  0.00  0.00    +0.000 A 
ATOM     12  O   UNL     1       0.426  10.304  22.299  0.00  0.00    +0.000 OA
ATOM     13  C   UNL     1      -0.581  11.170  21.964  0.00  0.00    +0.000 A 
ATOM     14  C   UNL     1      -1.008  12.058  22.947  0.00  0.00    +0.000 A 
ATOM     15  C   UNL     1      -1.825  13.128  22.585  0.00  0.00    +0.000 A 
ATOM     16  C   UNL     1      -2.221  13.276  21.253  0.00  0.00    +0.000 A 
ATOM     17 CL   UNL     1      -3.041  14.713  20.779  0.00  0.00    +0.000 Cl
ATOM     18  C   UNL     1      -1.902  12.309  20.296  0.00  0.00    +0.000 A 
ATOM     19  C   UNL     1      -1.084  11.242  20.666  0.00  0.00    +0.000 A 
ATOM     20  C   UNL     1      -0.642  10.214  19.696  0.00  0.00    +0.000 A 
ATOM     21  O   UNL     1      -1.303   9.949  18.700  0.00  0.00    +0.000 OA
ENDBRANCH   8  10
BRANCH   4  22
ATOM     22  C   UNL     1       4.882   5.680  17.719  0.00  0.00    +0.000 A 
ATOM     23  C   UNL     1       4.854   5.056  16.463  0.00  0.00    +0.000 A 
ATOM     24  C   UNL     1       5.999   4.462  15.920  0.00  0.00    +0.000 A 
ATOM     25  C   UNL     1       7.195   4.471  16.629  0.00  0.00    +0.000 A 
ATOM     26  C   UNL     1       7.244   5.077  17.880  0.00  0.00    +0.000 A 
ATOM     27  C   UNL     1       6.101   5.681  18.417  0.00  0.00    +0.000 A 
ENDBRANCH   4  22
TORSDOF 2
ENDMDL
MODEL 6
REMARK VINA RESULT:      -7.5      7.313      9.470
REMARK  Name = 
REMARK  2 active torsions:
REMARK  status: ('A' for Active; 'I' for Inactive)
REMARK    1  A    between atoms: N_4  and  C_5
REMARK    2  A    between atoms: C_14  and  C_15
REMARK                            x       y       z     vdW  Elec       q    Type
REMARK                         _______ _______ _______ _____ _____    ______ ____
ROOT
ATOM      1  O   UNL     1       1.495   8.697  22.193  0.00  0.00    +0.000 OA
ATOM      2  C   UNL     1       1.595   8.465  21.006  0.00  0.00    +0.000 C 
ATOM      3  N   UNL     1       2.180   7.350  20.434  0.00  0.00    +0.000 N 
ATOM      4  N   UNL     1       2.291   7.477  19.043  0.00  0.00    +0.000 N 
ATOM      5  C   UNL     1       1.625   8.635  18.607  0.00  0.00    +0.000 C 
ATOM      6  O   UNL     1       1.465   9.093  17.488  0.00  0.00    +0.000 OA
ATOM      7  C   UNL     1       1.174   9.307  19.860  0.00  0.00    +0.000 C 
ATOM      8  C   UNL     1       0.586  10.514  19.831  0.00  0.00    +0.000 C 
ATOM      9  H   UNL     1       2.742   6.712  20.980  0.00  0.00    +0.000 HD
ENDROOT
BRANCH   8  10
ATOM     10  C   UNL     1       0.327  11.415  20.941  0.00  0.00    +0.000 A 
ATOM     11  C   UNL     1       0.840  12.656  21.004  0.00  0.00    +0.000 A 
ATOM     12  O   UNL     1       0.620  13.583  21.995  0.00  0.00    +0.000 OA
ATOM     13  C   UNL     1      -0.559  13.461  22.680  0.00  0.00    +0.000 A 
ATOM     14  C   UNL     1      -1.020  14.587  23.357  0.00  0.00    +0.000 A 
ATOM     15  C   UNL     1      -2.329  14.601  23.835  0.00  0.00    +0.000 A 
ATOM     16  C   UNL     1      -3.146  13.481  23.652  0.00  0.00    +0.000 A 
ATOM     17 CL   UNL     1      -4.817  13.590  24.047  0.00  0.00    +0.000 Cl
ATOM     18  C   UNL     1      -2.638  12.305  23.094  0.00  0.00    +0.000 A 
ATOM     19  C   UNL     1      -1.327  12.299  22.617  0.00  0.00    +0.000 A 
ATOM     20  C   UNL     1      -0.737  11.117  21.949  0.00  0.00    +0.000 A 
ATOM     21  O   UNL     1      -1.134   9.983  22.187  0.00  0.00    +0.000 OA
ENDBRANCH   8  10
BRANCH   4  22
ATOM     22  C   UNL     1       3.076   6.593  18.252  0.00  0.00    +0.000 A 
ATOM     23  C   UNL     1       2.789   5.222  18.179  0.00  0.00    +0.000 A 
ATOM     24  C   UNL     1       3.547   4.362  17.375  0.00  0.00    +0.000 A 
ATOM     25  C   UNL     1       4.614   4.855  16.635  0.00  0.00    +0.000 A 
ATOM     26  C   UNL     1       4.922   6.210  16.697  0.00  0.00    +0.000 A 
ATOM     27  C   UNL     1       4.157   7.072  17.492  0.00  0.00    +0.000 A 
ENDBRANCH   4  22
TORSDOF 2
ENDMDL
MODEL 7
REMARK VINA RESULT:      -7.5      8.324     10.488
REMARK  Name = 
REMARK  2 active torsions:
REMARK  status: ('A' for Active; 'I' for Inactive)
REMARK    1  A    between atoms: N_4  and  C_5
REMARK    2  A    between atoms: C_14  and  C_15
REMARK                            x       y       z     vdW  Elec       q    Type
REMARK                         _______ _______ _______ _____ _____    ______ ____
ROOT
ATOM      1  O   UNL     1       1.165   9.740  23.175  0.00  0.00    +0.000 OA
ATOM      2  C   UNL     1       1.150   9.353  22.025  0.00  0.00    +0.000 C 
ATOM      3  N   UNL     1       1.656   8.154  21.556  0.00  0.00    +0.000 N 
ATOM      4  N   UNL     1       1.641   8.096  20.156  0.00  0.00    +0.000 N 
ATOM      5  C   UNL     1       0.962   9.209  19.632  0.00  0.00    +0.000 C 
ATOM      6  O   UNL     1       0.709   9.522  18.481  0.00  0.00    +0.000 OA
ATOM      7  C   UNL     1       0.643  10.052  20.821  0.00  0.00    +0.000 C 
ATOM      8  C   UNL     1       0.080  11.264  20.684  0.00  0.00    +0.000 C 
ATOM      9  H   UNL     1       2.253   7.574  22.130  0.00  0.00    +0.000 HD
ENDROOT
BRANCH   8  10
ATOM     10  C   UNL     1      -0.056  12.310  21.683  0.00  0.00    +0.000 A 
ATOM     11  C   UNL     1       0.661  13.445  21.649  0.00  0.00    +0.000 A 
ATOM     12  O   UNL     1       0.572  14.497  22.530  0.00  0.00    +0.000 OA
ATOM     13  C   UNL     1      -0.633  14.650  23.162  0.00  0.00    +0.000 A 
ATOM     14  C   UNL     1      -0.915  15.904  23.698  0.00  0.00    +0.000 A 
ATOM     15  C   UNL     1      -2.217  16.190  24.104  0.00  0.00    +0.000 A 
ATOM     16  C   UNL     1      -3.208  15.211  23.991  0.00  0.00    +0.000 A 
ATOM     17 CL   UNL     1      -4.848  15.643  24.286  0.00  0.00    +0.000 Cl
ATOM     18  C   UNL     1      -2.894  13.913  23.580  0.00  0.00    +0.000 A 
ATOM     19  C   UNL     1      -1.588  13.634  23.175  0.00  0.00    +0.000 A 
ATOM     20  C   UNL     1      -1.190  12.305  22.660  0.00  0.00    +0.000 A 
ATOM     21  O   UNL     1      -1.785  11.287  22.989  0.00  0.00    +0.000 OA
ENDBRANCH   8  10
BRANCH   4  22
ATOM     22  C   UNL     1       2.331   7.092  19.422  0.00  0.00    +0.000 A 
ATOM     23  C   UNL     1       3.065   7.400  18.266  0.00  0.00    +0.000 A 
ATOM     24  C   UNL     1       3.767   6.413  17.565  0.00  0.00    +0.000 A 
ATOM     25  C   UNL     1       3.740   5.094  18.001  0.00  0.00    +0.000 A 
ATOM     26  C   UNL     1       3.014   4.763  19.140  0.00  0.00    +0.000 A 
ATOM     27  C   UNL     1       2.322   5.753  19.847  0.00  0.00    +0.000 A 
ENDBRANCH   4  22
TORSDOF 2
ENDMDL
MODEL 8
REMARK VINA RESULT:      -7.4      7.159      9.429
REMARK  Name = 
REMARK  2 active torsions:
REMARK  status: ('A' for Active; 'I' for Inactive)
REMARK    1  A    between atoms: N_4  and  C_5
REMARK    2  A    between atoms: C_14  and  C_15
REMARK                            x       y       z     vdW  Elec       q    Type
REMARK                         _______ _______ _______ _____ _____    ______ ____
ROOT
ATOM      1  O   UNL     1       1.401   8.584  21.878  0.00  0.00    +0.000 OA
ATOM      2  C   UNL     1       1.598   8.337  20.706  0.00  0.00    +0.000 C 
ATOM      3  N   UNL     1       2.116   7.163  20.191  0.00  0.00    +0.000 N 
ATOM      4  N   UNL     1       2.383   7.271  18.819  0.00  0.00    +0.000 N 
ATOM      5  C   UNL     1       1.893   8.492  18.324  0.00  0.00    +0.000 C 
ATOM      6  O   UNL     1       1.899   8.959  17.197  0.00  0.00    +0.000 OA
ATOM      7  C   UNL     1       1.389   9.213  19.529  0.00  0.00    +0.000 C 
ATOM      8  C   UNL     1       0.939  10.477  19.447  0.00  0.00    +0.000 C 
ATOM      9  H   UNL     1       2.547   6.471  20.787  0.00  0.00    +0.000 HD
ENDROOT
BRANCH   8  10
ATOM     10  C   UNL     1       0.665  11.406  20.529  0.00  0.00    +0.000 A 
ATOM     11  C   UNL     1       1.386  12.521  20.730  0.00  0.00    +0.000 A 
ATOM     12  O   UNL     1       1.176  13.469  21.704  0.00  0.00    +0.000 OA
ATOM     13  C   UNL     1      -0.107  13.577  22.169  0.00  0.00    +0.000 A 
ATOM     14  C   UNL     1      -0.456  14.767  22.799  0.00  0.00    +0.000 A 
ATOM     15  C   UNL     1      -1.802  15.035  23.043  0.00  0.00    +0.000 A 
ATOM     16  C   UNL     1      -2.773  14.098  22.677  0.00  0.00    +0.000 A 
ATOM     17 CL   UNL     1      -4.435  14.530  22.781  0.00  0.00    +0.000 Cl
ATOM     18  C   UNL     1      -2.409  12.848  22.169  0.00  0.00    +0.000 A 
ATOM     19  C   UNL     1      -1.060  12.587  21.927  0.00  0.00    +0.000 A 
ATOM     20  C   UNL     1      -0.599  11.316  21.325  0.00  0.00    +0.000 A 
ATOM     21  O   UNL     1      -1.241  10.281  21.445  0.00  0.00    +0.000 OA
ENDBRANCH   8  10
BRANCH   4  22
ATOM     22  C   UNL     1       3.147   6.305  18.108  0.00  0.00    +0.000 A 
ATOM     23  C   UNL     1       4.364   6.638  17.493  0.00  0.00    +0.000 A 
ATOM     24  C   UNL     1       5.126   5.677  16.820  0.00  0.00    +0.000 A 
ATOM     25  C   UNL     1       4.681   4.363  16.739  0.00  0.00    +0.000 A 
ATOM     26  C   UNL     1       3.474   4.011  17.334  0.00  0.00    +0.000 A 
ATOM     27  C   UNL     1       2.717   4.971  18.017  0.00  0.00    +0.000 A 
ENDBRANCH   4  22
TORSDOF 2
ENDMDL
MODEL 9
REMARK VINA RESULT:      -7.4      7.304      9.643
REMARK  Name = 
REMARK  2 active torsions:
REMARK  status: ('A' for Active; 'I' for Inactive)
REMARK    1  A    between atoms: N_4  and  C_5
REMARK    2  A    between atoms: C_14  and  C_15
REMARK                            x       y       z     vdW  Elec       q    Type
REMARK                         _______ _______ _______ _____ _____    ______ ____
ROOT
ATOM      1  O   UNL     1       1.348   8.891  22.011  0.00  0.00    +0.000 OA
ATOM      2  C   UNL     1       1.510   8.569  20.852  0.00  0.00    +0.000 C 
ATOM      3  N   UNL     1       1.933   7.334  20.395  0.00  0.00    +0.000 N 
ATOM      4  N   UNL     1       2.188   7.349  19.017  0.00  0.00    +0.000 N 
ATOM      5  C   UNL     1       1.781   8.576  18.462  0.00  0.00    +0.000 C 
ATOM      6  O   UNL     1       1.805   8.981  17.312  0.00  0.00    +0.000 OA
ATOM      7  C   UNL     1       1.349   9.395  19.632  0.00  0.00    +0.000 C 
ATOM      8  C   UNL     1       0.992  10.682  19.487  0.00  0.00    +0.000 C 
ATOM      9  H   UNL     1       2.321   6.645  21.023  0.00  0.00    +0.000 HD
ENDROOT
BRANCH   8  10
ATOM     10  C   UNL     1       0.802  11.685  20.521  0.00  0.00    +0.000 A 
ATOM     11  C   UNL     1       1.631  12.730  20.680  0.00  0.00    +0.000 A 
ATOM     12  O   UNL     1       1.508  13.739  21.606  0.00  0.00    +0.000 OA
ATOM     13  C   UNL     1       0.238  13.998  22.046  0.00  0.00    +0.000 A 
ATOM     14  C   UNL     1       0.005  15.247  22.615  0.00  0.00    +0.000 A 
ATOM     15  C   UNL     1      -1.310  15.660  22.826  0.00  0.00    +0.000 A 
ATOM     16  C   UNL     1      -2.366  14.809  22.490  0.00  0.00    +0.000 A 
ATOM     17 CL   UNL     1      -3.977  15.411  22.548  0.00  0.00    +0.000 Cl
ATOM     18  C   UNL     1      -2.126  13.506  22.046  0.00  0.00    +0.000 A 
ATOM     19  C   UNL     1      -0.808  13.100  21.836  0.00  0.00    +0.000 A 
ATOM     20  C   UNL     1      -0.472  11.761  21.301  0.00  0.00    +0.000 A 
ATOM     21  O   UNL     1      -1.218  10.803  21.460  0.00  0.00    +0.000 OA
ENDBRANCH   8  10
BRANCH   4  22
ATOM     22  C   UNL     1       2.868   6.294  18.350  0.00  0.00    +0.000 A 
ATOM     23  C   UNL     1       2.256   5.050  18.129  0.00  0.00    +0.000 A 
ATOM     24  C   UNL     1       2.920   4.025  17.445  0.00  0.00    +0.000 A 
ATOM     25  C   UNL     1       4.214   4.218  16.978  0.00  0.00    +0.000 A 
ATOM     26  C   UNL     1       4.843   5.440  17.192  0.00  0.00    +0.000 A 
ATOM     27  C   UNL     1       4.175   6.470  17.866  0.00  0.00    +0.000 A 
ENDBRANCH   4  22
TORSDOF 2
ENDMDL
