MODEL 1
REMARK VINA RESULT:      -7.6      0.000      0.000
REMARK  Name = 
REMARK  5 active torsions:
REMARK  status: ('A' for Active; 'I' for Inactive)
REMARK    1  A    between atoms: C_1  and  O_2
REMARK    2  A    between atoms: O_2  and  C_3
REMARK    3  A    between atoms: C_6  and  C_7
REMARK    4  A    between atoms: C_7  and  C_8
REMARK    5  A    between atoms: N_12  and  C_13
REMARK                            x       y       z     vdW  Elec       q    Type
REMARK                         _______ _______ _______ _____ _____    ______ ____
ROOT
ATOM      1  C   UNL     1       6.861   6.097  17.162  0.00  0.00    +0.000 A 
ATOM      2  N   UNL     1       6.687   7.269  16.592  0.00  0.00    +0.000 NA
ATOM      3  N   UNL     1       7.369   8.267  17.249  0.00  0.00    +0.000 NA
ATOM      4  C   UNL     1       8.042   7.848  18.302  0.00  0.00    +0.000 A 
ATOM      5  N   UNL     1       8.761   8.599  19.176  0.00  0.00    +0.000 N 
ATOM      6  S   UNL     1       7.895   6.138  18.534  0.00  0.00    +0.000 S 
ATOM      7  H   UNL     1       9.124   8.142  20.001  0.00  0.00    +0.000 HD
ENDROOT
BRANCH   5   8
ATOM      8  C   UNL     1       9.156   9.943  19.028  0.00  0.00    +0.000 A 
ATOM      9  C   UNL     1       8.835  10.725  17.910  0.00  0.00    +0.000 A 
ATOM     10  C   UNL     1       9.228  12.062  17.816  0.00  0.00    +0.000 A 
ATOM     11  C   UNL     1       9.940  12.654  18.853  0.00  0.00    +0.000 A 
ATOM     12  C   UNL     1      10.250  11.909  19.985  0.00  0.00    +0.000 A 
ATOM     13  C   UNL     1       9.857  10.567  20.073  0.00  0.00    +0.000 A 
ENDBRANCH   5   8
BRANCH   1  14
ATOM     14  C   UNL     1       6.180   4.838  16.718  0.00  0.00    +0.000 C 
BRANCH  14  18
ATOM     15  C   UNL     1       2.308   4.178  18.562  0.00  0.00    +0.000 A 
ATOM     16  C   UNL     1       2.876   3.207  17.732  0.00  0.00    +0.000 A 
ATOM     17  C   UNL     1       4.124   3.421  17.141  0.00  0.00    +0.000 A 
ATOM     18  C   UNL     1       4.826   4.615  17.356  0.00  0.00    +0.000 A 
ATOM     19  C   UNL     1       4.231   5.611  18.143  0.00  0.00    +0.000 A 
ATOM     20  C   UNL     1       2.981   5.393  18.738  0.00  0.00    +0.000 A 
ATOM     21 BR   UNL     1       2.254   6.785  19.807  0.00  0.00    +0.000 Br
BRANCH  15  23
ATOM     22  C   UNL     1       1.145   3.225  20.380  0.00  0.00    +0.000 C 
ATOM     23  O   UNL     1       1.102   4.009  19.190  0.00  0.00    +0.000 OA
ENDBRANCH  15  23
ENDBRANCH  14  18
ENDBRANCH   1  14
TORSDOF 4
ENDMDL
MODEL 2
REMARK VINA RESULT:      -7.6      1.474      1.780
REMARK  Name = 
REMARK  5 active torsions:
REMARK  status: ('A' for Active; 'I' for Inactive)
REMARK    1  A    between atoms: C_1  and  O_2
REMARK    2  A    between atoms: O_2  and  C_3
REMARK    3  A    between atoms: C_6  and  C_7
REMARK    4  A    between atoms: C_7  and  C_8
REMARK    5  A    between atoms: N_12  and  C_13
REMARK                            x       y       z     vdW  Elec       q    Type
REMARK                         _______ _______ _______ _____ _____    ______ ____
ROOT
ATOM      1  C   UNL     1       6.991   6.046  18.027  0.00  0.00    +0.000 A 
ATOM      2  N   UNL     1       7.974   6.161  18.894  0.00  0.00    +0.000 NA
ATOM      3  N   UNL     1       8.522   7.423  18.885  0.00  0.00    +0.000 NA
ATOM      4  C   UNL     1       7.959   8.242  18.019  0.00  0.00    +0.000 A 
ATOM      5  N   UNL     1       8.314   9.524  17.743  0.00  0.00    +0.000 N 
ATOM      6  S   UNL     1       6.659   7.490  17.157  0.00  0.00    +0.000 S 
ATOM      7  H   UNL     1       7.856   9.982  16.967  0.00  0.00    +0.000 HD
ENDROOT
BRANCH   5   8
ATOM      8  C   UNL     1       9.188  10.348  18.478  0.00  0.00    +0.000 A 
ATOM      9  C   UNL     1       9.156  10.458  19.874  0.00  0.00    +0.000 A 
ATOM     10  C   UNL     1      10.060  11.271  20.564  0.00  0.00    +0.000 A 
ATOM     11  C   UNL     1      11.032  11.981  19.868  0.00  0.00    +0.000 A 
ATOM     12  C   UNL     1      11.102  11.870  18.483  0.00  0.00    +0.000 A 
ATOM     13  C   UNL     1      10.191  11.057  17.795  0.00  0.00    +0.000 A 
ENDBRANCH   5   8
BRANCH   1  14
ATOM     14  C   UNL     1       6.258   4.768  17.755  0.00  0.00    +0.000 C 
BRANCH  14  18
ATOM     15  C   UNL     1       2.771   4.176  20.269  0.00  0.00    +0.000 A 
ATOM     16  C   UNL     1       3.568   3.092  19.890  0.00  0.00    +0.000 A 
ATOM     17  C   UNL     1       4.692   3.284  19.082  0.00  0.00    +0.000 A 
ATOM     18  C   UNL     1       5.036   4.564  18.624  0.00  0.00    +0.000 A 
ATOM     19  C   UNL     1       4.205   5.643  18.958  0.00  0.00    +0.000 A 
ATOM     20  C   UNL     1       3.080   5.447  19.771  0.00  0.00    +0.000 A 
ATOM     21 BR   UNL     1       2.018   6.965  20.193  0.00  0.00    +0.000 Br
BRANCH  15  23
ATOM     22  C   UNL     1       1.461   2.739  21.605  0.00  0.00    +0.000 C 
ATOM     23  O   UNL     1       1.675   4.048  21.082  0.00  0.00    +0.000 OA
ENDBRANCH  15  23
ENDBRANCH  14  18
ENDBRANCH   1  14
TORSDOF 4
ENDMDL
MODEL 3
REMARK VINA RESULT:      -7.6      0.307      1.005
REMARK  Name = 
REMARK  5 active torsions:
REMARK  status: ('A' for Active; 'I' for Inactive)
REMARK    1  A    between atoms: C_1  and  O_2
REMARK    2  A    between atoms: O_2  and  C_3
REMARK    3  A    between atoms: C_6  and  C_7
REMARK    4  A    between atoms: C_7  and  C_8
REMARK    5  A    between atoms: N_12  and  C_13
REMARK                            x       y       z     vdW  Elec       q    Type
REMARK                         _______ _______ _______ _____ _____    ______ ____
ROOT
ATOM      1  C   UNL     1       6.895   6.264  17.175  0.00  0.00    +0.000 A 
ATOM      2  N   UNL     1       6.713   7.466  16.673  0.00  0.00    +0.000 NA
ATOM      3  N   UNL     1       7.411   8.425  17.370  0.00  0.00    +0.000 NA
ATOM      4  C   UNL     1       8.103   7.948  18.385  0.00  0.00    +0.000 A 
ATOM      5  N   UNL     1       8.841   8.648  19.285  0.00  0.00    +0.000 N 
ATOM      6  S   UNL     1       7.955   6.228  18.527  0.00  0.00    +0.000 S 
ATOM      7  H   UNL     1       9.219   8.146  20.076  0.00  0.00    +0.000 HD
ENDROOT
BRANCH   5   8
ATOM      8  C   UNL     1       9.238   9.998  19.202  0.00  0.00    +0.000 A 
ATOM      9  C   UNL     1       9.436  10.815  20.322  0.00  0.00    +0.000 A 
ATOM     10  C   UNL     1       9.853  12.143  20.194  0.00  0.00    +0.000 A 
ATOM     11  C   UNL     1      10.101  12.677  18.935  0.00  0.00    +0.000 A 
ATOM     12  C   UNL     1       9.937  11.879  17.807  0.00  0.00    +0.000 A 
ATOM     13  C   UNL     1       9.514  10.551  17.940  0.00  0.00    +0.000 A 
ENDBRANCH   5   8
BRANCH   1  14
ATOM     14  C   UNL     1       6.201   5.033  16.676  0.00  0.00    +0.000 C 
BRANCH  14  18
ATOM     15  C   UNL     1       2.363   4.285  18.557  0.00  0.00    +0.000 A 
ATOM     16  C   UNL     1       2.962   3.313  17.752  0.00  0.00    +0.000 A 
ATOM     17  C   UNL     1       4.199   3.554  17.148  0.00  0.00    +0.000 A 
ATOM     18  C   UNL     1       4.858   4.779  17.327  0.00  0.00    +0.000 A 
ATOM     19  C   UNL     1       4.230   5.774  18.089  0.00  0.00    +0.000 A 
ATOM     20  C   UNL     1       2.992   5.528  18.696  0.00  0.00    +0.000 A 
ATOM     21 BR   UNL     1       2.219   6.922  19.730  0.00  0.00    +0.000 Br
BRANCH  15  23
ATOM     22  C   UNL     1       1.187   3.114  20.235  0.00  0.00    +0.000 C 
ATOM     23  O   UNL     1       1.165   4.090  19.196  0.00  0.00    +0.000 OA
ENDBRANCH  15  23
ENDBRANCH  14  18
ENDBRANCH   1  14
TORSDOF 4
ENDMDL
MODEL 4
REMARK VINA RESULT:      -7.5      1.285      1.613
REMARK  Name = 
REMARK  5 active torsions:
REMARK  status: ('A' for Active; 'I' for Inactive)
REMARK    1  A    between atoms: C_1  and  O_2
REMARK    2  A    between atoms: O_2  and  C_3
REMARK    3  A    between atoms: C_6  and  C_7
REMARK    4  A    between atoms: C_7  and  C_8
REMARK    5  A    between atoms: N_12  and  C_13
REMARK                            x       y       z     vdW  Elec       q    Type
REMARK                         _______ _______ _______ _____ _____    ______ ____
ROOT
ATOM      1  C   UNL     1       7.014   6.511  17.171  0.00  0.00    +0.000 A 
ATOM      2  N   UNL     1       6.894   7.711  16.646  0.00  0.00    +0.000 NA
ATOM      3  N   UNL     1       7.584   8.658  17.365  0.00  0.00    +0.000 NA
ATOM      4  C   UNL     1       8.211   8.175  18.419  0.00  0.00    +0.000 A 
ATOM      5  N   UNL     1       8.925   8.865  19.346  0.00  0.00    +0.000 N 
ATOM      6  S   UNL     1       8.004   6.462  18.574  0.00  0.00    +0.000 S 
ATOM      7  H   UNL     1       9.248   8.363  20.161  0.00  0.00    +0.000 HD
ENDROOT
BRANCH   5   8
ATOM      8  C   UNL     1       9.366  10.201  19.266  0.00  0.00    +0.000 A 
ATOM      9  C   UNL     1       9.737  10.823  18.067  0.00  0.00    +0.000 A 
ATOM     10  C   UNL     1      10.147  12.158  18.032  0.00  0.00    +0.000 A 
ATOM     11  C   UNL     1      10.174  12.910  19.201  0.00  0.00    +0.000 A 
ATOM     12  C   UNL     1       9.786  12.325  20.402  0.00  0.00    +0.000 A 
ATOM     13  C   UNL     1       9.381  10.984  20.433  0.00  0.00    +0.000 A 
ENDBRANCH   5   8
BRANCH   1  14
ATOM     14  C   UNL     1       6.309   5.294  16.654  0.00  0.00    +0.000 C 
BRANCH  14  18
ATOM     15  C   UNL     1       2.473   4.540  18.538  0.00  0.00    +0.000 A 
ATOM     16  C   UNL     1       2.903   5.848  18.297  0.00  0.00    +0.000 A 
ATOM     17  C   UNL     1       4.138   6.089  17.688  0.00  0.00    +0.000 A 
ATOM     18  C   UNL     1       4.975   5.028  17.319  0.00  0.00    +0.000 A 
ATOM     19  C   UNL     1       4.568   3.718  17.611  0.00  0.00    +0.000 A 
ATOM     20  C   UNL     1       3.328   3.479  18.218  0.00  0.00    +0.000 A 
ATOM     21 BR   UNL     1       2.843   1.674  18.561  0.00  0.00    +0.000 Br
BRANCH  15  23
ATOM     22  C   UNL     1       1.195   4.429  20.518  0.00  0.00    +0.000 C 
ATOM     23  O   UNL     1       1.260   4.246  19.105  0.00  0.00    +0.000 OA
ENDBRANCH  15  23
ENDBRANCH  14  18
ENDBRANCH   1  14
TORSDOF 4
ENDMDL
MODEL 5
REMARK VINA RESULT:      -7.5      1.136      1.150
REMARK  Name = 
REMARK  5 active torsions:
REMARK  status: ('A' for Active; 'I' for Inactive)
REMARK    1  A    between atoms: C_1  and  O_2
REMARK    2  A    between atoms: O_2  and  C_3
REMARK    3  A    between atoms: C_6  and  C_7
REMARK    4  A    between atoms: C_7  and  C_8
REMARK    5  A    between atoms: N_12  and  C_13
REMARK                            x       y       z     vdW  Elec       q    Type
REMARK                         _______ _______ _______ _____ _____    ______ ____
ROOT
ATOM      1  C   UNL     1       7.084   6.195  17.607  0.00  0.00    +0.000 A 
ATOM      2  N   UNL     1       6.920   7.178  16.749  0.00  0.00    +0.000 NA
ATOM      3  N   UNL     1       7.567   8.324  17.150  0.00  0.00    +0.000 NA
ATOM      4  C   UNL     1       8.205   8.202  18.297  0.00  0.00    +0.000 A 
ATOM      5  N   UNL     1       8.884   9.165  18.973  0.00  0.00    +0.000 N 
ATOM      6  S   UNL     1       8.065   6.606  18.957  0.00  0.00    +0.000 S 
ATOM      7  H   UNL     1       9.220   8.942  19.899  0.00  0.00    +0.000 HD
ENDROOT
BRANCH   5   8
ATOM      8  C   UNL     1       9.272  10.433  18.497  0.00  0.00    +0.000 A 
ATOM      9  C   UNL     1       8.376  11.360  17.947  0.00  0.00    +0.000 A 
ATOM     10  C   UNL     1       8.803  12.617  17.509  0.00  0.00    +0.000 A 
ATOM     11  C   UNL     1      10.138  12.981  17.630  0.00  0.00    +0.000 A 
ATOM     12  C   UNL     1      11.044  12.090  18.196  0.00  0.00    +0.000 A 
ATOM     13  C   UNL     1      10.613  10.830  18.629  0.00  0.00    +0.000 A 
ENDBRANCH   5   8
BRANCH   1  14
ATOM     14  C   UNL     1       6.432   4.852  17.480  0.00  0.00    +0.000 C 
BRANCH  14  18
ATOM     15  C   UNL     1       2.980   4.324  20.056  0.00  0.00    +0.000 A 
ATOM     16  C   UNL     1       3.795   3.238  19.727  0.00  0.00    +0.000 A 
ATOM     17  C   UNL     1       4.908   3.410  18.899  0.00  0.00    +0.000 A 
ATOM     18  C   UNL     1       5.221   4.670  18.370  0.00  0.00    +0.000 A 
ATOM     19  C   UNL     1       4.371   5.748  18.655  0.00  0.00    +0.000 A 
ATOM     20  C   UNL     1       3.258   5.574  19.488  0.00  0.00    +0.000 A 
ATOM     21 BR   UNL     1       2.169   7.090  19.841  0.00  0.00    +0.000 Br
BRANCH  15  23
ATOM     22  C   UNL     1       0.861   3.352  20.420  0.00  0.00    +0.000 C 
ATOM     23  O   UNL     1       1.894   4.218  20.885  0.00  0.00    +0.000 OA
ENDBRANCH  15  23
ENDBRANCH  14  18
ENDBRANCH   1  14
TORSDOF 4
ENDMDL
MODEL 6
REMARK VINA RESULT:      -7.4      6.491      8.776
REMARK  Name = 
REMARK  5 active torsions:
REMARK  status: ('A' for Active; 'I' for Inactive)
REMARK    1  A    between atoms: C_1  and  O_2
REMARK    2  A    between atoms: O_2  and  C_3
REMARK    3  A    between atoms: C_6  and  C_7
REMARK    4  A    between atoms: C_7  and  C_8
REMARK    5  A    between atoms: N_12  and  C_13
REMARK                            x       y       z     vdW  Elec       q    Type
REMARK                         _______ _______ _______ _____ _____    ______ ____
ROOT
ATOM      1  C   UNL     1       0.885  10.008  19.157  0.00  0.00    +0.000 A 
ATOM      2  N   UNL     1       1.516   9.610  18.073  0.00  0.00    +0.000 NA
ATOM      3  N   UNL     1       2.129   8.391  18.253  0.00  0.00    +0.000 NA
ATOM      4  C   UNL     1       1.962   7.884  19.458  0.00  0.00    +0.000 A 
ATOM      5  N   UNL     1       2.487   6.732  19.949  0.00  0.00    +0.000 N 
ATOM      6  S   UNL     1       0.984   8.897  20.465  0.00  0.00    +0.000 S 
ATOM      7  H   UNL     1       2.360   6.539  20.933  0.00  0.00    +0.000 HD
ENDROOT
BRANCH   5   8
ATOM      8  C   UNL     1       3.117   5.700  19.226  0.00  0.00    +0.000 A 
ATOM      9  C   UNL     1       4.472   5.374  19.365  0.00  0.00    +0.000 A 
ATOM     10  C   UNL     1       5.050   4.326  18.643  0.00  0.00    +0.000 A 
ATOM     11  C   UNL     1       4.273   3.565  17.776  0.00  0.00    +0.000 A 
ATOM     12  C   UNL     1       2.919   3.851  17.638  0.00  0.00    +0.000 A 
ATOM     13  C   UNL     1       2.346   4.906  18.360  0.00  0.00    +0.000 A 
ENDBRANCH   5   8
BRANCH   1  14
ATOM     14  C   UNL     1       0.195  11.331  19.288  0.00  0.00    +0.000 C 
BRANCH  14  18
ATOM     15  C   UNL     1      -3.814  11.424  17.629  0.00  0.00    +0.000 A 
ATOM     16  C   UNL     1      -3.556  11.952  18.897  0.00  0.00    +0.000 A 
ATOM     17  C   UNL     1      -2.264  11.923  19.429  0.00  0.00    +0.000 A 
ATOM     18  C   UNL     1      -1.204  11.353  18.710  0.00  0.00    +0.000 A 
ATOM     19  C   UNL     1      -1.474  10.774  17.462  0.00  0.00    +0.000 A 
ATOM     20  C   UNL     1      -2.770  10.807  16.929  0.00  0.00    +0.000 A 
ATOM     21 BR   UNL     1      -3.047  10.018  15.223  0.00  0.00    +0.000 Br
BRANCH  15  23
ATOM     22  C   UNL     1      -5.952  12.421  17.585  0.00  0.00    +0.000 C 
ATOM     23  O   UNL     1      -5.055  11.451  17.048  0.00  0.00    +0.000 OA
ENDBRANCH  15  23
ENDBRANCH  14  18
ENDBRANCH   1  14
TORSDOF 4
ENDMDL
MODEL 7
REMARK VINA RESULT:      -7.4      1.295      1.858
REMARK  Name = 
REMARK  5 active torsions:
REMARK  status: ('A' for Active; 'I' for Inactive)
REMARK    1  A    between atoms: C_1  and  O_2
REMARK    2  A    between atoms: O_2  and  C_3
REMARK    3  A    between atoms: C_6  and  C_7
REMARK    4  A    between atoms: C_7  and  C_8
REMARK    5  A    between atoms: N_12  and  C_13
REMARK                            x       y       z     vdW  Elec       q    Type
REMARK                         _______ _______ _______ _____ _____    ______ ____
ROOT
ATOM      1  C   UNL     1       7.019   6.527  17.172  0.00  0.00    +0.000 A 
ATOM      2  N   UNL     1       6.888   7.731  16.659  0.00  0.00    +0.000 NA
ATOM      3  N   UNL     1       7.575   8.676  17.385  0.00  0.00    +0.000 NA
ATOM      4  C   UNL     1       8.208   8.187  18.432  0.00  0.00    +0.000 A 
ATOM      5  N   UNL     1       8.919   8.874  19.364  0.00  0.00    +0.000 N 
ATOM      6  S   UNL     1       8.014   6.472  18.572  0.00  0.00    +0.000 S 
ATOM      7  H   UNL     1       9.249   8.367  20.173  0.00  0.00    +0.000 HD
ENDROOT
BRANCH   5   8
ATOM      8  C   UNL     1       9.351  10.214  19.295  0.00  0.00    +0.000 A 
ATOM      9  C   UNL     1       9.408  11.065  20.407  0.00  0.00    +0.000 A 
ATOM     10  C   UNL     1       9.865  12.381  20.297  0.00  0.00    +0.000 A 
ATOM     11  C   UNL     1      10.295  12.869  19.068  0.00  0.00    +0.000 A 
ATOM     12  C   UNL     1      10.273  12.037  17.954  0.00  0.00    +0.000 A 
ATOM     13  C   UNL     1       9.809  10.721  18.068  0.00  0.00    +0.000 A 
ENDBRANCH   5   8
BRANCH   1  14
ATOM     14  C   UNL     1       6.321   5.310  16.646  0.00  0.00    +0.000 C 
BRANCH  14  18
ATOM     15  C   UNL     1       2.488   4.521  18.521  0.00  0.00    +0.000 A 
ATOM     16  C   UNL     1       2.895   5.832  18.258  0.00  0.00    +0.000 A 
ATOM     17  C   UNL     1       4.129   6.084  17.652  0.00  0.00    +0.000 A 
ATOM     18  C   UNL     1       4.988   5.031  17.308  0.00  0.00    +0.000 A 
ATOM     19  C   UNL     1       4.604   3.720  17.623  0.00  0.00    +0.000 A 
ATOM     20  C   UNL     1       3.365   3.470  18.228  0.00  0.00    +0.000 A 
ATOM     21 BR   UNL     1       2.911   1.663  18.603  0.00  0.00    +0.000 Br
BRANCH  15  23
ATOM     22  C   UNL     1       1.199   4.425  20.495  0.00  0.00    +0.000 C 
ATOM     23  O   UNL     1       1.277   4.215  19.087  0.00  0.00    +0.000 OA
ENDBRANCH  15  23
ENDBRANCH  14  18
ENDBRANCH   1  14
TORSDOF 4
ENDMDL
MODEL 8
REMARK VINA RESULT:      -7.4      1.459      1.791
REMARK  Name = 
REMARK  5 active torsions:
REMARK  status: ('A' for Active; 'I' for Inactive)
REMARK    1  A    between atoms: C_1  and  O_2
REMARK    2  A    between atoms: O_2  and  C_3
REMARK    3  A    between atoms: C_6  and  C_7
REMARK    4  A    between atoms: C_7  and  C_8
REMARK    5  A    between atoms: N_12  and  C_13
REMARK                            x       y       z     vdW  Elec       q    Type
REMARK                         _______ _______ _______ _____ _____    ______ ____
ROOT
ATOM      1  C   UNL     1       7.252   6.111  17.586  0.00  0.00    +0.000 A 
ATOM      2  N   UNL     1       7.097   7.072  16.702  0.00  0.00    +0.000 NA
ATOM      3  N   UNL     1       7.684   8.247  17.113  0.00  0.00    +0.000 NA
ATOM      4  C   UNL     1       8.267   8.168  18.292  0.00  0.00    +0.000 A 
ATOM      5  N   UNL     1       8.877   9.166  18.981  0.00  0.00    +0.000 N 
ATOM      6  S   UNL     1       8.149   6.580  18.974  0.00  0.00    +0.000 S 
ATOM      7  H   UNL     1       9.174   8.972  19.927  0.00  0.00    +0.000 HD
ENDROOT
BRANCH   5   8
ATOM      8  C   UNL     1       9.244  10.439  18.501  0.00  0.00    +0.000 A 
ATOM      9  C   UNL     1       8.327  11.368  17.995  0.00  0.00    +0.000 A 
ATOM     10  C   UNL     1       8.734  12.629  17.550  0.00  0.00    +0.000 A 
ATOM     11  C   UNL     1      10.073  12.995  17.622  0.00  0.00    +0.000 A 
ATOM     12  C   UNL     1      11.001  12.101  18.144  0.00  0.00    +0.000 A 
ATOM     13  C   UNL     1      10.589  10.836  18.583  0.00  0.00    +0.000 A 
ENDBRANCH   5   8
BRANCH   1  14
ATOM     14  C   UNL     1       6.654   4.743  17.452  0.00  0.00    +0.000 C 
BRANCH  14  18
ATOM     15  C   UNL     1       2.788   4.335  19.382  0.00  0.00    +0.000 A 
ATOM     16  C   UNL     1       3.645   5.387  19.719  0.00  0.00    +0.000 A 
ATOM     17  C   UNL     1       4.888   5.519  19.095  0.00  0.00    +0.000 A 
ATOM     18  C   UNL     1       5.308   4.593  18.130  0.00  0.00    +0.000 A 
ATOM     19  C   UNL     1       4.473   3.506  17.833  0.00  0.00    +0.000 A 
ATOM     20  C   UNL     1       3.225   3.379  18.457  0.00  0.00    +0.000 A 
ATOM     21 BR   UNL     1       2.144   1.890  17.983  0.00  0.00    +0.000 Br
BRANCH  15  23
ATOM     22  C   UNL     1       1.544   3.608  21.250  0.00  0.00    +0.000 C 
ATOM     23  O   UNL     1       1.547   4.175  19.941  0.00  0.00    +0.000 OA
ENDBRANCH  15  23
ENDBRANCH  14  18
ENDBRANCH   1  14
TORSDOF 4
ENDMDL
MODEL 9
REMARK VINA RESULT:      -7.4      5.025      7.214
REMARK  Name = 
REMARK  5 active torsions:
REMARK  status: ('A' for Active; 'I' for Inactive)
REMARK    1  A    between atoms: C_1  and  O_2
REMARK    2  A    between atoms: O_2  and  C_3
REMARK    3  A    between atoms: C_6  and  C_7
REMARK    4  A    between atoms: C_7  and  C_8
REMARK    5  A    between atoms: N_12  and  C_13
REMARK                            x       y       z     vdW  Elec       q    Type
REMARK                         _______ _______ _______ _____ _____    ______ ____
ROOT
ATOM      1  C   UNL     1       2.581   5.398  19.449  0.00  0.00    +0.000 A 
ATOM      2  N   UNL     1       2.019   5.416  20.637  0.00  0.00    +0.000 NA
ATOM      3  N   UNL     1       1.534   6.663  20.957  0.00  0.00    +0.000 NA
ATOM      4  C   UNL     1       1.734   7.569  20.021  0.00  0.00    +0.000 A 
ATOM      5  N   UNL     1       1.420   8.890  20.068  0.00  0.00    +0.000 N 
ATOM      6  S   UNL     1       2.532   6.909  18.633  0.00  0.00    +0.000 S 
ATOM      7  H   UNL     1       1.745   9.478  19.313  0.00  0.00    +0.000 HD
ENDROOT
BRANCH   5   8
ATOM      8  C   UNL     1       0.597   9.542  21.007  0.00  0.00    +0.000 A 
ATOM      9  C   UNL     1       0.489   9.147  22.346  0.00  0.00    +0.000 A 
ATOM     10  C   UNL     1      -0.322   9.838  23.249  0.00  0.00    +0.000 A 
ATOM     11  C   UNL     1      -1.032  10.958  22.832  0.00  0.00    +0.000 A 
ATOM     12  C   UNL     1      -0.923  11.388  21.514  0.00  0.00    +0.000 A 
ATOM     13  C   UNL     1      -0.113  10.688  20.611  0.00  0.00    +0.000 A 
ENDBRANCH   5   8
BRANCH   1  14
ATOM     14  C   UNL     1       3.269   4.202  18.864  0.00  0.00    +0.000 C 
BRANCH  14  18
ATOM     15  C   UNL     1       6.401   5.196  16.030  0.00  0.00    +0.000 A 
ATOM     16  C   UNL     1       5.434   4.237  15.715  0.00  0.00    +0.000 A 
ATOM     17  C   UNL     1       4.425   3.920  16.628  0.00  0.00    +0.000 A 
ATOM     18  C   UNL     1       4.368   4.544  17.882  0.00  0.00    +0.000 A 
ATOM     19  C   UNL     1       5.371   5.465  18.219  0.00  0.00    +0.000 A 
ATOM     20  C   UNL     1       6.379   5.784  17.300  0.00  0.00    +0.000 A 
ATOM     21 BR   UNL     1       7.688   7.058  17.828  0.00  0.00    +0.000 Br
BRANCH  15  23
ATOM     22  C   UNL     1       7.325   4.964  13.872  0.00  0.00    +0.000 C 
ATOM     23  O   UNL     1       7.395   5.566  15.162  0.00  0.00    +0.000 OA
ENDBRANCH  15  23
ENDBRANCH  14  18
ENDBRANCH   1  14
TORSDOF 4
ENDMDL
