MODEL 1
REMARK VINA RESULT:      -6.2      0.000      0.000
REMARK  Name = 
REMARK  3 active torsions:
REMARK  status: ('A' for Active; 'I' for Inactive)
REMARK    1  A    between atoms: C_2  and  C_3
REMARK    2  A    between atoms: C_7  and  N_8
REMARK    3  A    between atoms: C_9  and  C_11
REMARK                            x       y       z     vdW  Elec       q    Type
REMARK                         _______ _______ _______ _____ _____    ______ ____
ROOT
ATOM      1  N   UNL     1       2.147   5.576  19.285  0.00  0.00    +0.000 N 
ATOM      2  C   UNL     1       2.769   6.709  18.775  0.00  0.00    +0.000 C 
ATOM      3  O   UNL     1       3.790   6.706  18.094  0.00  0.00    +0.000 OA
ATOM      4  H   UNL     1       1.328   5.734  19.859  0.00  0.00    +0.000 HD
ENDROOT
BRANCH   1   9
ATOM      5  C   UNL     1       3.816   2.395  19.572  0.00  0.00    +0.000 A 
ATOM      6  C   UNL     1       3.386   1.696  18.457  0.00  0.00    +0.000 A 
ATOM      7  C   UNL     1       2.496   2.329  17.594  0.00  0.00    +0.000 A 
ATOM      8  C   UNL     1       2.075   3.632  17.877  0.00  0.00    +0.000 A 
ATOM      9  C   UNL     1       2.557   4.263  19.019  0.00  0.00    +0.000 A 
ATOM     10  N   UNL     1       3.414   3.655  19.851  0.00  0.00    +0.000 NA
BRANCH   5  12
ATOM     11  N   UNL     1       5.446   1.321  21.286  0.00  0.00    +0.000 NA
ATOM     12  C   UNL     1       4.737   1.811  20.506  0.00  0.00    +0.000 C 
ENDBRANCH   5  12
ENDBRANCH   1   9
BRANCH   2  13
ATOM     13  C   UNL     1       2.070   7.946  19.124  0.00  0.00    +0.000 A 
ATOM     14  N   UNL     1       1.550   8.186  20.316  0.00  0.00    +0.000 NA
ATOM     15  C   UNL     1       0.922   9.418  20.283  0.00  0.00    +0.000 A 
ATOM     16 BR   UNL     1       0.041  10.104  21.814  0.00  0.00    +0.000 Br
ATOM     17  C   UNL     1       0.963  10.092  19.083  0.00  0.00    +0.000 A 
ATOM     18  S   UNL     1       1.851   9.177  17.944  0.00  0.00    +0.000 S 
ENDBRANCH   2  13
TORSDOF 3
ENDMDL
MODEL 2
REMARK VINA RESULT:      -6.2      2.254      2.436
REMARK  Name = 
REMARK  3 active torsions:
REMARK  status: ('A' for Active; 'I' for Inactive)
REMARK    1  A    between atoms: C_2  and  C_3
REMARK    2  A    between atoms: C_7  and  N_8
REMARK    3  A    between atoms: C_9  and  C_11
REMARK                            x       y       z     vdW  Elec       q    Type
REMARK                         _______ _______ _______ _____ _____    ______ ____
ROOT
ATOM      1  N   UNL     1       2.569   6.762  19.056  0.00  0.00    +0.000 N 
ATOM      2  C   UNL     1       2.283   7.989  18.471  0.00  0.00    +0.000 C 
ATOM      3  O   UNL     1       2.590   8.315  17.330  0.00  0.00    +0.000 OA
ATOM      4  H   UNL     1       2.282   6.646  20.021  0.00  0.00    +0.000 HD
ENDROOT
BRANCH   1   9
ATOM      5  C   UNL     1       5.083   4.633  17.596  0.00  0.00    +0.000 A 
ATOM      6  C   UNL     1       4.353   3.601  17.032  0.00  0.00    +0.000 A 
ATOM      7  C   UNL     1       2.968   3.633  17.166  0.00  0.00    +0.000 A 
ATOM      8  C   UNL     1       2.369   4.694  17.851  0.00  0.00    +0.000 A 
ATOM      9  C   UNL     1       3.176   5.692  18.388  0.00  0.00    +0.000 A 
ATOM     10  N   UNL     1       4.510   5.662  18.261  0.00  0.00    +0.000 NA
BRANCH   5  12
ATOM     11  N   UNL     1       7.670   4.744  17.397  0.00  0.00    +0.000 NA
ATOM     12  C   UNL     1       6.514   4.672  17.498  0.00  0.00    +0.000 C 
ENDBRANCH   5  12
ENDBRANCH   1   9
BRANCH   2  13
ATOM     13  C   UNL     1       1.549   8.887  19.365  0.00  0.00    +0.000 A 
ATOM     14  N   UNL     1       1.249   8.592  20.619  0.00  0.00    +0.000 NA
ATOM     15  C   UNL     1       0.510   9.634  21.151  0.00  0.00    +0.000 A 
ATOM     16 BR   UNL     1      -0.119   9.570  22.937  0.00  0.00    +0.000 Br
ATOM     17  C   UNL     1       0.253  10.694  20.309  0.00  0.00    +0.000 A 
ATOM     18  S   UNL     1       0.988  10.407  18.792  0.00  0.00    +0.000 S 
ENDBRANCH   2  13
TORSDOF 3
ENDMDL
MODEL 3
REMARK VINA RESULT:      -6.1      4.806      6.134
REMARK  Name = 
REMARK  3 active torsions:
REMARK  status: ('A' for Active; 'I' for Inactive)
REMARK    1  A    between atoms: C_2  and  C_3
REMARK    2  A    between atoms: C_7  and  N_8
REMARK    3  A    between atoms: C_9  and  C_11
REMARK                            x       y       z     vdW  Elec       q    Type
REMARK                         _______ _______ _______ _____ _____    ______ ____
ROOT
ATOM      1  N   UNL     1       4.354   5.353  17.833  0.00  0.00    +0.000 N 
ATOM      2  C   UNL     1       4.266   4.340  16.885  0.00  0.00    +0.000 C 
ATOM      3  O   UNL     1       3.433   3.440  16.891  0.00  0.00    +0.000 OA
ATOM      4  H   UNL     1       5.116   6.010  17.718  0.00  0.00    +0.000 HD
ENDROOT
BRANCH   1   9
ATOM      5  C   UNL     1       2.258   4.687  20.686  0.00  0.00    +0.000 A 
ATOM      6  C   UNL     1       1.618   5.893  20.913  0.00  0.00    +0.000 A 
ATOM      7  C   UNL     1       1.922   6.960  20.073  0.00  0.00    +0.000 A 
ATOM      8  C   UNL     1       2.846   6.779  19.041  0.00  0.00    +0.000 A 
ATOM      9  C   UNL     1       3.444   5.533  18.881  0.00  0.00    +0.000 A 
ATOM     10  N   UNL     1       3.152   4.504  19.690  0.00  0.00    +0.000 NA
BRANCH   5  12
ATOM     11  N   UNL     1       1.816   2.623  22.201  0.00  0.00    +0.000 NA
ATOM     12  C   UNL     1       1.994   3.539  21.508  0.00  0.00    +0.000 C 
ENDBRANCH   5  12
ENDBRANCH   1   9
BRANCH   2  13
ATOM     13  C   UNL     1       5.285   4.451  15.840  0.00  0.00    +0.000 A 
ATOM     14  N   UNL     1       5.166   3.912  14.638  0.00  0.00    +0.000 NA
ATOM     15  C   UNL     1       6.326   4.163  13.926  0.00  0.00    +0.000 A 
ATOM     16 BR   UNL     1       6.536   3.532  12.153  0.00  0.00    +0.000 Br
ATOM     17  C   UNL     1       7.305   4.874  14.585  0.00  0.00    +0.000 A 
ATOM     18  S   UNL     1       6.756   5.284  16.151  0.00  0.00    +0.000 S 
ENDBRANCH   2  13
TORSDOF 3
ENDMDL
MODEL 4
REMARK VINA RESULT:      -6.0      7.953      9.748
REMARK  Name = 
REMARK  3 active torsions:
REMARK  status: ('A' for Active; 'I' for Inactive)
REMARK    1  A    between atoms: C_2  and  C_3
REMARK    2  A    between atoms: C_7  and  N_8
REMARK    3  A    between atoms: C_9  and  C_11
REMARK                            x       y       z     vdW  Elec       q    Type
REMARK                         _______ _______ _______ _____ _____    ______ ____
ROOT
ATOM      1  N   UNL     1       8.865   8.842  18.858  0.00  0.00    +0.000 N 
ATOM      2  C   UNL     1       7.920   8.588  17.871  0.00  0.00    +0.000 C 
ATOM      3  O   UNL     1       7.344   9.445  17.209  0.00  0.00    +0.000 OA
ATOM      4  H   UNL     1       9.233   8.034  19.346  0.00  0.00    +0.000 HD
ENDROOT
BRANCH   1   9
ATOM      5  C   UNL     1      10.367  12.101  18.530  0.00  0.00    +0.000 A 
ATOM      6  C   UNL     1      10.348  12.603  19.819  0.00  0.00    +0.000 A 
ATOM      7  C   UNL     1       9.798  11.808  20.821  0.00  0.00    +0.000 A 
ATOM      8  C   UNL     1       9.295  10.546  20.495  0.00  0.00    +0.000 A 
ATOM      9  C   UNL     1       9.353  10.116  19.173  0.00  0.00    +0.000 A 
ATOM     10  N   UNL     1       9.882  10.881  18.208  0.00  0.00    +0.000 NA
BRANCH   5  12
ATOM     11  N   UNL     1      11.367  13.436  16.539  0.00  0.00    +0.000 NA
ATOM     12  C   UNL     1      10.921  12.860  17.444  0.00  0.00    +0.000 C 
ENDBRANCH   5  12
ENDBRANCH   1   9
BRANCH   2  13
ATOM     13  C   UNL     1       7.672   7.159  17.677  0.00  0.00    +0.000 A 
ATOM     14  N   UNL     1       7.296   6.627  16.526  0.00  0.00    +0.000 NA
ATOM     15  C   UNL     1       7.099   5.270  16.711  0.00  0.00    +0.000 A 
ATOM     16 BR   UNL     1       6.539   4.163  15.280  0.00  0.00    +0.000 Br
ATOM     17  C   UNL     1       7.319   4.789  17.983  0.00  0.00    +0.000 A 
ATOM     18  S   UNL     1       7.825   6.068  18.997  0.00  0.00    +0.000 S 
ENDBRANCH   2  13
TORSDOF 3
ENDMDL
MODEL 5
REMARK VINA RESULT:      -5.8      3.504      4.028
REMARK  Name = 
REMARK  3 active torsions:
REMARK  status: ('A' for Active; 'I' for Inactive)
REMARK    1  A    between atoms: C_2  and  C_3
REMARK    2  A    between atoms: C_7  and  N_8
REMARK    3  A    between atoms: C_9  and  C_11
REMARK                            x       y       z     vdW  Elec       q    Type
REMARK                         _______ _______ _______ _____ _____    ______ ____
ROOT
ATOM      1  N   UNL     1       4.400   6.889  17.794  0.00  0.00    +0.000 N 
ATOM      2  C   UNL     1       3.153   6.484  18.254  0.00  0.00    +0.000 C 
ATOM      3  O   UNL     1       2.722   5.337  18.202  0.00  0.00    +0.000 OA
ATOM      4  H   UNL     1       4.608   7.878  17.873  0.00  0.00    +0.000 HD
ENDROOT
BRANCH   1   9
ATOM      5  C   UNL     1       6.165   4.666  15.576  0.00  0.00    +0.000 A 
ATOM      6  C   UNL     1       7.275   4.283  16.309  0.00  0.00    +0.000 A 
ATOM      7  C   UNL     1       7.425   4.809  17.588  0.00  0.00    +0.000 A 
ATOM      8  C   UNL     1       6.460   5.690  18.085  0.00  0.00    +0.000 A 
ATOM      9  C   UNL     1       5.373   6.022  17.283  0.00  0.00    +0.000 A 
ATOM     10  N   UNL     1       5.228   5.517  16.050  0.00  0.00    +0.000 NA
BRANCH   5  12
ATOM     11  N   UNL     1       5.799   3.773  13.164  0.00  0.00    +0.000 NA
ATOM     12  C   UNL     1       5.940   4.163  14.250  0.00  0.00    +0.000 C 
ENDBRANCH   5  12
ENDBRANCH   1   9
BRANCH   2  13
ATOM     13  C   UNL     1       2.377   7.581  18.834  0.00  0.00    +0.000 A 
ATOM     14  N   UNL     1       1.956   7.601  20.088  0.00  0.00    +0.000 NA
ATOM     15  C   UNL     1       1.213   8.751  20.284  0.00  0.00    +0.000 A 
ATOM     16 BR   UNL     1       0.426   9.127  21.966  0.00  0.00    +0.000 Br
ATOM     17  C   UNL     1       1.071   9.581  19.194  0.00  0.00    +0.000 A 
ATOM     18  S   UNL     1       1.927   8.927  17.865  0.00  0.00    +0.000 S 
ENDBRANCH   2  13
TORSDOF 3
ENDMDL
MODEL 6
REMARK VINA RESULT:      -5.8      4.724      6.042
REMARK  Name = 
REMARK  3 active torsions:
REMARK  status: ('A' for Active; 'I' for Inactive)
REMARK    1  A    between atoms: C_2  and  C_3
REMARK    2  A    between atoms: C_7  and  N_8
REMARK    3  A    between atoms: C_9  and  C_11
REMARK                            x       y       z     vdW  Elec       q    Type
REMARK                         _______ _______ _______ _____ _____    ______ ____
ROOT
ATOM      1  N   UNL     1       3.902   5.253  17.377  0.00  0.00    +0.000 N 
ATOM      2  C   UNL     1       5.265   4.985  17.331  0.00  0.00    +0.000 C 
ATOM      3  O   UNL     1       6.009   4.952  18.305  0.00  0.00    +0.000 OA
ATOM      4  H   UNL     1       3.420   5.281  16.486  0.00  0.00    +0.000 HD
ENDROOT
BRANCH   1   9
ATOM      5  C   UNL     1       2.200   4.578  20.480  0.00  0.00    +0.000 A 
ATOM      6  C   UNL     1       1.702   5.813  20.857  0.00  0.00    +0.000 A 
ATOM      7  C   UNL     1       1.965   6.902  20.031  0.00  0.00    +0.000 A 
ATOM      8  C   UNL     1       2.710   6.714  18.864  0.00  0.00    +0.000 A 
ATOM      9  C   UNL     1       3.174   5.439  18.558  0.00  0.00    +0.000 A 
ATOM     10  N   UNL     1       2.921   4.389  19.352  0.00  0.00    +0.000 NA
BRANCH   5  12
ATOM     11  N   UNL     1       1.752   2.485  21.951  0.00  0.00    +0.000 NA
ATOM     12  C   UNL     1       1.968   3.407  21.278  0.00  0.00    +0.000 C 
ENDBRANCH   5  12
ENDBRANCH   1   9
BRANCH   2  13
ATOM     13  C   UNL     1       5.748   4.728  15.973  0.00  0.00    +0.000 A 
ATOM     14  N   UNL     1       4.995   4.228  15.007  0.00  0.00    +0.000 NA
ATOM     15  C   UNL     1       5.778   4.065  13.879  0.00  0.00    +0.000 A 
ATOM     16 BR   UNL     1       5.049   3.355  12.281  0.00  0.00    +0.000 Br
ATOM     17  C   UNL     1       7.101   4.432  13.995  0.00  0.00    +0.000 A 
ATOM     18  S   UNL     1       7.389   5.040  15.567  0.00  0.00    +0.000 S 
ENDBRANCH   2  13
TORSDOF 3
ENDMDL
MODEL 7
REMARK VINA RESULT:      -5.8      2.512      2.733
REMARK  Name = 
REMARK  3 active torsions:
REMARK  status: ('A' for Active; 'I' for Inactive)
REMARK    1  A    between atoms: C_2  and  C_3
REMARK    2  A    between atoms: C_7  and  N_8
REMARK    3  A    between atoms: C_9  and  C_11
REMARK                            x       y       z     vdW  Elec       q    Type
REMARK                         _______ _______ _______ _____ _____    ______ ____
ROOT
ATOM      1  N   UNL     1       2.577   6.835  19.059  0.00  0.00    +0.000 N 
ATOM      2  C   UNL     1       2.258   8.047  18.459  0.00  0.00    +0.000 C 
ATOM      3  O   UNL     1       2.519   8.349  17.300  0.00  0.00    +0.000 OA
ATOM      4  H   UNL     1       2.327   6.739  20.036  0.00  0.00    +0.000 HD
ENDROOT
BRANCH   1   9
ATOM      5  C   UNL     1       5.055   4.684  17.571  0.00  0.00    +0.000 A 
ATOM      6  C   UNL     1       4.311   3.645  17.038  0.00  0.00    +0.000 A 
ATOM      7  C   UNL     1       2.930   3.681  17.202  0.00  0.00    +0.000 A 
ATOM      8  C   UNL     1       2.348   4.751  17.887  0.00  0.00    +0.000 A 
ATOM      9  C   UNL     1       3.168   5.755  18.392  0.00  0.00    +0.000 A 
ATOM     10  N   UNL     1       4.499   5.722  18.234  0.00  0.00    +0.000 NA
BRANCH   5  12
ATOM     11  N   UNL     1       7.643   4.704  17.349  0.00  0.00    +0.000 NA
ATOM     12  C   UNL     1       6.484   4.719  17.440  0.00  0.00    +0.000 C 
ENDBRANCH   5  12
ENDBRANCH   1   9
BRANCH   2  13
ATOM     13  C   UNL     1       1.551   8.958  19.360  0.00  0.00    +0.000 A 
ATOM     14  N   UNL     1       1.158  10.174  19.017  0.00  0.00    +0.000 NA
ATOM     15  C   UNL     1       0.574  10.774  20.118  0.00  0.00    +0.000 A 
ATOM     16 BR   UNL     1      -0.104  12.541  20.019  0.00  0.00    +0.000 Br
ATOM     17  C   UNL     1       0.532  10.025  21.273  0.00  0.00    +0.000 A 
ATOM     18  S   UNL     1       1.219   8.487  20.980  0.00  0.00    +0.000 S 
ENDBRANCH   2  13
TORSDOF 3
ENDMDL
MODEL 8
REMARK VINA RESULT:      -5.8      4.702      6.321
REMARK  Name = 
REMARK  3 active torsions:
REMARK  status: ('A' for Active; 'I' for Inactive)
REMARK    1  A    between atoms: C_2  and  C_3
REMARK    2  A    between atoms: C_7  and  N_8
REMARK    3  A    between atoms: C_9  and  C_11
REMARK                            x       y       z     vdW  Elec       q    Type
REMARK                         _______ _______ _______ _____ _____    ______ ____
ROOT
ATOM      1  N   UNL     1       3.707   4.702  17.287  0.00  0.00    +0.000 N 
ATOM      2  C   UNL     1       5.086   4.546  17.358  0.00  0.00    +0.000 C 
ATOM      3  O   UNL     1       5.731   4.437  18.395  0.00  0.00    +0.000 OA
ATOM      4  H   UNL     1       3.315   4.813  16.359  0.00  0.00    +0.000 HD
ENDROOT
BRANCH   1   9
ATOM      5  C   UNL     1       1.773   5.762  20.136  0.00  0.00    +0.000 A 
ATOM      6  C   UNL     1       1.201   4.590  20.600  0.00  0.00    +0.000 A 
ATOM      7  C   UNL     1       1.479   3.413  19.912  0.00  0.00    +0.000 A 
ATOM      8  C   UNL     1       2.317   3.452  18.794  0.00  0.00    +0.000 A 
ATOM      9  C   UNL     1       2.852   4.673  18.395  0.00  0.00    +0.000 A 
ATOM     10  N   UNL     1       2.585   5.808  19.056  0.00  0.00    +0.000 NA
BRANCH   5  12
ATOM     11  N   UNL     1       1.360   8.053  21.289  0.00  0.00    +0.000 NA
ATOM     12  C   UNL     1       1.537   7.016  20.794  0.00  0.00    +0.000 C 
ENDBRANCH   5  12
ENDBRANCH   1   9
BRANCH   2  13
ATOM     13  C   UNL     1       5.722   4.510  16.040  0.00  0.00    +0.000 A 
ATOM     14  N   UNL     1       5.192   3.917  14.983  0.00  0.00    +0.000 NA
ATOM     15  C   UNL     1       6.077   4.027  13.926  0.00  0.00    +0.000 A 
ATOM     16 BR   UNL     1       5.670   3.282  12.233  0.00  0.00    +0.000 Br
ATOM     17  C   UNL     1       7.258   4.689  14.184  0.00  0.00    +0.000 A 
ATOM     18  S   UNL     1       7.264   5.232  15.805  0.00  0.00    +0.000 S 
ENDBRANCH   2  13
TORSDOF 3
ENDMDL
MODEL 9
REMARK VINA RESULT:      -5.8      2.061      2.848
REMARK  Name = 
REMARK  3 active torsions:
REMARK  status: ('A' for Active; 'I' for Inactive)
REMARK    1  A    between atoms: C_2  and  C_3
REMARK    2  A    between atoms: C_7  and  N_8
REMARK    3  A    between atoms: C_9  and  C_11
REMARK                            x       y       z     vdW  Elec       q    Type
REMARK                         _______ _______ _______ _____ _____    ______ ____
ROOT
ATOM      1  N   UNL     1       2.481   7.475  18.888  0.00  0.00    +0.000 N 
ATOM      2  C   UNL     1       1.929   8.639  18.367  0.00  0.00    +0.000 C 
ATOM      3  O   UNL     1       2.072   9.032  17.214  0.00  0.00    +0.000 OA
ATOM      4  H   UNL     1       2.305   7.295  19.870  0.00  0.00    +0.000 HD
ENDROOT
BRANCH   1   9
ATOM      5  C   UNL     1       3.633   4.351  17.512  0.00  0.00    +0.000 A 
ATOM      6  C   UNL     1       4.687   4.721  16.694  0.00  0.00    +0.000 A 
ATOM      7  C   UNL     1       5.001   6.074  16.607  0.00  0.00    +0.000 A 
ATOM      8  C   UNL     1       4.255   7.000  17.341  0.00  0.00    +0.000 A 
ATOM      9  C   UNL     1       3.212   6.544  18.140  0.00  0.00    +0.000 A 
ATOM     10  N   UNL     1       2.908   5.242  18.225  0.00  0.00    +0.000 NA
BRANCH   5  12
ATOM     11  N   UNL     1       2.959   1.852  17.731  0.00  0.00    +0.000 NA
ATOM     12  C   UNL     1       3.251   2.975  17.656  0.00  0.00    +0.000 C 
ENDBRANCH   5  12
ENDBRANCH   1   9
BRANCH   2  13
ATOM     13  C   UNL     1       1.125   9.374  19.345  0.00  0.00    +0.000 A 
ATOM     14  N   UNL     1       1.009   9.022  20.615  0.00  0.00    +0.000 NA
ATOM     15  C   UNL     1       0.138   9.899  21.237  0.00  0.00    +0.000 A 
ATOM     16 BR   UNL     1      -0.293   9.707  23.071  0.00  0.00    +0.000 Br
ATOM     17  C   UNL     1      -0.397  10.892  20.446  0.00  0.00    +0.000 A 
ATOM     18  S   UNL     1       0.230  10.759  18.861  0.00  0.00    +0.000 S 
ENDBRANCH   2  13
TORSDOF 3
ENDMDL
