MODEL 1
REMARK VINA RESULT:      -8.0      0.000      0.000
REMARK  Name = 
REMARK  8 active torsions:
REMARK  status: ('A' for Active; 'I' for Inactive)
REMARK    1  A    between atoms: C_1  and  C_2
REMARK    2  A    between atoms: C_4  and  N_5
REMARK    3  A    between atoms: C_6  and  C_8
REMARK    4  A    between atoms: C_8  and  C_9
REMARK    5  A    between atoms: C_9  and  C_10
REMARK    6  A    between atoms: C_9  and  C_11
REMARK    7  A    between atoms: N_14  and  C_15
REMARK    8  A    between atoms: C_15  and  C_16
REMARK                            x       y       z     vdW  Elec       q    Type
REMARK                         _______ _______ _______ _____ _____    ______ ____
ROOT
ATOM      1  C   UNL     1       5.483   5.415  14.793  0.00  0.00    +0.000 C 
ATOM      2  C   UNL     1       5.836   5.430  16.252  0.00  0.00    +0.000 A 
ATOM      3  C   UNL     1       6.811   6.395  16.706  0.00  0.00    +0.000 A 
ATOM      4  C   UNL     1       7.241   6.421  17.976  0.00  0.00    +0.000 A 
ATOM      5  C   UNL     1       6.670   5.417  18.955  0.00  0.00    +0.000 A 
ATOM      6  O   UNL     1       7.095   5.409  20.110  0.00  0.00    +0.000 OA
ATOM      7  N   UNL     1       5.687   4.560  18.463  0.00  0.00    +0.000 N 
ATOM      8  C   UNL     1       5.296   4.576  17.134  0.00  0.00    +0.000 A 
ENDROOT
BRANCH   4   9
ATOM      9  N   UNL     1       8.171   7.314  18.479  0.00  0.00    +0.000 N 
ATOM     10  C   UNL     1       8.181   8.677  18.263  0.00  0.00    +0.000 C 
ATOM     11  O   UNL     1       7.414   9.265  17.499  0.00  0.00    +0.000 OA
ATOM     12  H   UNL     1       8.996   6.877  18.888  0.00  0.00    +0.000 HD
BRANCH  10  13
ATOM     13  C   UNL     1       9.277   9.417  19.004  0.00  0.00    +0.000 C 
BRANCH  13  14
ATOM     14  C   UNL     1       9.217  10.931  18.730  0.00  0.00    +0.000 C 
ATOM     15  C   UNL     1       9.319  11.739  20.030  0.00  0.00    +0.000 C 
ATOM     16  C   UNL     1      10.324  11.360  17.769  0.00  0.00    +0.000 C 
ENDBRANCH  13  14
ENDBRANCH  10  13
ENDBRANCH   4   9
BRANCH   7  17
ATOM     17  C   UNL     1       5.117   3.549  19.359  0.00  0.00    +0.000 C 
BRANCH  17  18
ATOM     18  C   UNL     1       3.638   3.746  19.584  0.00  0.00    +0.000 A 
ATOM     19  C   UNL     1       3.148   4.934  20.147  0.00  0.00    +0.000 A 
ATOM     20  C   UNL     1       1.787   5.076  20.429  0.00  0.00    +0.000 A 
ATOM     21  C   UNL     1       0.900   4.036  20.153  0.00  0.00    +0.000 A 
ATOM     22  C   UNL     1       1.371   2.861  19.569  0.00  0.00    +0.000 A 
ATOM     23  C   UNL     1       2.729   2.728  19.288  0.00  0.00    +0.000 A 
ATOM     24  F   UNL     1       3.160   1.588  18.728  0.00  0.00    +0.000 F 
ENDBRANCH  17  18
ENDBRANCH   7  17
TORSDOF 5
ENDMDL
MODEL 2
REMARK VINA RESULT:      -7.9      3.409      5.920
REMARK  Name = 
REMARK  8 active torsions:
REMARK  status: ('A' for Active; 'I' for Inactive)
REMARK    1  A    between atoms: C_1  and  C_2
REMARK    2  A    between atoms: C_4  and  N_5
REMARK    3  A    between atoms: C_6  and  C_8
REMARK    4  A    between atoms: C_8  and  C_9
REMARK    5  A    between atoms: C_9  and  C_10
REMARK    6  A    between atoms: C_9  and  C_11
REMARK    7  A    between atoms: N_14  and  C_15
REMARK    8  A    between atoms: C_15  and  C_16
REMARK                            x       y       z     vdW  Elec       q    Type
REMARK                         _______ _______ _______ _____ _____    ______ ____
ROOT
ATOM      1  C   UNL     1       7.934   5.766  19.469  0.00  0.00    +0.000 C 
ATOM      2  C   UNL     1       6.818   5.167  18.663  0.00  0.00    +0.000 A 
ATOM      3  C   UNL     1       7.120   4.692  17.332  0.00  0.00    +0.000 A 
ATOM      4  C   UNL     1       6.166   4.219  16.518  0.00  0.00    +0.000 A 
ATOM      5  C   UNL     1       4.739   4.170  17.024  0.00  0.00    +0.000 A 
ATOM      6  O   UNL     1       3.854   3.777  16.263  0.00  0.00    +0.000 OA
ATOM      7  N   UNL     1       4.533   4.582  18.339  0.00  0.00    +0.000 N 
ATOM      8  C   UNL     1       5.563   5.075  19.125  0.00  0.00    +0.000 A 
ENDROOT
BRANCH   4   9
ATOM      9  N   UNL     1       6.382   3.749  15.234  0.00  0.00    +0.000 N 
ATOM     10  C   UNL     1       6.404   4.514  14.086  0.00  0.00    +0.000 C 
ATOM     11  O   UNL     1       6.127   5.713  14.045  0.00  0.00    +0.000 OA
ATOM     12  H   UNL     1       6.341   2.734  15.145  0.00  0.00    +0.000 HD
BRANCH  10  13
ATOM     13  C   UNL     1       6.742   3.739  12.827  0.00  0.00    +0.000 C 
BRANCH  13  14
ATOM     14  C   UNL     1       5.565   2.853  12.380  0.00  0.00    +0.000 C 
ATOM     15  C   UNL     1       4.496   3.670  11.645  0.00  0.00    +0.000 C 
ATOM     16  C   UNL     1       6.046   1.711  11.486  0.00  0.00    +0.000 C 
ENDBRANCH  13  14
ENDBRANCH  10  13
ENDBRANCH   4   9
BRANCH   7  17
ATOM     17  C   UNL     1       3.168   4.582  18.875  0.00  0.00    +0.000 C 
BRANCH  17  18
ATOM     18  C   UNL     1       2.606   5.975  19.021  0.00  0.00    +0.000 A 
ATOM     19  C   UNL     1       2.610   6.869  17.940  0.00  0.00    +0.000 A 
ATOM     20  C   UNL     1       2.164   8.183  18.105  0.00  0.00    +0.000 A 
ATOM     21  C   UNL     1       1.710   8.620  19.349  0.00  0.00    +0.000 A 
ATOM     22  C   UNL     1       1.677   7.732  20.424  0.00  0.00    +0.000 A 
ATOM     23  C   UNL     1       2.120   6.423  20.251  0.00  0.00    +0.000 A 
ATOM     24  F   UNL     1       2.080   5.588  21.300  0.00  0.00    +0.000 F 
ENDBRANCH  17  18
ENDBRANCH   7  17
TORSDOF 5
ENDMDL
MODEL 3
REMARK VINA RESULT:      -7.8      2.499      5.399
REMARK  Name = 
REMARK  8 active torsions:
REMARK  status: ('A' for Active; 'I' for Inactive)
REMARK    1  A    between atoms: C_1  and  C_2
REMARK    2  A    between atoms: C_4  and  N_5
REMARK    3  A    between atoms: C_6  and  C_8
REMARK    4  A    between atoms: C_8  and  C_9
REMARK    5  A    between atoms: C_9  and  C_10
REMARK    6  A    between atoms: C_9  and  C_11
REMARK    7  A    between atoms: N_14  and  C_15
REMARK    8  A    between atoms: C_15  and  C_16
REMARK                            x       y       z     vdW  Elec       q    Type
REMARK                         _______ _______ _______ _____ _____    ______ ____
ROOT
ATOM      1  C   UNL     1       7.809   7.958  17.786  0.00  0.00    +0.000 C 
ATOM      2  C   UNL     1       7.166   6.644  17.452  0.00  0.00    +0.000 A 
ATOM      3  C   UNL     1       7.065   6.269  16.061  0.00  0.00    +0.000 A 
ATOM      4  C   UNL     1       6.433   5.152  15.674  0.00  0.00    +0.000 A 
ATOM      5  C   UNL     1       5.828   4.257  16.734  0.00  0.00    +0.000 A 
ATOM      6  O   UNL     1       5.209   3.253  16.380  0.00  0.00    +0.000 OA
ATOM      7  N   UNL     1       6.021   4.646  18.058  0.00  0.00    +0.000 N 
ATOM      8  C   UNL     1       6.673   5.823  18.392  0.00  0.00    +0.000 A 
ENDROOT
BRANCH   4   9
ATOM      9  N   UNL     1       6.298   4.733  14.361  0.00  0.00    +0.000 N 
ATOM     10  C   UNL     1       7.228   4.907  13.357  0.00  0.00    +0.000 C 
ATOM     11  O   UNL     1       8.267   5.559  13.478  0.00  0.00    +0.000 OA
ATOM     12  H   UNL     1       5.356   4.436  14.109  0.00  0.00    +0.000 HD
BRANCH  10  13
ATOM     13  C   UNL     1       6.843   4.276  12.034  0.00  0.00    +0.000 C 
BRANCH  13  14
ATOM     14  C   UNL     1       5.861   3.107  12.233  0.00  0.00    +0.000 C 
ATOM     15  C   UNL     1       4.470   3.445  11.685  0.00  0.00    +0.000 C 
ATOM     16  C   UNL     1       6.382   1.833  11.569  0.00  0.00    +0.000 C 
ENDBRANCH  13  14
ENDBRANCH  10  13
ENDBRANCH   4   9
BRANCH   7  17
ATOM     17  C   UNL     1       5.434   3.833  19.128  0.00  0.00    +0.000 C 
BRANCH  17  18
ATOM     18  C   UNL     1       3.972   4.136  19.347  0.00  0.00    +0.000 A 
ATOM     19  C   UNL     1       3.556   5.412  19.753  0.00  0.00    +0.000 A 
ATOM     20  C   UNL     1       2.210   5.663  20.034  0.00  0.00    +0.000 A 
ATOM     21  C   UNL     1       1.265   4.644  19.913  0.00  0.00    +0.000 A 
ATOM     22  C   UNL     1       1.664   3.379  19.484  0.00  0.00    +0.000 A 
ATOM     23  C   UNL     1       3.007   3.137  19.203  0.00  0.00    +0.000 A 
ATOM     24  F   UNL     1       3.367   1.912  18.793  0.00  0.00    +0.000 F 
ENDBRANCH  17  18
ENDBRANCH   7  17
TORSDOF 5
ENDMDL
MODEL 4
REMARK VINA RESULT:      -7.6      3.465      5.493
REMARK  Name = 
REMARK  8 active torsions:
REMARK  status: ('A' for Active; 'I' for Inactive)
REMARK    1  A    between atoms: C_1  and  C_2
REMARK    2  A    between atoms: C_4  and  N_5
REMARK    3  A    between atoms: C_6  and  C_8
REMARK    4  A    between atoms: C_8  and  C_9
REMARK    5  A    between atoms: C_9  and  C_10
REMARK    6  A    between atoms: C_9  and  C_11
REMARK    7  A    between atoms: N_14  and  C_15
REMARK    8  A    between atoms: C_15  and  C_16
REMARK                            x       y       z     vdW  Elec       q    Type
REMARK                         _______ _______ _______ _____ _____    ______ ____
ROOT
ATOM      1  C   UNL     1       4.191   8.130  17.330  0.00  0.00    +0.000 C 
ATOM      2  C   UNL     1       4.581   6.698  17.107  0.00  0.00    +0.000 A 
ATOM      3  C   UNL     1       4.947   6.294  15.769  0.00  0.00    +0.000 A 
ATOM      4  C   UNL     1       5.229   5.018  15.469  0.00  0.00    +0.000 A 
ATOM      5  C   UNL     1       5.176   3.984  16.575  0.00  0.00    +0.000 A 
ATOM      6  O   UNL     1       5.391   2.805  16.294  0.00  0.00    +0.000 OA
ATOM      7  N   UNL     1       4.879   4.457  17.852  0.00  0.00    +0.000 N 
ATOM      8  C   UNL     1       4.583   5.789  18.093  0.00  0.00    +0.000 A 
ENDROOT
BRANCH   4   9
ATOM      9  N   UNL     1       5.587   4.561  14.213  0.00  0.00    +0.000 N 
ATOM     10  C   UNL     1       6.828   4.694  13.627  0.00  0.00    +0.000 C 
ATOM     11  O   UNL     1       7.760   5.337  14.112  0.00  0.00    +0.000 OA
ATOM     12  H   UNL     1       4.801   4.266  13.633  0.00  0.00    +0.000 HD
BRANCH  10  13
ATOM     13  C   UNL     1       6.953   4.027  12.271  0.00  0.00    +0.000 C 
BRANCH  13  14
ATOM     14  C   UNL     1       5.958   2.861  12.124  0.00  0.00    +0.000 C 
ATOM     15  C   UNL     1       4.640   3.326  11.495  0.00  0.00    +0.000 C 
ATOM     16  C   UNL     1       6.557   1.729  11.290  0.00  0.00    +0.000 C 
ENDBRANCH  13  14
ENDBRANCH  10  13
ENDBRANCH   4   9
BRANCH   7  17
ATOM     17  C   UNL     1       4.786   3.498  18.957  0.00  0.00    +0.000 C 
BRANCH  17  18
ATOM     18  C   UNL     1       3.373   3.332  19.459  0.00  0.00    +0.000 A 
ATOM     19  C   UNL     1       2.945   3.976  20.629  0.00  0.00    +0.000 A 
ATOM     20  C   UNL     1       1.661   3.753  21.133  0.00  0.00    +0.000 A 
ATOM     21  C   UNL     1       0.791   2.883  20.476  0.00  0.00    +0.000 A 
ATOM     22  C   UNL     1       1.196   2.258  19.298  0.00  0.00    +0.000 A 
ATOM     23  C   UNL     1       2.476   2.488  18.800  0.00  0.00    +0.000 A 
ATOM     24  F   UNL     1       2.844   1.874  17.666  0.00  0.00    +0.000 F 
ENDBRANCH  17  18
ENDBRANCH   7  17
TORSDOF 5
ENDMDL
MODEL 5
REMARK VINA RESULT:      -7.4      5.876      8.625
REMARK  Name = 
REMARK  8 active torsions:
REMARK  status: ('A' for Active; 'I' for Inactive)
REMARK    1  A    between atoms: C_1  and  C_2
REMARK    2  A    between atoms: C_4  and  N_5
REMARK    3  A    between atoms: C_6  and  C_8
REMARK    4  A    between atoms: C_8  and  C_9
REMARK    5  A    between atoms: C_9  and  C_10
REMARK    6  A    between atoms: C_9  and  C_11
REMARK    7  A    between atoms: N_14  and  C_15
REMARK    8  A    between atoms: C_15  and  C_16
REMARK                            x       y       z     vdW  Elec       q    Type
REMARK                         _______ _______ _______ _____ _____    ______ ____
ROOT
ATOM      1  C   UNL     1      -0.100   9.537  23.367  0.00  0.00    +0.000 C 
ATOM      2  C   UNL     1       0.298   9.404  21.925  0.00  0.00    +0.000 A 
ATOM      3  C   UNL     1       1.164   8.307  21.557  0.00  0.00    +0.000 A 
ATOM      4  C   UNL     1       1.630   8.164  20.309  0.00  0.00    +0.000 A 
ATOM      5  C   UNL     1       1.217   9.175  19.260  0.00  0.00    +0.000 A 
ATOM      6  O   UNL     1       1.679   9.072  18.123  0.00  0.00    +0.000 OA
ATOM      7  N   UNL     1       0.329  10.168  19.671  0.00  0.00    +0.000 N 
ATOM      8  C   UNL     1      -0.105  10.269  20.983  0.00  0.00    +0.000 A 
ENDROOT
BRANCH   4   9
ATOM      9  N   UNL     1       2.461   7.140  19.887  0.00  0.00    +0.000 N 
ATOM     10  C   UNL     1       2.240   5.791  20.071  0.00  0.00    +0.000 C 
ATOM     11  O   UNL     1       1.314   5.324  20.736  0.00  0.00    +0.000 OA
ATOM     12  H   UNL     1       3.383   7.448  19.577  0.00  0.00    +0.000 HD
BRANCH  10  13
ATOM     13  C   UNL     1       3.284   4.895  19.434  0.00  0.00    +0.000 C 
BRANCH  13  14
ATOM     14  C   UNL     1       2.633   3.710  18.697  0.00  0.00    +0.000 C 
ATOM     15  C   UNL     1       1.742   4.189  17.545  0.00  0.00    +0.000 C 
ATOM     16  C   UNL     1       3.692   2.747  18.164  0.00  0.00    +0.000 C 
ENDBRANCH  13  14
ENDBRANCH  10  13
ENDBRANCH   4   9
BRANCH   7  17
ATOM     17  C   UNL     1      -0.084  11.191  18.705  0.00  0.00    +0.000 C 
BRANCH  17  18
ATOM     18  C   UNL     1      -1.544  11.084  18.341  0.00  0.00    +0.000 A 
ATOM     19  C   UNL     1      -2.498  11.922  18.939  0.00  0.00    +0.000 A 
ATOM     20  C   UNL     1      -3.858  11.762  18.660  0.00  0.00    +0.000 A 
ATOM     21  C   UNL     1      -4.281  10.765  17.781  0.00  0.00    +0.000 A 
ATOM     22  C   UNL     1      -3.341   9.944  17.160  0.00  0.00    +0.000 A 
ATOM     23  C   UNL     1      -1.987  10.112  17.442  0.00  0.00    +0.000 A 
ATOM     24  F   UNL     1      -1.100   9.309  16.834  0.00  0.00    +0.000 F 
ENDBRANCH  17  18
ENDBRANCH   7  17
TORSDOF 5
ENDMDL
MODEL 6
REMARK VINA RESULT:      -7.4      1.004      1.431
REMARK  Name = 
REMARK  8 active torsions:
REMARK  status: ('A' for Active; 'I' for Inactive)
REMARK    1  A    between atoms: C_1  and  C_2
REMARK    2  A    between atoms: C_4  and  N_5
REMARK    3  A    between atoms: C_6  and  C_8
REMARK    4  A    between atoms: C_8  and  C_9
REMARK    5  A    between atoms: C_9  and  C_10
REMARK    6  A    between atoms: C_9  and  C_11
REMARK    7  A    between atoms: N_14  and  C_15
REMARK    8  A    between atoms: C_15  and  C_16
REMARK                            x       y       z     vdW  Elec       q    Type
REMARK                         _______ _______ _______ _____ _____    ______ ____
ROOT
ATOM      1  C   UNL     1       5.415   5.466  14.923  0.00  0.00    +0.000 C 
ATOM      2  C   UNL     1       5.834   5.469  16.364  0.00  0.00    +0.000 A 
ATOM      3  C   UNL     1       6.815   6.443  16.786  0.00  0.00    +0.000 A 
ATOM      4  C   UNL     1       7.302   6.460  18.034  0.00  0.00    +0.000 A 
ATOM      5  C   UNL     1       6.790   5.437  19.026  0.00  0.00    +0.000 A 
ATOM      6  O   UNL     1       7.268   5.422  20.161  0.00  0.00    +0.000 OA
ATOM      7  N   UNL     1       5.798   4.572  18.569  0.00  0.00    +0.000 N 
ATOM      8  C   UNL     1       5.347   4.597  17.259  0.00  0.00    +0.000 A 
ENDROOT
BRANCH   4   9
ATOM      9  N   UNL     1       8.240   7.362  18.505  0.00  0.00    +0.000 N 
ATOM     10  C   UNL     1       8.234   8.724  18.287  0.00  0.00    +0.000 C 
ATOM     11  O   UNL     1       7.438   9.305  17.547  0.00  0.00    +0.000 OA
ATOM     12  H   UNL     1       9.082   6.932  18.888  0.00  0.00    +0.000 HD
BRANCH  10  13
ATOM     13  C   UNL     1       9.347   9.474  18.991  0.00  0.00    +0.000 C 
BRANCH  13  14
ATOM     14  C   UNL     1       9.068  10.987  19.032  0.00  0.00    +0.000 C 
ATOM     15  C   UNL     1       9.397  11.580  20.407  0.00  0.00    +0.000 C 
ATOM     16  C   UNL     1       9.860  11.722  17.951  0.00  0.00    +0.000 C 
ENDBRANCH  13  14
ENDBRANCH  10  13
ENDBRANCH   4   9
BRANCH   7  17
ATOM     17  C   UNL     1       5.284   3.542  19.477  0.00  0.00    +0.000 C 
BRANCH  17  18
ATOM     18  C   UNL     1       3.784   3.404  19.402  0.00  0.00    +0.000 A 
ATOM     19  C   UNL     1       3.193   2.259  18.848  0.00  0.00    +0.000 A 
ATOM     20  C   UNL     1       1.805   2.173  18.706  0.00  0.00    +0.000 A 
ATOM     21  C   UNL     1       0.992   3.230  19.116  0.00  0.00    +0.000 A 
ATOM     22  C   UNL     1       1.565   4.362  19.693  0.00  0.00    +0.000 A 
ATOM     23  C   UNL     1       2.949   4.437  19.833  0.00  0.00    +0.000 A 
ATOM     24  F   UNL     1       3.479   5.537  20.390  0.00  0.00    +0.000 F 
ENDBRANCH  17  18
ENDBRANCH   7  17
TORSDOF 5
ENDMDL
MODEL 7
REMARK VINA RESULT:      -7.4      6.046      8.615
REMARK  Name = 
REMARK  8 active torsions:
REMARK  status: ('A' for Active; 'I' for Inactive)
REMARK    1  A    between atoms: C_1  and  C_2
REMARK    2  A    between atoms: C_4  and  N_5
REMARK    3  A    between atoms: C_6  and  C_8
REMARK    4  A    between atoms: C_8  and  C_9
REMARK    5  A    between atoms: C_9  and  C_10
REMARK    6  A    between atoms: C_9  and  C_11
REMARK    7  A    between atoms: N_14  and  C_15
REMARK    8  A    between atoms: C_15  and  C_16
REMARK                            x       y       z     vdW  Elec       q    Type
REMARK                         _______ _______ _______ _____ _____    ______ ____
ROOT
ATOM      1  C   UNL     1      -0.141   9.577  23.331  0.00  0.00    +0.000 C 
ATOM      2  C   UNL     1       0.305   9.360  21.915  0.00  0.00    +0.000 A 
ATOM      3  C   UNL     1       1.170   8.235  21.638  0.00  0.00    +0.000 A 
ATOM      4  C   UNL     1       1.678   8.018  20.417  0.00  0.00    +0.000 A 
ATOM      5  C   UNL     1       1.315   8.974  19.300  0.00  0.00    +0.000 A 
ATOM      6  O   UNL     1       1.815   8.803  18.188  0.00  0.00    +0.000 OA
ATOM      7  N   UNL     1       0.425   9.997  19.624  0.00  0.00    +0.000 N 
ATOM      8  C   UNL     1      -0.054  10.175  20.912  0.00  0.00    +0.000 A 
ENDROOT
BRANCH   4   9
ATOM      9  N   UNL     1       2.510   6.965  20.082  0.00  0.00    +0.000 N 
ATOM     10  C   UNL     1       2.196   5.625  20.176  0.00  0.00    +0.000 C 
ATOM     11  O   UNL     1       1.159   5.188  20.676  0.00  0.00    +0.000 OA
ATOM     12  H   UNL     1       3.483   7.230  19.927  0.00  0.00    +0.000 HD
BRANCH  10  13
ATOM     13  C   UNL     1       3.278   4.693  19.665  0.00  0.00    +0.000 C 
BRANCH  13  14
ATOM     14  C   UNL     1       3.168   4.485  18.144  0.00  0.00    +0.000 C 
ATOM     15  C   UNL     1       1.704   4.404  17.694  0.00  0.00    +0.000 C 
ATOM     16  C   UNL     1       3.879   5.603  17.383  0.00  0.00    +0.000 C 
ENDBRANCH  13  14
ENDBRANCH  10  13
ENDBRANCH   4   9
BRANCH   7  17
ATOM     17  C   UNL     1       0.059  10.970  18.589  0.00  0.00    +0.000 C 
BRANCH  17  18
ATOM     18  C   UNL     1      -1.378  10.831  18.150  0.00  0.00    +0.000 A 
ATOM     19  C   UNL     1      -1.745   9.892  17.175  0.00  0.00    +0.000 A 
ATOM     20  C   UNL     1      -3.062   9.825  16.713  0.00  0.00    +0.000 A 
ATOM     21  C   UNL     1      -4.028  10.695  17.220  0.00  0.00    +0.000 A 
ATOM     22  C   UNL     1      -3.681  11.614  18.209  0.00  0.00    +0.000 A 
ATOM     23  C   UNL     1      -2.367  11.672  18.666  0.00  0.00    +0.000 A 
ATOM     24  F   UNL     1      -2.056  12.565  19.617  0.00  0.00    +0.000 F 
ENDBRANCH  17  18
ENDBRANCH   7  17
TORSDOF 5
ENDMDL
MODEL 8
REMARK VINA RESULT:      -7.4      3.226      5.568
REMARK  Name = 
REMARK  8 active torsions:
REMARK  status: ('A' for Active; 'I' for Inactive)
REMARK    1  A    between atoms: C_1  and  C_2
REMARK    2  A    between atoms: C_4  and  N_5
REMARK    3  A    between atoms: C_6  and  C_8
REMARK    4  A    between atoms: C_8  and  C_9
REMARK    5  A    between atoms: C_9  and  C_10
REMARK    6  A    between atoms: C_9  and  C_11
REMARK    7  A    between atoms: N_14  and  C_15
REMARK    8  A    between atoms: C_15  and  C_16
REMARK                            x       y       z     vdW  Elec       q    Type
REMARK                         _______ _______ _______ _____ _____    ______ ____
ROOT
ATOM      1  C   UNL     1       7.897   5.755  19.357  0.00  0.00    +0.000 C 
ATOM      2  C   UNL     1       6.793   5.297  18.450  0.00  0.00    +0.000 A 
ATOM      3  C   UNL     1       7.154   4.656  17.207  0.00  0.00    +0.000 A 
ATOM      4  C   UNL     1       6.232   4.292  16.305  0.00  0.00    +0.000 A 
ATOM      5  C   UNL     1       4.772   4.548  16.617  0.00  0.00    +0.000 A 
ATOM      6  O   UNL     1       3.926   4.256  15.772  0.00  0.00    +0.000 OA
ATOM      7  N   UNL     1       4.493   5.110  17.861  0.00  0.00    +0.000 N 
ATOM      8  C   UNL     1       5.496   5.477  18.744  0.00  0.00    +0.000 A 
ENDROOT
BRANCH   4   9
ATOM      9  N   UNL     1       6.507   3.675  15.097  0.00  0.00    +0.000 N 
ATOM     10  C   UNL     1       6.850   4.313  13.923  0.00  0.00    +0.000 C 
ATOM     11  O   UNL     1       6.855   5.536  13.773  0.00  0.00    +0.000 OA
ATOM     12  H   UNL     1       6.253   2.688  15.061  0.00  0.00    +0.000 HD
BRANCH  10  13
ATOM     13  C   UNL     1       7.171   3.376  12.775  0.00  0.00    +0.000 C 
BRANCH  13  14
ATOM     14  C   UNL     1       5.963   3.205  11.836  0.00  0.00    +0.000 C 
ATOM     15  C   UNL     1       5.840   1.759  11.340  0.00  0.00    +0.000 C 
ATOM     16  C   UNL     1       4.666   3.624  12.526  0.00  0.00    +0.000 C 
ENDBRANCH  13  14
ENDBRANCH  10  13
ENDBRANCH   4   9
BRANCH   7  17
ATOM     17  C   UNL     1       3.099   5.407  18.207  0.00  0.00    +0.000 C 
BRANCH  17  18
ATOM     18  C   UNL     1       2.536   4.436  19.215  0.00  0.00    +0.000 A 
ATOM     19  C   UNL     1       2.557   4.730  20.586  0.00  0.00    +0.000 A 
ATOM     20  C   UNL     1       2.110   3.791  21.520  0.00  0.00    +0.000 A 
ATOM     21  C   UNL     1       1.637   2.550  21.096  0.00  0.00    +0.000 A 
ATOM     22  C   UNL     1       1.586   2.256  19.734  0.00  0.00    +0.000 A 
ATOM     23  C   UNL     1       2.031   3.199  18.810  0.00  0.00    +0.000 A 
ATOM     24  F   UNL     1       1.975   2.894  17.505  0.00  0.00    +0.000 F 
ENDBRANCH  17  18
ENDBRANCH   7  17
TORSDOF 5
ENDMDL
MODEL 9
REMARK VINA RESULT:      -7.4      2.618      5.705
REMARK  Name = 
REMARK  8 active torsions:
REMARK  status: ('A' for Active; 'I' for Inactive)
REMARK    1  A    between atoms: C_1  and  C_2
REMARK    2  A    between atoms: C_4  and  N_5
REMARK    3  A    between atoms: C_6  and  C_8
REMARK    4  A    between atoms: C_8  and  C_9
REMARK    5  A    between atoms: C_9  and  C_10
REMARK    6  A    between atoms: C_9  and  C_11
REMARK    7  A    between atoms: N_14  and  C_15
REMARK    8  A    between atoms: C_15  and  C_16
REMARK                            x       y       z     vdW  Elec       q    Type
REMARK                         _______ _______ _______ _____ _____    ______ ____
ROOT
ATOM      1  C   UNL     1       7.959   7.279  18.357  0.00  0.00    +0.000 C 
ATOM      2  C   UNL     1       7.017   6.205  17.894  0.00  0.00    +0.000 A 
ATOM      3  C   UNL     1       6.667   6.164  16.493  0.00  0.00    +0.000 A 
ATOM      4  C   UNL     1       5.772   5.290  16.014  0.00  0.00    +0.000 A 
ATOM      5  C   UNL     1       5.128   4.311  16.974  0.00  0.00    +0.000 A 
ATOM      6  O   UNL     1       4.272   3.537  16.545  0.00  0.00    +0.000 OA
ATOM      7  N   UNL     1       5.561   4.365  18.297  0.00  0.00    +0.000 N 
ATOM      8  C   UNL     1       6.482   5.305  18.732  0.00  0.00    +0.000 A 
ENDROOT
BRANCH   4   9
ATOM      9  N   UNL     1       5.390   5.195  14.687  0.00  0.00    +0.000 N 
ATOM     10  C   UNL     1       5.771   4.205  13.805  0.00  0.00    +0.000 C 
ATOM     11  O   UNL     1       6.593   3.325  14.062  0.00  0.00    +0.000 OA
ATOM     12  H   UNL     1       4.938   6.031  14.318  0.00  0.00    +0.000 HD
BRANCH  10  13
ATOM     13  C   UNL     1       5.135   4.314  12.432  0.00  0.00    +0.000 C 
BRANCH  13  14
ATOM     14  C   UNL     1       4.598   2.954  11.952  0.00  0.00    +0.000 C 
ATOM     15  C   UNL     1       3.495   3.127  10.901  0.00  0.00    +0.000 C 
ATOM     16  C   UNL     1       5.722   2.090  11.381  0.00  0.00    +0.000 C 
ENDBRANCH  13  14
ENDBRANCH  10  13
ENDBRANCH   4   9
BRANCH   7  17
ATOM     17  C   UNL     1       4.953   3.460  19.278  0.00  0.00    +0.000 C 
BRANCH  17  18
ATOM     18  C   UNL     1       3.533   3.843  19.613  0.00  0.00    +0.000 A 
ATOM     19  C   UNL     1       3.226   5.130  20.080  0.00  0.00    +0.000 A 
ATOM     20  C   UNL     1       1.922   5.452  20.467  0.00  0.00    +0.000 A 
ATOM     21  C   UNL     1       0.911   4.495  20.392  0.00  0.00    +0.000 A 
ATOM     22  C   UNL     1       1.198   3.221  19.904  0.00  0.00    +0.000 A 
ATOM     23  C   UNL     1       2.500   2.908  19.518  0.00  0.00    +0.000 A 
ATOM     24  F   UNL     1       2.753   1.676  19.053  0.00  0.00    +0.000 F 
ENDBRANCH  17  18
ENDBRANCH   7  17
TORSDOF 5
ENDMDL
