MODEL 1
REMARK VINA RESULT:      -8.9      0.000      0.000
REMARK  Name = 
REMARK  8 active torsions:
REMARK  status: ('A' for Active; 'I' for Inactive)
REMARK    1  A    between atoms: C_1  and  O_2
REMARK    2  A    between atoms: O_2  and  C_3
REMARK    3  A    between atoms: C_6  and  C_7
REMARK    4  A    between atoms: C_13  and  C_14
REMARK    5  A    between atoms: C_20  and  C_21
REMARK    6  A    between atoms: C_21  and  C_22
REMARK    7  A    between atoms: C_30  and  O_31
REMARK    8  A    between atoms: O_31  and  C_32
REMARK                            x       y       z     vdW  Elec       q    Type
REMARK                         _______ _______ _______ _____ _____    ______ ____
ROOT
ATOM      1  C   UNL     1       3.162   7.026  18.482  0.00  0.00    +0.000 A 
ATOM      2  N   UNL     1       2.735   8.272  18.085  0.00  0.00    +0.000 NA
ATOM      3  C   UNL     1       1.951   8.715  19.044  0.00  0.00    +0.000 A 
ATOM      4  C   UNL     1       1.209   9.922  19.188  0.00  0.00    +0.000 A 
ATOM      5 CL   UNL     1       1.253  11.087  17.919  0.00  0.00    +0.000 Cl
ATOM      6  C   UNL     1       0.475  10.143  20.296  0.00  0.00    +0.000 A 
ATOM      7  C   UNL     1       0.407   9.163  21.380  0.00  0.00    +0.000 A 
ATOM      8  C   UNL     1       1.102   8.016  21.235  0.00  0.00    +0.000 A 
ATOM      9  N   UNL     1       1.867   7.796  20.086  0.00  0.00    +0.000 N 
ATOM     10  C   UNL     1       2.652   6.708  19.738  0.00  0.00    +0.000 A 
ENDROOT
BRANCH   1  14
ATOM     11  C   UNL     1       5.712   4.659  15.968  0.00  0.00    +0.000 A 
ATOM     12  C   UNL     1       4.415   4.244  16.294  0.00  0.00    +0.000 A 
ATOM     13  C   UNL     1       3.581   5.033  17.095  0.00  0.00    +0.000 A 
ATOM     14  C   UNL     1       4.035   6.233  17.632  0.00  0.00    +0.000 A 
ATOM     15  C   UNL     1       5.361   6.595  17.375  0.00  0.00    +0.000 A 
ATOM     16  C   UNL     1       6.208   5.834  16.556  0.00  0.00    +0.000 A 
BRANCH  11  18
ATOM     17  C   UNL     1       6.090   3.937  13.748  0.00  0.00    +0.000 C 
ATOM     18  O   UNL     1       6.503   3.933  15.116  0.00  0.00    +0.000 OA
ENDBRANCH  11  18
BRANCH  16  19
ATOM     19  O   UNL     1       7.437   6.427  16.455  0.00  0.00    +0.000 OA
ATOM     20  C   UNL     1       7.807   7.461  17.346  0.00  0.00    +0.000 C 
ENDBRANCH  16  19
ENDBRANCH   1  14
BRANCH   7  21
ATOM     21  C   UNL     1      -0.423   9.462  22.598  0.00  0.00    +0.000 C 
ATOM     22  F   UNL     1       0.323   9.625  23.719  0.00  0.00    +0.000 F 
ATOM     23  F   UNL     1      -1.148  10.598  22.438  0.00  0.00    +0.000 F 
ATOM     24  F   UNL     1      -1.304   8.463  22.853  0.00  0.00    +0.000 F 
ENDBRANCH   7  21
BRANCH  10  25
ATOM     25  C   UNL     1       2.840   5.524  20.636  0.00  0.00    +0.000 C 
BRANCH  25  26
ATOM     26  C   UNL     1       2.324   4.197  20.103  0.00  0.00    +0.000 A 
ATOM     27  C   UNL     1       0.961   3.905  19.936  0.00  0.00    +0.000 A 
ATOM     28  C   UNL     1       0.547   2.714  19.336  0.00  0.00    +0.000 A 
ATOM     29  C   UNL     1       1.490   1.781  18.909  0.00  0.00    +0.000 A 
ATOM     30  C   UNL     1       2.843   2.038  19.102  0.00  0.00    +0.000 A 
ATOM     31 CL   UNL     1       4.010   0.880  18.591  0.00  0.00    +0.000 Cl
ATOM     32  C   UNL     1       3.262   3.232  19.691  0.00  0.00    +0.000 A 
ENDBRANCH  25  26
ENDBRANCH  10  25
TORSDOF 6
ENDMDL
MODEL 2
REMARK VINA RESULT:      -7.8      1.170      1.329
REMARK  Name = 
REMARK  8 active torsions:
REMARK  status: ('A' for Active; 'I' for Inactive)
REMARK    1  A    between atoms: C_1  and  O_2
REMARK    2  A    between atoms: O_2  and  C_3
REMARK    3  A    between atoms: C_6  and  C_7
REMARK    4  A    between atoms: C_13  and  C_14
REMARK    5  A    between atoms: C_20  and  C_21
REMARK    6  A    between atoms: C_21  and  C_22
REMARK    7  A    between atoms: C_30  and  O_31
REMARK    8  A    between atoms: O_31  and  C_32
REMARK                            x       y       z     vdW  Elec       q    Type
REMARK                         _______ _______ _______ _____ _____    ______ ____
ROOT
ATOM      1  C   UNL     1       2.558   7.285  18.974  0.00  0.00    +0.000 A 
ATOM      2  N   UNL     1       2.426   8.536  18.417  0.00  0.00    +0.000 NA
ATOM      3  C   UNL     1       1.646   9.219  19.226  0.00  0.00    +0.000 A 
ATOM      4  C   UNL     1       1.142  10.550  19.167  0.00  0.00    +0.000 A 
ATOM      5 CL   UNL     1       1.546  11.538  17.814  0.00  0.00    +0.000 Cl
ATOM      6  C   UNL     1       0.351  11.023  20.149  0.00  0.00    +0.000 A 
ATOM      7  C   UNL     1      -0.022  10.200  21.300  0.00  0.00    +0.000 A 
ATOM      8  C   UNL     1       0.448   8.937  21.346  0.00  0.00    +0.000 A 
ATOM      9  N   UNL     1       1.275   8.454  20.327  0.00  0.00    +0.000 N 
ATOM     10  C   UNL     1       1.865   7.209  20.179  0.00  0.00    +0.000 A 
ENDROOT
BRANCH   1  14
ATOM     11  C   UNL     1       4.852   4.234  17.012  0.00  0.00    +0.000 A 
ATOM     12  C   UNL     1       3.463   4.323  16.853  0.00  0.00    +0.000 A 
ATOM     13  C   UNL     1       2.725   5.335  17.478  0.00  0.00    +0.000 A 
ATOM     14  C   UNL     1       3.345   6.256  18.316  0.00  0.00    +0.000 A 
ATOM     15  C   UNL     1       4.717   6.105  18.540  0.00  0.00    +0.000 A 
ATOM     16  C   UNL     1       5.482   5.114  17.907  0.00  0.00    +0.000 A 
BRANCH  11  18
ATOM     17  C   UNL     1       6.181   3.751  15.117  0.00  0.00    +0.000 C 
ATOM     18  O   UNL     1       5.591   3.298  16.338  0.00  0.00    +0.000 OA
ENDBRANCH  11  18
BRANCH  16  19
ATOM     19  O   UNL     1       6.794   5.207  18.285  0.00  0.00    +0.000 OA
ATOM     20  C   UNL     1       7.521   6.398  18.058  0.00  0.00    +0.000 C 
ENDBRANCH  16  19
ENDBRANCH   1  14
BRANCH   7  21
ATOM     21  C   UNL     1      -0.902  10.781  22.372  0.00  0.00    +0.000 C 
ATOM     22  F   UNL     1      -1.183   9.897  23.362  0.00  0.00    +0.000 F 
ATOM     23  F   UNL     1      -0.325  11.860  22.958  0.00  0.00    +0.000 F 
ATOM     24  F   UNL     1      -2.090  11.194  21.864  0.00  0.00    +0.000 F 
ENDBRANCH   7  21
BRANCH  10  25
ATOM     25  C   UNL     1       1.722   6.118  21.197  0.00  0.00    +0.000 C 
BRANCH  25  26
ATOM     26  C   UNL     1       1.774   4.697  20.659  0.00  0.00    +0.000 A 
ATOM     27  C   UNL     1       0.690   4.069  20.024  0.00  0.00    +0.000 A 
ATOM     28  C   UNL     1       0.828   2.804  19.447  0.00  0.00    +0.000 A 
ATOM     29  C   UNL     1       2.047   2.134  19.515  0.00  0.00    +0.000 A 
ATOM     30  C   UNL     1       3.119   2.725  20.174  0.00  0.00    +0.000 A 
ATOM     31 CL   UNL     1       4.622   1.892  20.273  0.00  0.00    +0.000 Cl
ATOM     32  C   UNL     1       2.990   3.995  20.741  0.00  0.00    +0.000 A 
ENDBRANCH  25  26
ENDBRANCH  10  25
TORSDOF 6
ENDMDL
MODEL 3
REMARK VINA RESULT:      -7.8      0.797      1.192
REMARK  Name = 
REMARK  8 active torsions:
REMARK  status: ('A' for Active; 'I' for Inactive)
REMARK    1  A    between atoms: C_1  and  O_2
REMARK    2  A    between atoms: O_2  and  C_3
REMARK    3  A    between atoms: C_6  and  C_7
REMARK    4  A    between atoms: C_13  and  C_14
REMARK    5  A    between atoms: C_20  and  C_21
REMARK    6  A    between atoms: C_21  and  C_22
REMARK    7  A    between atoms: C_30  and  O_31
REMARK    8  A    between atoms: O_31  and  C_32
REMARK                            x       y       z     vdW  Elec       q    Type
REMARK                         _______ _______ _______ _____ _____    ______ ____
ROOT
ATOM      1  C   UNL     1       3.226   7.072  18.398  0.00  0.00    +0.000 A 
ATOM      2  N   UNL     1       2.722   8.280  17.975  0.00  0.00    +0.000 NA
ATOM      3  C   UNL     1       1.934   8.707  18.938  0.00  0.00    +0.000 A 
ATOM      4  C   UNL     1       1.128   9.875  19.063  0.00  0.00    +0.000 A 
ATOM      5 CL   UNL     1       1.079  11.001  17.759  0.00  0.00    +0.000 Cl
ATOM      6  C   UNL     1       0.406  10.089  20.180  0.00  0.00    +0.000 A 
ATOM      7  C   UNL     1       0.417   9.141  21.294  0.00  0.00    +0.000 A 
ATOM      8  C   UNL     1       1.172   8.031  21.167  0.00  0.00    +0.000 A 
ATOM      9  N   UNL     1       1.924   7.819  20.008  0.00  0.00    +0.000 N 
ATOM     10  C   UNL     1       2.761   6.766  19.674  0.00  0.00    +0.000 A 
ENDROOT
BRANCH   1  14
ATOM     11  C   UNL     1       5.851   4.776  15.896  0.00  0.00    +0.000 A 
ATOM     12  C   UNL     1       4.544   4.353  16.170  0.00  0.00    +0.000 A 
ATOM     13  C   UNL     1       3.686   5.119  16.969  0.00  0.00    +0.000 A 
ATOM     14  C   UNL     1       4.124   6.303  17.553  0.00  0.00    +0.000 A 
ATOM     15  C   UNL     1       5.457   6.672  17.346  0.00  0.00    +0.000 A 
ATOM     16  C   UNL     1       6.328   5.934  16.532  0.00  0.00    +0.000 A 
BRANCH  11  18
ATOM     17  C   UNL     1       6.242   4.037  13.683  0.00  0.00    +0.000 C 
ATOM     18  O   UNL     1       6.667   4.074  15.048  0.00  0.00    +0.000 OA
ENDBRANCH  11  18
BRANCH  16  19
ATOM     19  O   UNL     1       7.560   6.528  16.484  0.00  0.00    +0.000 OA
ATOM     20  C   UNL     1       7.859   7.621  17.330  0.00  0.00    +0.000 C 
ENDBRANCH  16  19
ENDBRANCH   1  14
BRANCH   7  21
ATOM     21  C   UNL     1      -0.402   9.432  22.521  0.00  0.00    +0.000 C 
ATOM     22  F   UNL     1       0.356   9.641  23.626  0.00  0.00    +0.000 F 
ATOM     23  F   UNL     1      -1.172  10.536  22.355  0.00  0.00    +0.000 F 
ATOM     24  F   UNL     1      -1.241   8.405  22.808  0.00  0.00    +0.000 F 
ENDBRANCH   7  21
BRANCH  10  25
ATOM     25  C   UNL     1       3.035   5.622  20.603  0.00  0.00    +0.000 C 
BRANCH  25  26
ATOM     26  C   UNL     1       3.042   4.240  19.971  0.00  0.00    +0.000 A 
ATOM     27  C   UNL     1       4.187   3.431  19.886  0.00  0.00    +0.000 A 
ATOM     28  C   UNL     1       4.111   2.124  19.398  0.00  0.00    +0.000 A 
ATOM     29  C   UNL     1       2.892   1.609  18.965  0.00  0.00    +0.000 A 
ATOM     30  C   UNL     1       1.756   2.409  19.006  0.00  0.00    +0.000 A 
ATOM     31 CL   UNL     1       0.251   1.780  18.457  0.00  0.00    +0.000 Cl
ATOM     32  C   UNL     1       1.823   3.712  19.504  0.00  0.00    +0.000 A 
ENDBRANCH  25  26
ENDBRANCH  10  25
TORSDOF 6
ENDMDL
MODEL 4
REMARK VINA RESULT:      -7.5      2.793      4.961
REMARK  Name = 
REMARK  8 active torsions:
REMARK  status: ('A' for Active; 'I' for Inactive)
REMARK    1  A    between atoms: C_1  and  O_2
REMARK    2  A    between atoms: O_2  and  C_3
REMARK    3  A    between atoms: C_6  and  C_7
REMARK    4  A    between atoms: C_13  and  C_14
REMARK    5  A    between atoms: C_20  and  C_21
REMARK    6  A    between atoms: C_21  and  C_22
REMARK    7  A    between atoms: C_30  and  O_31
REMARK    8  A    between atoms: O_31  and  C_32
REMARK                            x       y       z     vdW  Elec       q    Type
REMARK                         _______ _______ _______ _____ _____    ______ ____
ROOT
ATOM      1  C   UNL     1       2.533   6.759  19.340  0.00  0.00    +0.000 A 
ATOM      2  N   UNL     1       1.803   7.220  20.412  0.00  0.00    +0.000 NA
ATOM      3  C   UNL     1       1.517   8.477  20.149  0.00  0.00    +0.000 A 
ATOM      4  C   UNL     1       0.809   9.468  20.887  0.00  0.00    +0.000 A 
ATOM      5 CL   UNL     1       0.182   9.064  22.441  0.00  0.00    +0.000 Cl
ATOM      6  C   UNL     1       0.643  10.705  20.382  0.00  0.00    +0.000 A 
ATOM      7  C   UNL     1       1.180  11.078  19.073  0.00  0.00    +0.000 A 
ATOM      8  C   UNL     1       1.860  10.140  18.382  0.00  0.00    +0.000 A 
ATOM      9  N   UNL     1       2.022   8.856  18.910  0.00  0.00    +0.000 N 
ATOM     10  C   UNL     1       2.670   7.753  18.376  0.00  0.00    +0.000 A 
ENDROOT
BRANCH   1  14
ATOM     11  C   UNL     1       4.060   2.748  19.279  0.00  0.00    +0.000 A 
ATOM     12  C   UNL     1       4.861   3.831  19.662  0.00  0.00    +0.000 A 
ATOM     13  C   UNL     1       4.349   5.134  19.702  0.00  0.00    +0.000 A 
ATOM     14  C   UNL     1       3.039   5.397  19.315  0.00  0.00    +0.000 A 
ATOM     15  C   UNL     1       2.274   4.323  18.849  0.00  0.00    +0.000 A 
ATOM     16  C   UNL     1       2.757   3.006  18.823  0.00  0.00    +0.000 A 
BRANCH  11  18
ATOM     17  C   UNL     1       5.088   1.054  20.569  0.00  0.00    +0.000 C 
ATOM     18  O   UNL     1       4.529   1.461  19.318  0.00  0.00    +0.000 OA
ENDBRANCH  11  18
BRANCH  16  19
ATOM     19  O   UNL     1       1.798   2.154  18.346  0.00  0.00    +0.000 OA
ATOM     20  C   UNL     1       0.469   2.235  18.822  0.00  0.00    +0.000 C 
ENDBRANCH  16  19
ENDBRANCH   1  14
BRANCH   7  21
ATOM     21  C   UNL     1       0.960  12.472  18.552  0.00  0.00    +0.000 C 
ATOM     22  F   UNL     1      -0.214  12.609  17.886  0.00  0.00    +0.000 F 
ATOM     23  F   UNL     1       0.952  13.383  19.558  0.00  0.00    +0.000 F 
ATOM     24  F   UNL     1       1.944  12.838  17.694  0.00  0.00    +0.000 F 
ENDBRANCH   7  21
BRANCH  10  25
ATOM     25  C   UNL     1       3.313   7.768  17.023  0.00  0.00    +0.000 C 
BRANCH  25  26
ATOM     26  C   UNL     1       4.670   7.090  16.925  0.00  0.00    +0.000 A 
ATOM     27  C   UNL     1       5.831   7.585  17.542  0.00  0.00    +0.000 A 
ATOM     28  C   UNL     1       7.026   6.861  17.514  0.00  0.00    +0.000 A 
ATOM     29  C   UNL     1       7.088   5.639  16.850  0.00  0.00    +0.000 A 
ATOM     30  C   UNL     1       5.958   5.153  16.200  0.00  0.00    +0.000 A 
ATOM     31 CL   UNL     1       6.037   3.650  15.365  0.00  0.00    +0.000 Cl
ATOM     32  C   UNL     1       4.758   5.866  16.235  0.00  0.00    +0.000 A 
ENDBRANCH  25  26
ENDBRANCH  10  25
TORSDOF 6
ENDMDL
MODEL 5
REMARK VINA RESULT:      -7.5      2.970      5.105
REMARK  Name = 
REMARK  8 active torsions:
REMARK  status: ('A' for Active; 'I' for Inactive)
REMARK    1  A    between atoms: C_1  and  O_2
REMARK    2  A    between atoms: O_2  and  C_3
REMARK    3  A    between atoms: C_6  and  C_7
REMARK    4  A    between atoms: C_13  and  C_14
REMARK    5  A    between atoms: C_20  and  C_21
REMARK    6  A    between atoms: C_21  and  C_22
REMARK    7  A    between atoms: C_30  and  O_31
REMARK    8  A    between atoms: O_31  and  C_32
REMARK                            x       y       z     vdW  Elec       q    Type
REMARK                         _______ _______ _______ _____ _____    ______ ____
ROOT
ATOM      1  C   UNL     1       2.447   6.727  19.634  0.00  0.00    +0.000 A 
ATOM      2  N   UNL     1       1.755   7.199  20.726  0.00  0.00    +0.000 NA
ATOM      3  C   UNL     1       1.377   8.422  20.422  0.00  0.00    +0.000 A 
ATOM      4  C   UNL     1       0.654   9.406  21.155  0.00  0.00    +0.000 A 
ATOM      5 CL   UNL     1       0.148   9.047  22.762  0.00  0.00    +0.000 Cl
ATOM      6  C   UNL     1       0.382  10.604  20.602  0.00  0.00    +0.000 A 
ATOM      7  C   UNL     1       0.815  10.940  19.246  0.00  0.00    +0.000 A 
ATOM      8  C   UNL     1       1.510  10.009  18.559  0.00  0.00    +0.000 A 
ATOM      9  N   UNL     1       1.783   8.766  19.136  0.00  0.00    +0.000 N 
ATOM     10  C   UNL     1       2.465   7.677  18.616  0.00  0.00    +0.000 A 
ENDROOT
BRANCH   1  14
ATOM     11  C   UNL     1       4.215   2.816  19.660  0.00  0.00    +0.000 A 
ATOM     12  C   UNL     1       5.001   3.975  19.674  0.00  0.00    +0.000 A 
ATOM     13  C   UNL     1       4.416   5.248  19.690  0.00  0.00    +0.000 A 
ATOM     14  C   UNL     1       3.034   5.398  19.642  0.00  0.00    +0.000 A 
ATOM     15  C   UNL     1       2.261   4.237  19.537  0.00  0.00    +0.000 A 
ATOM     16  C   UNL     1       2.822   2.952  19.544  0.00  0.00    +0.000 A 
BRANCH  11  18
ATOM     17  C   UNL     1       5.245   1.183  21.024  0.00  0.00    +0.000 C 
ATOM     18  O   UNL     1       4.778   1.569  19.730  0.00  0.00    +0.000 OA
ENDBRANCH  11  18
BRANCH  16  19
ATOM     19  O   UNL     1       1.842   2.001  19.454  0.00  0.00    +0.000 OA
ATOM     20  C   UNL     1       0.632   2.283  18.777  0.00  0.00    +0.000 C 
ENDBRANCH  16  19
ENDBRANCH   1  14
BRANCH   7  21
ATOM     21  C   UNL     1       0.478  12.289  18.674  0.00  0.00    +0.000 C 
ATOM     22  F   UNL     1      -0.635  12.273  17.899  0.00  0.00    +0.000 F 
ATOM     23  F   UNL     1       0.266  13.205  19.652  0.00  0.00    +0.000 F 
ATOM     24  F   UNL     1       1.488  12.763  17.901  0.00  0.00    +0.000 F 
ENDBRANCH   7  21
BRANCH  10  25
ATOM     25  C   UNL     1       3.024   7.660  17.226  0.00  0.00    +0.000 C 
BRANCH  25  26
ATOM     26  C   UNL     1       4.384   7.000  17.065  0.00  0.00    +0.000 A 
ATOM     27  C   UNL     1       4.589   5.811  16.346  0.00  0.00    +0.000 A 
ATOM     28  C   UNL     1       5.875   5.310  16.133  0.00  0.00    +0.000 A 
ATOM     29  C   UNL     1       6.980   5.978  16.655  0.00  0.00    +0.000 A 
ATOM     30  C   UNL     1       6.792   7.135  17.403  0.00  0.00    +0.000 A 
ATOM     31 CL   UNL     1       8.155   7.953  18.064  0.00  0.00    +0.000 Cl
ATOM     32  C   UNL     1       5.509   7.646  17.608  0.00  0.00    +0.000 A 
ENDBRANCH  25  26
ENDBRANCH  10  25
TORSDOF 6
ENDMDL
MODEL 6
REMARK VINA RESULT:      -7.4      0.999      1.182
REMARK  Name = 
REMARK  8 active torsions:
REMARK  status: ('A' for Active; 'I' for Inactive)
REMARK    1  A    between atoms: C_1  and  O_2
REMARK    2  A    between atoms: O_2  and  C_3
REMARK    3  A    between atoms: C_6  and  C_7
REMARK    4  A    between atoms: C_13  and  C_14
REMARK    5  A    between atoms: C_20  and  C_21
REMARK    6  A    between atoms: C_21  and  C_22
REMARK    7  A    between atoms: C_30  and  O_31
REMARK    8  A    between atoms: O_31  and  C_32
REMARK                            x       y       z     vdW  Elec       q    Type
REMARK                         _______ _______ _______ _____ _____    ______ ____
ROOT
ATOM      1  C   UNL     1       2.457   7.553  18.867  0.00  0.00    +0.000 A 
ATOM      2  N   UNL     1       1.911   8.739  18.433  0.00  0.00    +0.000 NA
ATOM      3  C   UNL     1       1.228   9.224  19.447  0.00  0.00    +0.000 A 
ATOM      4  C   UNL     1       0.441  10.402  19.591  0.00  0.00    +0.000 A 
ATOM      5 CL   UNL     1       0.257  11.455  18.239  0.00  0.00    +0.000 Cl
ATOM      6  C   UNL     1      -0.160  10.681  20.764  0.00  0.00    +0.000 A 
ATOM      7  C   UNL     1      -0.034   9.796  21.921  0.00  0.00    +0.000 A 
ATOM      8  C   UNL     1       0.703   8.675  21.777  0.00  0.00    +0.000 A 
ATOM      9  N   UNL     1       1.330   8.395  20.560  0.00  0.00    +0.000 N 
ATOM     10  C   UNL     1       2.127   7.320  20.200  0.00  0.00    +0.000 A 
ENDROOT
BRANCH   1  14
ATOM     11  C   UNL     1       4.806   5.106  16.238  0.00  0.00    +0.000 A 
ATOM     12  C   UNL     1       3.597   4.649  16.779  0.00  0.00    +0.000 A 
ATOM     13  C   UNL     1       2.824   5.463  17.617  0.00  0.00    +0.000 A 
ATOM     14  C   UNL     1       3.261   6.734  17.976  0.00  0.00    +0.000 A 
ATOM     15  C   UNL     1       4.511   7.146  17.504  0.00  0.00    +0.000 A 
ATOM     16  C   UNL     1       5.291   6.359  16.645  0.00  0.00    +0.000 A 
BRANCH  11  18
ATOM     17  C   UNL     1       6.771   3.851  15.844  0.00  0.00    +0.000 C 
ATOM     18  O   UNL     1       5.524   4.348  15.351  0.00  0.00    +0.000 OA
ENDBRANCH  11  18
BRANCH  16  19
ATOM     19  O   UNL     1       6.450   7.009  16.320  0.00  0.00    +0.000 OA
ATOM     20  C   UNL     1       7.418   7.285  17.313  0.00  0.00    +0.000 C 
ENDBRANCH  16  19
ENDBRANCH   1  14
BRANCH   7  21
ATOM     21  C   UNL     1      -0.721  10.158  23.209  0.00  0.00    +0.000 C 
ATOM     22  F   UNL     1      -0.887  11.495  23.362  0.00  0.00    +0.000 F 
ATOM     23  F   UNL     1      -1.952   9.595  23.292  0.00  0.00    +0.000 F 
ATOM     24  F   UNL     1      -0.014   9.724  24.283  0.00  0.00    +0.000 F 
ENDBRANCH   7  21
BRANCH  10  25
ATOM     25  C   UNL     1       2.495   6.228  21.156  0.00  0.00    +0.000 C 
BRANCH  25  26
ATOM     26  C   UNL     1       2.191   4.811  20.696  0.00  0.00    +0.000 A 
ATOM     27  C   UNL     1       0.897   4.355  20.393  0.00  0.00    +0.000 A 
ATOM     28  C   UNL     1       0.689   3.079  19.866  0.00  0.00    +0.000 A 
ATOM     29  C   UNL     1       1.768   2.225  19.651  0.00  0.00    +0.000 A 
ATOM     30  C   UNL     1       3.052   2.647  19.982  0.00  0.00    +0.000 A 
ATOM     31 CL   UNL     1       4.386   1.588  19.734  0.00  0.00    +0.000 Cl
ATOM     32  C   UNL     1       3.267   3.926  20.498  0.00  0.00    +0.000 A 
ENDBRANCH  25  26
ENDBRANCH  10  25
TORSDOF 6
ENDMDL
MODEL 7
REMARK VINA RESULT:      -7.3      4.867      7.343
REMARK  Name = 
REMARK  8 active torsions:
REMARK  status: ('A' for Active; 'I' for Inactive)
REMARK    1  A    between atoms: C_1  and  O_2
REMARK    2  A    between atoms: O_2  and  C_3
REMARK    3  A    between atoms: C_6  and  C_7
REMARK    4  A    between atoms: C_13  and  C_14
REMARK    5  A    between atoms: C_20  and  C_21
REMARK    6  A    between atoms: C_21  and  C_22
REMARK    7  A    between atoms: C_30  and  O_31
REMARK    8  A    between atoms: O_31  and  C_32
REMARK                            x       y       z     vdW  Elec       q    Type
REMARK                         _______ _______ _______ _____ _____    ______ ____
ROOT
ATOM      1  C   UNL     1       2.948   7.503  18.478  0.00  0.00    +0.000 A 
ATOM      2  N   UNL     1       4.216   8.002  18.288  0.00  0.00    +0.000 NA
ATOM      3  C   UNL     1       4.841   7.136  17.519  0.00  0.00    +0.000 A 
ATOM      4  C   UNL     1       6.169   7.102  17.006  0.00  0.00    +0.000 A 
ATOM      5 CL   UNL     1       7.260   8.369  17.423  0.00  0.00    +0.000 Cl
ATOM      6  C   UNL     1       6.568   6.087  16.216  0.00  0.00    +0.000 A 
ATOM      7  C   UNL     1       5.667   4.990  15.860  0.00  0.00    +0.000 A 
ATOM      8  C   UNL     1       4.414   5.020  16.358  0.00  0.00    +0.000 A 
ATOM      9  N   UNL     1       4.004   6.081  17.171  0.00  0.00    +0.000 N 
ATOM     10  C   UNL     1       2.779   6.312  17.777  0.00  0.00    +0.000 A 
ENDROOT
BRANCH   1  14
ATOM     11  C   UNL     1       0.119   9.559  20.966  0.00  0.00    +0.000 A 
ATOM     12  C   UNL     1       0.766   8.394  21.400  0.00  0.00    +0.000 A 
ATOM     13  C   UNL     1       1.705   7.743  20.592  0.00  0.00    +0.000 A 
ATOM     14  C   UNL     1       1.988   8.207  19.311  0.00  0.00    +0.000 A 
ATOM     15  C   UNL     1       1.272   9.317  18.853  0.00  0.00    +0.000 A 
ATOM     16  C   UNL     1       0.344  10.001  19.652  0.00  0.00    +0.000 A 
BRANCH  11  18
ATOM     17  C   UNL     1      -0.617   9.957  23.178  0.00  0.00    +0.000 C 
ATOM     18  O   UNL     1      -0.738  10.248  21.784  0.00  0.00    +0.000 OA
ENDBRANCH  11  18
BRANCH  16  19
ATOM     19  O   UNL     1      -0.191  11.058  18.968  0.00  0.00    +0.000 OA
ATOM     20  C   UNL     1      -1.451  10.937  18.337  0.00  0.00    +0.000 C 
ENDBRANCH  16  19
ENDBRANCH   1  14
BRANCH   7  21
ATOM     21  C   UNL     1       6.162   3.885  14.968  0.00  0.00    +0.000 C 
ATOM     22  F   UNL     1       5.497   3.819  13.788  0.00  0.00    +0.000 F 
ATOM     23  F   UNL     1       7.477   4.036  14.673  0.00  0.00    +0.000 F 
ATOM     24  F   UNL     1       6.027   2.673  15.564  0.00  0.00    +0.000 F 
ENDBRANCH   7  21
BRANCH  10  25
ATOM     25  C   UNL     1       1.603   5.401  17.600  0.00  0.00    +0.000 C 
BRANCH  25  26
ATOM     26  C   UNL     1       1.710   4.041  18.272  0.00  0.00    +0.000 A 
ATOM     27  C   UNL     1       2.174   2.887  17.619  0.00  0.00    +0.000 A 
ATOM     28  C   UNL     1       2.359   1.691  18.315  0.00  0.00    +0.000 A 
ATOM     29  C   UNL     1       2.062   1.619  19.674  0.00  0.00    +0.000 A 
ATOM     30  C   UNL     1       1.564   2.741  20.327  0.00  0.00    +0.000 A 
ATOM     31 CL   UNL     1       1.180   2.651  22.002  0.00  0.00    +0.000 Cl
ATOM     32  C   UNL     1       1.389   3.943  19.638  0.00  0.00    +0.000 A 
ENDBRANCH  25  26
ENDBRANCH  10  25
TORSDOF 6
ENDMDL
MODEL 8
REMARK VINA RESULT:      -7.3      7.326     10.738
REMARK  Name = 
REMARK  8 active torsions:
REMARK  status: ('A' for Active; 'I' for Inactive)
REMARK    1  A    between atoms: C_1  and  O_2
REMARK    2  A    between atoms: O_2  and  C_3
REMARK    3  A    between atoms: C_6  and  C_7
REMARK    4  A    between atoms: C_13  and  C_14
REMARK    5  A    between atoms: C_20  and  C_21
REMARK    6  A    between atoms: C_21  and  C_22
REMARK    7  A    between atoms: C_30  and  O_31
REMARK    8  A    between atoms: O_31  and  C_32
REMARK                            x       y       z     vdW  Elec       q    Type
REMARK                         _______ _______ _______ _____ _____    ______ ____
ROOT
ATOM      1  C   UNL     1      -3.435  13.140  20.908  0.00  0.00    +0.000 A 
ATOM      2  N   UNL     1      -4.700  12.969  20.393  0.00  0.00    +0.000 NA
ATOM      3  C   UNL     1      -4.549  12.332  19.252  0.00  0.00    +0.000 A 
ATOM      4  C   UNL     1      -5.487  11.899  18.271  0.00  0.00    +0.000 A 
ATOM      5 CL   UNL     1      -7.160  12.240  18.505  0.00  0.00    +0.000 Cl
ATOM      6  C   UNL     1      -5.068  11.244  17.171  0.00  0.00    +0.000 A 
ATOM      7  C   UNL     1      -3.653  10.957  16.940  0.00  0.00    +0.000 A 
ATOM      8  C   UNL     1      -2.767  11.379  17.866  0.00  0.00    +0.000 A 
ATOM      9  N   UNL     1      -3.209  12.052  19.009  0.00  0.00    +0.000 N 
ATOM     10  C   UNL     1      -2.483  12.560  20.074  0.00  0.00    +0.000 A 
ENDROOT
BRANCH   1  14
ATOM     11  C   UNL     1      -2.849  15.177  24.640  0.00  0.00    +0.000 A 
ATOM     12  C   UNL     1      -3.427  13.902  24.584  0.00  0.00    +0.000 A 
ATOM     13  C   UNL     1      -3.593  13.235  23.364  0.00  0.00    +0.000 A 
ATOM     14  C   UNL     1      -3.232  13.840  22.165  0.00  0.00    +0.000 A 
ATOM     15  C   UNL     1      -2.738  15.147  22.223  0.00  0.00    +0.000 A 
ATOM     16  C   UNL     1      -2.540  15.827  23.434  0.00  0.00    +0.000 A 
BRANCH  11  18
ATOM     17  C   UNL     1      -1.246  15.767  26.276  0.00  0.00    +0.000 C 
ATOM     18  O   UNL     1      -2.605  15.801  25.836  0.00  0.00    +0.000 OA
ENDBRANCH  11  18
BRANCH  16  19
ATOM     19  O   UNL     1      -2.028  17.075  23.204  0.00  0.00    +0.000 OA
ATOM     20  C   UNL     1      -2.878  18.205  23.188  0.00  0.00    +0.000 C 
ENDBRANCH  16  19
ENDBRANCH   1  14
BRANCH   7  21
ATOM     21  C   UNL     1      -3.240  10.215  15.698  0.00  0.00    +0.000 C 
ATOM     22  F   UNL     1      -2.419   9.167  15.956  0.00  0.00    +0.000 F 
ATOM     23  F   UNL     1      -4.315   9.721  15.034  0.00  0.00    +0.000 F 
ATOM     24  F   UNL     1      -2.582  11.029  14.834  0.00  0.00    +0.000 F 
ENDBRANCH   7  21
BRANCH  10  25
ATOM     25  C   UNL     1      -0.996  12.416  20.184  0.00  0.00    +0.000 C 
BRANCH  25  26
ATOM     26  C   UNL     1      -0.502  11.279  21.063  0.00  0.00    +0.000 A 
ATOM     27  C   UNL     1      -0.854  11.134  22.415  0.00  0.00    +0.000 A 
ATOM     28  C   UNL     1      -0.463  10.008  23.144  0.00  0.00    +0.000 A 
ATOM     29  C   UNL     1       0.306   9.016  22.541  0.00  0.00    +0.000 A 
ATOM     30  C   UNL     1       0.696   9.163  21.214  0.00  0.00    +0.000 A 
ATOM     31 CL   UNL     1       1.660   7.946  20.471  0.00  0.00    +0.000 Cl
ATOM     32  C   UNL     1       0.298  10.280  20.477  0.00  0.00    +0.000 A 
ENDBRANCH  25  26
ENDBRANCH  10  25
TORSDOF 6
ENDMDL
MODEL 9
REMARK VINA RESULT:      -7.1      4.500      7.301
REMARK  Name = 
REMARK  8 active torsions:
REMARK  status: ('A' for Active; 'I' for Inactive)
REMARK    1  A    between atoms: C_1  and  O_2
REMARK    2  A    between atoms: O_2  and  C_3
REMARK    3  A    between atoms: C_6  and  C_7
REMARK    4  A    between atoms: C_13  and  C_14
REMARK    5  A    between atoms: C_20  and  C_21
REMARK    6  A    between atoms: C_21  and  C_22
REMARK    7  A    between atoms: C_30  and  O_31
REMARK    8  A    between atoms: O_31  and  C_32
REMARK                            x       y       z     vdW  Elec       q    Type
REMARK                         _______ _______ _______ _____ _____    ______ ____
ROOT
ATOM      1  C   UNL     1       1.422  10.954  19.062  0.00  0.00    +0.000 A 
ATOM      2  N   UNL     1       2.464  11.824  18.833  0.00  0.00    +0.000 NA
ATOM      3  C   UNL     1       1.931  13.024  18.755  0.00  0.00    +0.000 A 
ATOM      4  C   UNL     1       2.501  14.307  18.514  0.00  0.00    +0.000 A 
ATOM      5 CL   UNL     1       4.197  14.429  18.235  0.00  0.00    +0.000 Cl
ATOM      6  C   UNL     1       1.723  15.406  18.493  0.00  0.00    +0.000 A 
ATOM      7  C   UNL     1       0.278  15.328  18.710  0.00  0.00    +0.000 A 
ATOM      8  C   UNL     1      -0.260  14.110  18.926  0.00  0.00    +0.000 A 
ATOM      9  N   UNL     1       0.555  12.974  18.954  0.00  0.00    +0.000 N 
ATOM     10  C   UNL     1       0.218  11.646  19.162  0.00  0.00    +0.000 A 
ENDROOT
BRANCH   1  14
ATOM     11  C   UNL     1       2.100   6.733  19.435  0.00  0.00    +0.000 A 
ATOM     12  C   UNL     1       1.490   7.470  20.459  0.00  0.00    +0.000 A 
ATOM     13  C   UNL     1       1.251   8.843  20.319  0.00  0.00    +0.000 A 
ATOM     14  C   UNL     1       1.657   9.525  19.177  0.00  0.00    +0.000 A 
ATOM     15  C   UNL     1       2.345   8.799  18.200  0.00  0.00    +0.000 A 
ATOM     16  C   UNL     1       2.575   7.419  18.306  0.00  0.00    +0.000 A 
BRANCH  11  18
ATOM     17  C   UNL     1       1.730   4.779  20.716  0.00  0.00    +0.000 C 
ATOM     18  O   UNL     1       2.261   5.375  19.530  0.00  0.00    +0.000 OA
ENDBRANCH  11  18
BRANCH  16  19
ATOM     19  O   UNL     1       3.245   6.959  17.205  0.00  0.00    +0.000 OA
ATOM     20  C   UNL     1       4.657   7.025  17.148  0.00  0.00    +0.000 C 
ENDBRANCH  16  19
ENDBRANCH   1  14
BRANCH   7  21
ATOM     21  C   UNL     1      -0.544  16.587  18.683  0.00  0.00    +0.000 C 
ATOM     22  F   UNL     1      -0.850  16.993  17.426  0.00  0.00    +0.000 F 
ATOM     23  F   UNL     1      -1.718  16.428  19.344  0.00  0.00    +0.000 F 
ATOM     24  F   UNL     1       0.109  17.615  19.281  0.00  0.00    +0.000 F 
ENDBRANCH   7  21
BRANCH  10  25
ATOM     25  C   UNL     1      -1.183  11.201  19.451  0.00  0.00    +0.000 C 
BRANCH  25  26
ATOM     26  C   UNL     1      -2.076  10.992  18.239  0.00  0.00    +0.000 A 
ATOM     27  C   UNL     1      -1.782  10.088  17.205  0.00  0.00    +0.000 A 
ATOM     28  C   UNL     1      -2.693   9.852  16.173  0.00  0.00    +0.000 A 
ATOM     29  C   UNL     1      -3.908  10.533  16.143  0.00  0.00    +0.000 A 
ATOM     30  C   UNL     1      -4.199  11.460  17.138  0.00  0.00    +0.000 A 
ATOM     31 CL   UNL     1      -5.692  12.315  17.095  0.00  0.00    +0.000 Cl
ATOM     32  C   UNL     1      -3.296  11.691  18.179  0.00  0.00    +0.000 A 
ENDBRANCH  25  26
ENDBRANCH  10  25
TORSDOF 6
ENDMDL
