MODEL 1
REMARK VINA RESULT:      -7.0      0.000      0.000
REMARK  Name = 
REMARK  6 active torsions:
REMARK  status: ('A' for Active; 'I' for Inactive)
REMARK    1  A    between atoms: C_1  and  C_2
REMARK    2  A    between atoms: N_4  and  C_5
REMARK    3  A    between atoms: C_11  and  N_12
REMARK    4  A    between atoms: C_17  and  C_18
REMARK    5  A    between atoms: C_20  and  C_21
REMARK    6  A    between atoms: C_24  and  O_25
REMARK                            x       y       z     vdW  Elec       q    Type
REMARK                         _______ _______ _______ _____ _____    ______ ____
ROOT
ATOM      1  C   UNL     1      -1.929  10.441  18.535  0.00  0.00    +0.000 C 
ATOM      2  C   UNL     1      -1.050  11.578  18.916  0.00  0.00    +0.000 A 
ATOM      3  N   UNL     1      -1.603  12.754  19.247  0.00  0.00    +0.000 NA
ATOM      4  N   UNL     1      -0.563  13.614  19.388  0.00  0.00    +0.000 N 
ATOM      5  C   UNL     1       0.637  12.923  19.378  0.00  0.00    +0.000 A 
ATOM      6  C   UNL     1       0.371  11.602  19.029  0.00  0.00    +0.000 A 
ENDROOT
BRANCH   4   7
ATOM      7  C   UNL     1      -0.792  15.022  19.468  0.00  0.00    +0.000 A 
ATOM      8  C   UNL     1      -0.271  15.877  18.486  0.00  0.00    +0.000 A 
ATOM      9  C   UNL     1      -0.659  17.228  18.462  0.00  0.00    +0.000 A 
ATOM     10  C   UNL     1      -1.535  17.721  19.427  0.00  0.00    +0.000 A 
ATOM     11  C   UNL     1      -1.979  16.897  20.456  0.00  0.00    +0.000 A 
ATOM     12  C   UNL     1      -1.582  15.564  20.497  0.00  0.00    +0.000 A 
ENDBRANCH   4   7
BRANCH   6  13
ATOM     13  C   UNL     1       1.373  10.507  18.903  0.00  0.00    +0.000 C 
ATOM     14  C   UNL     1       1.109   9.111  19.433  0.00  0.00    +0.000 C 
ATOM     15  C   UNL     1       2.045   8.381  18.492  0.00  0.00    +0.000 C 
ATOM     16  N   UNL     1       2.299   9.029  17.391  0.00  0.00    +0.000 NA
ATOM     17  N   UNL     1       1.624  10.200  17.498  0.00  0.00    +0.000 N 
ATOM     18  H   UNL     1       2.088  10.957  16.998  0.00  0.00    +0.000 HD
BRANCH  15  19
ATOM     19  C   UNL     1       2.634   7.063  18.810  0.00  0.00    +0.000 A 
ATOM     20  C   UNL     1       2.219   6.325  19.923  0.00  0.00    +0.000 A 
ATOM     21  C   UNL     1       2.825   5.100  20.215  0.00  0.00    +0.000 A 
ATOM     22  C   UNL     1       3.840   4.621  19.392  0.00  0.00    +0.000 A 
ATOM     23  C   UNL     1       4.257   5.341  18.278  0.00  0.00    +0.000 A 
ATOM     24  C   UNL     1       3.652   6.565  17.986  0.00  0.00    +0.000 A 
BRANCH  22  25
ATOM     25  O   UNL     1       4.461   3.436  19.646  0.00  0.00    +0.000 OA
ATOM     26  H   UNL     1       4.210   3.134  20.534  0.00  0.00    +0.000 HD
ENDBRANCH  22  25
ENDBRANCH  15  19
ENDBRANCH   6  13
BRANCH   5  27
ATOM     27  N   UNL     1       1.873  13.467  19.738  0.00  0.00    +0.000 N 
ATOM     28  C   UNL     1       2.335  13.713  21.013  0.00  0.00    +0.000 A 
ATOM     29  C   UNL     1       3.583  14.268  20.877  0.00  0.00    +0.000 A 
ATOM     30  N   UNL     1       3.916  14.384  19.560  0.00  0.00    +0.000 NA
ATOM     31  C   UNL     1       2.883  13.906  18.902  0.00  0.00    +0.000 A 
ENDBRANCH   5  27
TORSDOF 5
ENDMDL
MODEL 2
REMARK VINA RESULT:      -7.0      2.013      2.687
REMARK  Name = 
REMARK  6 active torsions:
REMARK  status: ('A' for Active; 'I' for Inactive)
REMARK    1  A    between atoms: C_1  and  C_2
REMARK    2  A    between atoms: N_4  and  C_5
REMARK    3  A    between atoms: C_11  and  N_12
REMARK    4  A    between atoms: C_17  and  C_18
REMARK    5  A    between atoms: C_20  and  C_21
REMARK    6  A    between atoms: C_24  and  O_25
REMARK                            x       y       z     vdW  Elec       q    Type
REMARK                         _______ _______ _______ _____ _____    ______ ____
ROOT
ATOM      1  C   UNL     1      -0.559   8.442  21.835  0.00  0.00    +0.000 C 
ATOM      2  C   UNL     1      -0.243   9.854  21.490  0.00  0.00    +0.000 A 
ATOM      3  N   UNL     1      -0.819  10.846  22.185  0.00  0.00    +0.000 NA
ATOM      4  N   UNL     1      -0.462  11.988  21.547  0.00  0.00    +0.000 N 
ATOM      5  C   UNL     1       0.520  11.726  20.606  0.00  0.00    +0.000 A 
ATOM      6  C   UNL     1       0.662  10.345  20.504  0.00  0.00    +0.000 A 
ENDROOT
BRANCH   4   7
ATOM      7  C   UNL     1      -1.118  13.221  21.845  0.00  0.00    +0.000 A 
ATOM      8  C   UNL     1      -2.047  13.761  20.944  0.00  0.00    +0.000 A 
ATOM      9  C   UNL     1      -2.829  14.865  21.326  0.00  0.00    +0.000 A 
ATOM     10  C   UNL     1      -2.659  15.438  22.586  0.00  0.00    +0.000 A 
ATOM     11  C   UNL     1      -1.674  14.963  23.444  0.00  0.00    +0.000 A 
ATOM     12  C   UNL     1      -0.883  13.883  23.063  0.00  0.00    +0.000 A 
ENDBRANCH   4   7
BRANCH   6  13
ATOM     13  C   UNL     1       1.613   9.622  19.614  0.00  0.00    +0.000 C 
ATOM     14  C   UNL     1       1.832   8.125  19.717  0.00  0.00    +0.000 C 
ATOM     15  C   UNL     1       2.279   7.909  18.286  0.00  0.00    +0.000 C 
ATOM     16  N   UNL     1       1.875   8.831  17.461  0.00  0.00    +0.000 NA
ATOM     17  N   UNL     1       1.186   9.719  18.220  0.00  0.00    +0.000 N 
ATOM     18  H   UNL     1       1.240  10.665  17.848  0.00  0.00    +0.000 HD
BRANCH  15  19
ATOM     19  C   UNL     1       3.121   6.766  17.874  0.00  0.00    +0.000 A 
ATOM     20  C   UNL     1       4.373   6.955  17.281  0.00  0.00    +0.000 A 
ATOM     21  C   UNL     1       5.126   5.851  16.870  0.00  0.00    +0.000 A 
ATOM     22  C   UNL     1       4.622   4.567  17.057  0.00  0.00    +0.000 A 
ATOM     23  C   UNL     1       3.383   4.365  17.653  0.00  0.00    +0.000 A 
ATOM     24  C   UNL     1       2.631   5.467  18.064  0.00  0.00    +0.000 A 
BRANCH  22  25
ATOM     25  O   UNL     1       5.321   3.466  16.664  0.00  0.00    +0.000 OA
ATOM     26  H   UNL     1       5.716   3.048  17.446  0.00  0.00    +0.000 HD
ENDBRANCH  22  25
ENDBRANCH  15  19
ENDBRANCH   6  13
BRANCH   5  27
ATOM     27  N   UNL     1       1.275  12.702  19.949  0.00  0.00    +0.000 N 
ATOM     28  C   UNL     1       1.048  13.226  18.695  0.00  0.00    +0.000 A 
ATOM     29  C   UNL     1       2.052  14.132  18.461  0.00  0.00    +0.000 A 
ATOM     30  N   UNL     1       2.903  14.190  19.525  0.00  0.00    +0.000 NA
ATOM     31  C   UNL     1       2.424  13.329  20.394  0.00  0.00    +0.000 A 
ENDBRANCH   5  27
TORSDOF 5
ENDMDL
MODEL 3
REMARK VINA RESULT:      -7.0      2.052      2.533
REMARK  Name = 
REMARK  6 active torsions:
REMARK  status: ('A' for Active; 'I' for Inactive)
REMARK    1  A    between atoms: C_1  and  C_2
REMARK    2  A    between atoms: N_4  and  C_5
REMARK    3  A    between atoms: C_11  and  N_12
REMARK    4  A    between atoms: C_17  and  C_18
REMARK    5  A    between atoms: C_20  and  C_21
REMARK    6  A    between atoms: C_24  and  O_25
REMARK                            x       y       z     vdW  Elec       q    Type
REMARK                         _______ _______ _______ _____ _____    ______ ____
ROOT
ATOM      1  C   UNL     1      -0.569   8.468  21.894  0.00  0.00    +0.000 C 
ATOM      2  C   UNL     1      -0.249   9.877  21.545  0.00  0.00    +0.000 A 
ATOM      3  N   UNL     1      -0.815  10.872  22.243  0.00  0.00    +0.000 NA
ATOM      4  N   UNL     1      -0.458  12.012  21.601  0.00  0.00    +0.000 N 
ATOM      5  C   UNL     1       0.514  11.744  20.651  0.00  0.00    +0.000 A 
ATOM      6  C   UNL     1       0.649  10.363  20.550  0.00  0.00    +0.000 A 
ENDROOT
BRANCH   4   7
ATOM      7  C   UNL     1      -1.107  13.249  21.903  0.00  0.00    +0.000 A 
ATOM      8  C   UNL     1      -2.011  13.812  20.991  0.00  0.00    +0.000 A 
ATOM      9  C   UNL     1      -2.787  14.919  21.373  0.00  0.00    +0.000 A 
ATOM     10  C   UNL     1      -2.637  15.473  22.644  0.00  0.00    +0.000 A 
ATOM     11  C   UNL     1      -1.674  14.974  23.515  0.00  0.00    +0.000 A 
ATOM     12  C   UNL     1      -0.888  13.891  23.134  0.00  0.00    +0.000 A 
ENDBRANCH   4   7
BRANCH   6  13
ATOM     13  C   UNL     1       1.588   9.634  19.652  0.00  0.00    +0.000 C 
ATOM     14  C   UNL     1       1.781   8.133  19.737  0.00  0.00    +0.000 C 
ATOM     15  C   UNL     1       2.227   7.927  18.304  0.00  0.00    +0.000 C 
ATOM     16  N   UNL     1       1.841   8.867  17.490  0.00  0.00    +0.000 NA
ATOM     17  N   UNL     1       1.166   9.757  18.259  0.00  0.00    +0.000 N 
ATOM     18  H   UNL     1       1.238  10.707  17.899  0.00  0.00    +0.000 HD
BRANCH  15  19
ATOM     19  C   UNL     1       3.048   6.774  17.879  0.00  0.00    +0.000 A 
ATOM     20  C   UNL     1       2.622   5.457  18.078  0.00  0.00    +0.000 A 
ATOM     21  C   UNL     1       3.443   4.392  17.698  0.00  0.00    +0.000 A 
ATOM     22  C   UNL     1       4.682   4.650  17.118  0.00  0.00    +0.000 A 
ATOM     23  C   UNL     1       5.113   5.954  16.907  0.00  0.00    +0.000 A 
ATOM     24  C   UNL     1       4.295   7.019  17.287  0.00  0.00    +0.000 A 
BRANCH  22  25
ATOM     25  O   UNL     1       5.513   3.640  16.741  0.00  0.00    +0.000 OA
ATOM     26  H   UNL     1       5.614   3.022  17.483  0.00  0.00    +0.000 HD
ENDBRANCH  22  25
ENDBRANCH  15  19
ENDBRANCH   6  13
BRANCH   5  27
ATOM     27  N   UNL     1       1.267  12.716  19.986  0.00  0.00    +0.000 N 
ATOM     28  C   UNL     1       2.420  13.326  20.433  0.00  0.00    +0.000 A 
ATOM     29  C   UNL     1       2.791  14.222  19.461  0.00  0.00    +0.000 A 
ATOM     30  N   UNL     1       1.907  14.197  18.423  0.00  0.00    +0.000 NA
ATOM     31  C   UNL     1       1.008  13.299  18.760  0.00  0.00    +0.000 A 
ENDBRANCH   5  27
TORSDOF 5
ENDMDL
MODEL 4
REMARK VINA RESULT:      -6.8      0.497      1.473
REMARK  Name = 
REMARK  6 active torsions:
REMARK  status: ('A' for Active; 'I' for Inactive)
REMARK    1  A    between atoms: C_1  and  C_2
REMARK    2  A    between atoms: N_4  and  C_5
REMARK    3  A    between atoms: C_11  and  N_12
REMARK    4  A    between atoms: C_17  and  C_18
REMARK    5  A    between atoms: C_20  and  C_21
REMARK    6  A    between atoms: C_24  and  O_25
REMARK                            x       y       z     vdW  Elec       q    Type
REMARK                         _______ _______ _______ _____ _____    ______ ____
ROOT
ATOM      1  C   UNL     1      -1.933  10.626  18.771  0.00  0.00    +0.000 C 
ATOM      2  C   UNL     1      -1.018  11.753  19.096  0.00  0.00    +0.000 A 
ATOM      3  N   UNL     1      -1.536  12.943  19.432  0.00  0.00    +0.000 NA
ATOM      4  N   UNL     1      -0.477  13.786  19.515  0.00  0.00    +0.000 N 
ATOM      5  C   UNL     1       0.710  13.073  19.463  0.00  0.00    +0.000 A 
ATOM      6  C   UNL     1       0.406  11.753  19.147  0.00  0.00    +0.000 A 
ENDROOT
BRANCH   4   7
ATOM      7  C   UNL     1      -0.677  15.199  19.582  0.00  0.00    +0.000 A 
ATOM      8  C   UNL     1      -1.193  15.783  20.748  0.00  0.00    +0.000 A 
ATOM      9  C   UNL     1      -1.206  17.182  20.879  0.00  0.00    +0.000 A 
ATOM     10  C   UNL     1      -0.735  17.986  19.842  0.00  0.00    +0.000 A 
ATOM     11  C   UNL     1      -0.310  17.411  18.649  0.00  0.00    +0.000 A 
ATOM     12  C   UNL     1      -0.315  16.027  18.505  0.00  0.00    +0.000 A 
ENDBRANCH   4   7
BRANCH   6  13
ATOM     13  C   UNL     1       1.383  10.638  18.995  0.00  0.00    +0.000 C 
ATOM     14  C   UNL     1       1.099   9.243  19.518  0.00  0.00    +0.000 C 
ATOM     15  C   UNL     1       2.003   8.502  18.555  0.00  0.00    +0.000 C 
ATOM     16  N   UNL     1       2.252   9.154  17.455  0.00  0.00    +0.000 NA
ATOM     17  N   UNL     1       1.603  10.338  17.583  0.00  0.00    +0.000 N 
ATOM     18  H   UNL     1       2.074  11.089  17.081  0.00  0.00    +0.000 HD
BRANCH  15  19
ATOM     19  C   UNL     1       2.570   7.170  18.853  0.00  0.00    +0.000 A 
ATOM     20  C   UNL     1       3.493   6.559  17.999  0.00  0.00    +0.000 A 
ATOM     21  C   UNL     1       3.981   5.283  18.293  0.00  0.00    +0.000 A 
ATOM     22  C   UNL     1       3.543   4.627  19.441  0.00  0.00    +0.000 A 
ATOM     23  C   UNL     1       2.632   5.227  20.302  0.00  0.00    +0.000 A 
ATOM     24  C   UNL     1       2.145   6.501  20.008  0.00  0.00    +0.000 A 
BRANCH  22  25
ATOM     25  O   UNL     1       3.988   3.380  19.758  0.00  0.00    +0.000 OA
ATOM     26  H   UNL     1       4.922   3.435  20.018  0.00  0.00    +0.000 HD
ENDBRANCH  22  25
ENDBRANCH  15  19
ENDBRANCH   6  13
BRANCH   5  27
ATOM     27  N   UNL     1       1.970  13.601  19.761  0.00  0.00    +0.000 N 
ATOM     28  C   UNL     1       2.899  14.092  18.870  0.00  0.00    +0.000 A 
ATOM     29  C   UNL     1       3.987  14.479  19.611  0.00  0.00    +0.000 A 
ATOM     30  N   UNL     1       3.772  14.242  20.937  0.00  0.00    +0.000 NA
ATOM     31  C   UNL     1       2.570  13.716  21.001  0.00  0.00    +0.000 A 
ENDBRANCH   5  27
TORSDOF 5
ENDMDL
MODEL 5
REMARK VINA RESULT:      -6.8      2.862      4.705
REMARK  Name = 
REMARK  6 active torsions:
REMARK  status: ('A' for Active; 'I' for Inactive)
REMARK    1  A    between atoms: C_1  and  C_2
REMARK    2  A    between atoms: N_4  and  C_5
REMARK    3  A    between atoms: C_11  and  N_12
REMARK    4  A    between atoms: C_17  and  C_18
REMARK    5  A    between atoms: C_20  and  C_21
REMARK    6  A    between atoms: C_24  and  O_25
REMARK                            x       y       z     vdW  Elec       q    Type
REMARK                         _______ _______ _______ _____ _____    ______ ____
ROOT
ATOM      1  C   UNL     1      -0.770  12.890  22.248  0.00  0.00    +0.000 C 
ATOM      2  C   UNL     1      -1.582  12.481  21.071  0.00  0.00    +0.000 A 
ATOM      3  N   UNL     1      -2.795  13.023  20.888  0.00  0.00    +0.000 NA
ATOM      4  N   UNL     1      -3.336  12.349  19.844  0.00  0.00    +0.000 N 
ATOM      5  C   UNL     1      -2.378  11.559  19.231  0.00  0.00    +0.000 A 
ATOM      6  C   UNL     1      -1.233  11.580  20.023  0.00  0.00    +0.000 A 
ENDROOT
BRANCH   4   7
ATOM      7  C   UNL     1      -4.729  12.470  19.546  0.00  0.00    +0.000 A 
ATOM      8  C   UNL     1      -5.165  12.496  18.213  0.00  0.00    +0.000 A 
ATOM      9  C   UNL     1      -6.539  12.419  17.929  0.00  0.00    +0.000 A 
ATOM     10  C   UNL     1      -7.465  12.347  18.968  0.00  0.00    +0.000 A 
ATOM     11  C   UNL     1      -7.040  12.415  20.290  0.00  0.00    +0.000 A 
ATOM     12  C   UNL     1      -5.682  12.513  20.578  0.00  0.00    +0.000 A 
ENDBRANCH   4   7
BRANCH   6  13
ATOM     13  C   UNL     1       0.046  10.871  19.738  0.00  0.00    +0.000 C 
ATOM     14  C   UNL     1       0.125   9.360  19.644  0.00  0.00    +0.000 C 
ATOM     15  C   UNL     1       1.341   9.299  18.743  0.00  0.00    +0.000 C 
ATOM     16  N   UNL     1       1.539  10.381  18.047  0.00  0.00    +0.000 NA
ATOM     17  N   UNL     1       0.551  11.233  18.416  0.00  0.00    +0.000 N 
ATOM     18  H   UNL     1       0.840  12.208  18.349  0.00  0.00    +0.000 HD
BRANCH  15  19
ATOM     19  C   UNL     1       2.235   8.123  18.684  0.00  0.00    +0.000 A 
ATOM     20  C   UNL     1       3.120   7.929  17.619  0.00  0.00    +0.000 A 
ATOM     21  C   UNL     1       3.925   6.787  17.577  0.00  0.00    +0.000 A 
ATOM     22  C   UNL     1       3.840   5.848  18.601  0.00  0.00    +0.000 A 
ATOM     23  C   UNL     1       2.970   6.033  19.670  0.00  0.00    +0.000 A 
ATOM     24  C   UNL     1       2.167   7.173  19.712  0.00  0.00    +0.000 A 
BRANCH  22  25
ATOM     25  O   UNL     1       4.600   4.718  18.593  0.00  0.00    +0.000 OA
ATOM     26  H   UNL     1       5.515   4.953  18.820  0.00  0.00    +0.000 HD
ENDBRANCH  22  25
ENDBRANCH  15  19
ENDBRANCH   6  13
BRANCH   5  27
ATOM     27  N   UNL     1      -2.536  10.928  17.994  0.00  0.00    +0.000 N 
ATOM     28  C   UNL     1      -2.300  11.468  16.748  0.00  0.00    +0.000 A 
ATOM     29  C   UNL     1      -2.612  10.494  15.833  0.00  0.00    +0.000 A 
ATOM     30  N   UNL     1      -3.040   9.363  16.464  0.00  0.00    +0.000 NA
ATOM     31  C   UNL     1      -2.991   9.647  17.747  0.00  0.00    +0.000 A 
ENDBRANCH   5  27
TORSDOF 5
ENDMDL
MODEL 6
REMARK VINA RESULT:      -6.8      2.953      4.787
REMARK  Name = 
REMARK  6 active torsions:
REMARK  status: ('A' for Active; 'I' for Inactive)
REMARK    1  A    between atoms: C_1  and  C_2
REMARK    2  A    between atoms: N_4  and  C_5
REMARK    3  A    between atoms: C_11  and  N_12
REMARK    4  A    between atoms: C_17  and  C_18
REMARK    5  A    between atoms: C_20  and  C_21
REMARK    6  A    between atoms: C_24  and  O_25
REMARK                            x       y       z     vdW  Elec       q    Type
REMARK                         _______ _______ _______ _____ _____    ______ ____
ROOT
ATOM      1  C   UNL     1      -1.044  12.796  22.358  0.00  0.00    +0.000 C 
ATOM      2  C   UNL     1      -1.815  12.415  21.144  0.00  0.00    +0.000 A 
ATOM      3  N   UNL     1      -3.037  12.932  20.952  0.00  0.00    +0.000 NA
ATOM      4  N   UNL     1      -3.534  12.288  19.868  0.00  0.00    +0.000 N 
ATOM      5  C   UNL     1      -2.540  11.548  19.250  0.00  0.00    +0.000 A 
ATOM      6  C   UNL     1      -1.416  11.566  20.070  0.00  0.00    +0.000 A 
ENDROOT
BRANCH   4   7
ATOM      7  C   UNL     1      -4.922  12.385  19.539  0.00  0.00    +0.000 A 
ATOM      8  C   UNL     1      -5.893  12.282  20.545  0.00  0.00    +0.000 A 
ATOM      9  C   UNL     1      -7.236  12.570  20.249  0.00  0.00    +0.000 A 
ATOM     10  C   UNL     1      -7.605  12.929  18.953  0.00  0.00    +0.000 A 
ATOM     11  C   UNL     1      -6.658  12.941  17.934  0.00  0.00    +0.000 A 
ATOM     12  C   UNL     1      -5.330  12.635  18.217  0.00  0.00    +0.000 A 
ENDBRANCH   4   7
BRANCH   6  13
ATOM     13  C   UNL     1      -0.112  10.902  19.791  0.00  0.00    +0.000 C 
ATOM     14  C   UNL     1       0.006   9.401  19.614  0.00  0.00    +0.000 C 
ATOM     15  C   UNL     1       1.252   9.418  18.754  0.00  0.00    +0.000 C 
ATOM     16  N   UNL     1       1.447  10.542  18.127  0.00  0.00    +0.000 NA
ATOM     17  N   UNL     1       0.428  11.350  18.510  0.00  0.00    +0.000 N 
ATOM     18  H   UNL     1       0.696  12.333  18.508  0.00  0.00    +0.000 HD
BRANCH  15  19
ATOM     19  C   UNL     1       2.175   8.267  18.659  0.00  0.00    +0.000 A 
ATOM     20  C   UNL     1       3.047   8.114  17.577  0.00  0.00    +0.000 A 
ATOM     21  C   UNL     1       3.879   6.994  17.502  0.00  0.00    +0.000 A 
ATOM     22  C   UNL     1       3.836   6.036  18.510  0.00  0.00    +0.000 A 
ATOM     23  C   UNL     1       2.979   6.180  19.596  0.00  0.00    +0.000 A 
ATOM     24  C   UNL     1       2.148   7.298  19.671  0.00  0.00    +0.000 A 
BRANCH  22  25
ATOM     25  O   UNL     1       4.625   4.927  18.470  0.00  0.00    +0.000 OA
ATOM     26  H   UNL     1       5.422   5.127  17.954  0.00  0.00    +0.000 HD
ENDBRANCH  22  25
ENDBRANCH  15  19
ENDBRANCH   6  13
BRANCH   5  27
ATOM     27  N   UNL     1      -2.651  10.965  17.984  0.00  0.00    +0.000 N 
ATOM     28  C   UNL     1      -3.049   9.678  17.692  0.00  0.00    +0.000 A 
ATOM     29  C   UNL     1      -2.984   9.548  16.327  0.00  0.00    +0.000 A 
ATOM     30  N   UNL     1      -2.554  10.708  15.755  0.00  0.00    +0.000 NA
ATOM     31  C   UNL     1      -2.358  11.534  16.759  0.00  0.00    +0.000 A 
ENDBRANCH   5  27
TORSDOF 5
ENDMDL
MODEL 7
REMARK VINA RESULT:      -6.7      2.379      3.038
REMARK  Name = 
REMARK  6 active torsions:
REMARK  status: ('A' for Active; 'I' for Inactive)
REMARK    1  A    between atoms: C_1  and  C_2
REMARK    2  A    between atoms: N_4  and  C_5
REMARK    3  A    between atoms: C_11  and  N_12
REMARK    4  A    between atoms: C_17  and  C_18
REMARK    5  A    between atoms: C_20  and  C_21
REMARK    6  A    between atoms: C_24  and  O_25
REMARK                            x       y       z     vdW  Elec       q    Type
REMARK                         _______ _______ _______ _____ _____    ______ ____
ROOT
ATOM      1  C   UNL     1      -0.474   8.822  22.750  0.00  0.00    +0.000 C 
ATOM      2  C   UNL     1      -0.377  10.243  22.321  0.00  0.00    +0.000 A 
ATOM      3  N   UNL     1      -0.922  11.200  23.087  0.00  0.00    +0.000 NA
ATOM      4  N   UNL     1      -0.808  12.344  22.369  0.00  0.00    +0.000 N 
ATOM      5  C   UNL     1       0.011  12.143  21.270  0.00  0.00    +0.000 A 
ATOM      6  C   UNL     1       0.278  10.781  21.175  0.00  0.00    +0.000 A 
ENDROOT
BRANCH   4   7
ATOM      7  C   UNL     1      -1.528  13.517  22.754  0.00  0.00    +0.000 A 
ATOM      8  C   UNL     1      -2.892  13.638  22.450  0.00  0.00    +0.000 A 
ATOM      9  C   UNL     1      -3.636  14.698  22.997  0.00  0.00    +0.000 A 
ATOM     10  C   UNL     1      -3.013  15.640  23.814  0.00  0.00    +0.000 A 
ATOM     11  C   UNL     1      -1.642  15.574  24.040  0.00  0.00    +0.000 A 
ATOM     12  C   UNL     1      -0.897  14.539  23.484  0.00  0.00    +0.000 A 
ENDBRANCH   4   7
BRANCH   6  13
ATOM     13  C   UNL     1       1.125  10.120  20.143  0.00  0.00    +0.000 C 
ATOM     14  C   UNL     1       1.469   8.645  20.207  0.00  0.00    +0.000 C 
ATOM     15  C   UNL     1       1.696   8.447  18.722  0.00  0.00    +0.000 C 
ATOM     16  N   UNL     1       1.097   9.329  17.974  0.00  0.00    +0.000 NA
ATOM     17  N   UNL     1       0.475  10.171  18.836  0.00  0.00    +0.000 N 
ATOM     18  H   UNL     1       0.398  11.116  18.461  0.00  0.00    +0.000 HD
BRANCH  15  19
ATOM     19  C   UNL     1       2.543   7.365  18.179  0.00  0.00    +0.000 A 
ATOM     20  C   UNL     1       2.207   6.018  18.346  0.00  0.00    +0.000 A 
ATOM     21  C   UNL     1       3.052   5.021  17.850  0.00  0.00    +0.000 A 
ATOM     22  C   UNL     1       4.225   5.377  17.190  0.00  0.00    +0.000 A 
ATOM     23  C   UNL     1       4.566   6.712  17.011  0.00  0.00    +0.000 A 
ATOM     24  C   UNL     1       3.723   7.709  17.505  0.00  0.00    +0.000 A 
BRANCH  22  25
ATOM     25  O   UNL     1       5.077   4.435  16.700  0.00  0.00    +0.000 OA
ATOM     26  H   UNL     1       4.651   3.983  15.955  0.00  0.00    +0.000 HD
ENDBRANCH  22  25
ENDBRANCH  15  19
ENDBRANCH   6  13
BRANCH   5  27
ATOM     27  N   UNL     1       0.527  13.162  20.464  0.00  0.00    +0.000 N 
ATOM     28  C   UNL     1       1.731  13.815  20.617  0.00  0.00    +0.000 A 
ATOM     29  C   UNL     1       1.802  14.747  19.611  0.00  0.00    +0.000 A 
ATOM     30  N   UNL     1       0.680  14.702  18.836  0.00  0.00    +0.000 NA
ATOM     31  C   UNL     1      -0.064  13.757  19.365  0.00  0.00    +0.000 A 
ENDBRANCH   5  27
TORSDOF 5
ENDMDL
MODEL 8
REMARK VINA RESULT:      -6.6      2.456      3.319
REMARK  Name = 
REMARK  6 active torsions:
REMARK  status: ('A' for Active; 'I' for Inactive)
REMARK    1  A    between atoms: C_1  and  C_2
REMARK    2  A    between atoms: N_4  and  C_5
REMARK    3  A    between atoms: C_11  and  N_12
REMARK    4  A    between atoms: C_17  and  C_18
REMARK    5  A    between atoms: C_20  and  C_21
REMARK    6  A    between atoms: C_24  and  O_25
REMARK                            x       y       z     vdW  Elec       q    Type
REMARK                         _______ _______ _______ _____ _____    ______ ____
ROOT
ATOM      1  C   UNL     1      -0.123   8.846  23.005  0.00  0.00    +0.000 C 
ATOM      2  C   UNL     1      -0.236  10.232  22.479  0.00  0.00    +0.000 A 
ATOM      3  N   UNL     1      -0.844  11.169  23.221  0.00  0.00    +0.000 NA
ATOM      4  N   UNL     1      -0.926  12.263  22.423  0.00  0.00    +0.000 N 
ATOM      5  C   UNL     1      -0.165  12.083  21.280  0.00  0.00    +0.000 A 
ATOM      6  C   UNL     1       0.266  10.760  21.253  0.00  0.00    +0.000 A 
ENDROOT
BRANCH   4   7
ATOM      7  C   UNL     1      -1.761  13.364  22.786  0.00  0.00    +0.000 A 
ATOM      8  C   UNL     1      -3.116  13.370  22.426  0.00  0.00    +0.000 A 
ATOM      9  C   UNL     1      -3.972  14.355  22.948  0.00  0.00    +0.000 A 
ATOM     10  C   UNL     1      -3.468  15.339  23.797  0.00  0.00    +0.000 A 
ATOM     11  C   UNL     1      -2.107  15.390  24.081  0.00  0.00    +0.000 A 
ATOM     12  C   UNL     1      -1.252  14.430  23.550  0.00  0.00    +0.000 A 
ENDBRANCH   4   7
BRANCH   6  13
ATOM     13  C   UNL     1       1.118  10.134  20.204  0.00  0.00    +0.000 C 
ATOM     14  C   UNL     1       1.516   8.672  20.257  0.00  0.00    +0.000 C 
ATOM     15  C   UNL     1       1.723   8.486  18.768  0.00  0.00    +0.000 C 
ATOM     16  N   UNL     1       1.079   9.347  18.034  0.00  0.00    +0.000 NA
ATOM     17  N   UNL     1       0.443  10.164  18.909  0.00  0.00    +0.000 N 
ATOM     18  H   UNL     1       0.325  11.106  18.539  0.00  0.00    +0.000 HD
BRANCH  15  19
ATOM     19  C   UNL     1       2.599   7.437  18.206  0.00  0.00    +0.000 A 
ATOM     20  C   UNL     1       3.754   7.756  17.485  0.00  0.00    +0.000 A 
ATOM     21  C   UNL     1       4.539   6.738  16.936  0.00  0.00    +0.000 A 
ATOM     22  C   UNL     1       4.165   5.409  17.113  0.00  0.00    +0.000 A 
ATOM     23  C   UNL     1       3.024   5.078  17.835  0.00  0.00    +0.000 A 
ATOM     24  C   UNL     1       2.240   6.094  18.384  0.00  0.00    +0.000 A 
BRANCH  22  25
ATOM     25  O   UNL     1       4.898   4.389  16.588  0.00  0.00    +0.000 OA
ATOM     26  H   UNL     1       5.799   4.430  16.950  0.00  0.00    +0.000 HD
ENDBRANCH  22  25
ENDBRANCH  15  19
ENDBRANCH   6  13
BRANCH   5  27
ATOM     27  N   UNL     1       0.162  13.095  20.373  0.00  0.00    +0.000 N 
ATOM     28  C   UNL     1      -0.617  13.572  19.341  0.00  0.00    +0.000 A 
ATOM     29  C   UNL     1       0.120  14.542  18.709  0.00  0.00    +0.000 A 
ATOM     30  N   UNL     1       1.337  14.686  19.308  0.00  0.00    +0.000 NA
ATOM     31  C   UNL     1       1.340  13.813  20.291  0.00  0.00    +0.000 A 
ENDBRANCH   5  27
TORSDOF 5
ENDMDL
MODEL 9
REMARK VINA RESULT:      -6.6      0.898      1.397
REMARK  Name = 
REMARK  6 active torsions:
REMARK  status: ('A' for Active; 'I' for Inactive)
REMARK    1  A    between atoms: C_1  and  C_2
REMARK    2  A    between atoms: N_4  and  C_5
REMARK    3  A    between atoms: C_11  and  N_12
REMARK    4  A    between atoms: C_17  and  C_18
REMARK    5  A    between atoms: C_20  and  C_21
REMARK    6  A    between atoms: C_24  and  O_25
REMARK                            x       y       z     vdW  Elec       q    Type
REMARK                         _______ _______ _______ _____ _____    ______ ____
ROOT
ATOM      1  C   UNL     1      -1.850  11.195  19.604  0.00  0.00    +0.000 C 
ATOM      2  C   UNL     1      -0.847  12.293  19.611  0.00  0.00    +0.000 A 
ATOM      3  N   UNL     1      -1.240  13.540  19.906  0.00  0.00    +0.000 NA
ATOM      4  N   UNL     1      -0.155  14.322  19.682  0.00  0.00    +0.000 N 
ATOM      5  C   UNL     1       0.969  13.539  19.477  0.00  0.00    +0.000 A 
ATOM      6  C   UNL     1       0.558  12.213  19.379  0.00  0.00    +0.000 A 
ENDROOT
BRANCH   4   7
ATOM      7  C   UNL     1      -0.285  15.744  19.627  0.00  0.00    +0.000 A 
ATOM      8  C   UNL     1      -0.329  16.495  20.811  0.00  0.00    +0.000 A 
ATOM      9  C   UNL     1      -0.261  17.897  20.750  0.00  0.00    +0.000 A 
ATOM     10  C   UNL     1      -0.179  18.540  19.516  0.00  0.00    +0.000 A 
ATOM     11  C   UNL     1      -0.229  17.802  18.337  0.00  0.00    +0.000 A 
ATOM     12  C   UNL     1      -0.318  16.415  18.391  0.00  0.00    +0.000 A 
ENDBRANCH   4   7
BRANCH   6  13
ATOM     13  C   UNL     1       1.440  11.032  19.164  0.00  0.00    +0.000 C 
ATOM     14  C   UNL     1       1.074   9.651  19.671  0.00  0.00    +0.000 C 
ATOM     15  C   UNL     1       1.879   8.867  18.656  0.00  0.00    +0.000 C 
ATOM     16  N   UNL     1       2.132   9.523  17.560  0.00  0.00    +0.000 NA
ATOM     17  N   UNL     1       1.580  10.749  17.738  0.00  0.00    +0.000 N 
ATOM     18  H   UNL     1       2.085  11.474  17.231  0.00  0.00    +0.000 HD
BRANCH  15  19
ATOM     19  C   UNL     1       2.356   7.490  18.904  0.00  0.00    +0.000 A 
ATOM     20  C   UNL     1       1.973   6.776  20.044  0.00  0.00    +0.000 A 
ATOM     21  C   UNL     1       2.473   5.489  20.264  0.00  0.00    +0.000 A 
ATOM     22  C   UNL     1       3.351   4.925  19.343  0.00  0.00    +0.000 A 
ATOM     23  C   UNL     1       3.733   5.621  18.202  0.00  0.00    +0.000 A 
ATOM     24  C   UNL     1       3.234   6.906  17.981  0.00  0.00    +0.000 A 
BRANCH  22  25
ATOM     25  O   UNL     1       3.866   3.678  19.525  0.00  0.00    +0.000 OA
ATOM     26  H   UNL     1       4.732   3.628  19.088  0.00  0.00    +0.000 HD
ENDBRANCH  22  25
ENDBRANCH  15  19
ENDBRANCH   6  13
BRANCH   5  27
ATOM     27  N   UNL     1       2.282  14.019  19.458  0.00  0.00    +0.000 N 
ATOM     28  C   UNL     1       3.043  14.316  18.348  0.00  0.00    +0.000 A 
ATOM     29  C   UNL     1       4.266  14.731  18.813  0.00  0.00    +0.000 A 
ATOM     30  N   UNL     1       4.298  14.698  20.176  0.00  0.00    +0.000 NA
ATOM     31  C   UNL     1       3.110  14.268  20.536  0.00  0.00    +0.000 A 
ENDBRANCH   5  27
TORSDOF 5
ENDMDL
