MODEL 1
REMARK VINA RESULT:      -8.0      0.000      0.000
REMARK  Name = 
REMARK  5 active torsions:
REMARK  status: ('A' for Active; 'I' for Inactive)
REMARK    1  A    between atoms: C_2  and  C_3
REMARK    2  A    between atoms: C_8  and  C_9
REMARK    3  A    between atoms: N_15  and  C_16
REMARK    4  A    between atoms: C_16  and  C_17
REMARK    5  A    between atoms: C_20  and  O_21
REMARK                            x       y       z     vdW  Elec       q    Type
REMARK                         _______ _______ _______ _____ _____    ______ ____
ROOT
ATOM      1  C   UNL     1       1.831   6.314  19.970  0.00  0.00    +0.000 A 
ATOM      2  C   UNL     1       1.595   5.227  20.818  0.00  0.00    +0.000 A 
ATOM      3  C   UNL     1       1.593   3.933  20.314  0.00  0.00    +0.000 A 
ATOM      4  C   UNL     1       2.814   3.810  19.644  0.00  0.00    +0.000 A 
ATOM      5  C   UNL     1       4.098   3.373  20.077  0.00  0.00    +0.000 A 
ATOM      6  C   UNL     1       5.008   3.748  19.122  0.00  0.00    +0.000 A 
ATOM      7  N   UNL     1       4.279   4.265  18.049  0.00  0.00    +0.000 N 
ATOM      8  C   UNL     1       3.087   4.742  18.623  0.00  0.00    +0.000 A 
ATOM      9  C   UNL     1       2.457   6.030  18.708  0.00  0.00    +0.000 A 
ENDROOT
BRANCH   1  15
ATOM     10  C   UNL     1       1.457   8.931  19.950  0.00  0.00    +0.000 A 
ATOM     11  C   UNL     1       1.102   9.814  20.997  0.00  0.00    +0.000 A 
ATOM     12  N   UNL     1       0.761  11.105  20.863  0.00  0.00    +0.000 N 
ATOM     13  N   UNL     1       1.117   9.199  22.173  0.00  0.00    +0.000 NA
ATOM     14  N   UNL     1       1.455   7.932  21.879  0.00  0.00    +0.000 N 
ATOM     15  C   UNL     1       1.612   7.671  20.538  0.00  0.00    +0.000 A 
ATOM     16  H   UNL     1       0.461  11.502  19.979  0.00  0.00    +0.000 HD
ATOM     17  H   UNL     1       0.338  11.550  21.671  0.00  0.00    +0.000 HD
ATOM     18  H   UNL     1       1.531   7.283  22.652  0.00  0.00    +0.000 HD
BRANCH  10  20
ATOM     19  N   UNL     1       1.650   9.624  17.453  0.00  0.00    +0.000 NA
ATOM     20  C   UNL     1       1.561   9.308  18.563  0.00  0.00    +0.000 C 
ENDBRANCH  10  20
ENDBRANCH   1  15
BRANCH   7  21
ATOM     21  C   UNL     1       4.429   3.576  16.746  0.00  0.00    +0.000 C 
BRANCH  21  22
ATOM     22  C   UNL     1       5.514   4.148  15.850  0.00  0.00    +0.000 A 
ATOM     23  C   UNL     1       5.574   3.859  14.481  0.00  0.00    +0.000 A 
ATOM     24  C   UNL     1       6.591   4.411  13.689  0.00  0.00    +0.000 A 
ATOM     25  C   UNL     1       7.511   5.241  14.303  0.00  0.00    +0.000 A 
ATOM     26  N   UNL     1       7.458   5.585  15.599  0.00  0.00    +0.000 NA
ATOM     27  C   UNL     1       6.464   5.034  16.343  0.00  0.00    +0.000 A 
BRANCH  25  28
ATOM     28  O   UNL     1       8.559   5.776  13.610  0.00  0.00    +0.000 OA
ATOM     29  H   UNL     1       9.289   5.144  13.645  0.00  0.00    +0.000 HD
ENDBRANCH  25  28
ENDBRANCH  21  22
ENDBRANCH   7  21
TORSDOF 5
ENDMDL
MODEL 2
REMARK VINA RESULT:      -7.7      1.642      2.621
REMARK  Name = 
REMARK  5 active torsions:
REMARK  status: ('A' for Active; 'I' for Inactive)
REMARK    1  A    between atoms: C_2  and  C_3
REMARK    2  A    between atoms: C_8  and  C_9
REMARK    3  A    between atoms: N_15  and  C_16
REMARK    4  A    between atoms: C_16  and  C_17
REMARK    5  A    between atoms: C_20  and  O_21
REMARK                            x       y       z     vdW  Elec       q    Type
REMARK                         _______ _______ _______ _____ _____    ______ ____
ROOT
ATOM      1  C   UNL     1       1.912   7.992  20.171  0.00  0.00    +0.000 A 
ATOM      2  C   UNL     1       1.706   8.264  18.815  0.00  0.00    +0.000 A 
ATOM      3  C   UNL     1       2.468   7.621  17.849  0.00  0.00    +0.000 A 
ATOM      4  C   UNL     1       2.326   6.259  18.131  0.00  0.00    +0.000 A 
ATOM      5  C   UNL     1       1.389   5.286  17.682  0.00  0.00    +0.000 A 
ATOM      6  C   UNL     1       1.500   4.193  18.502  0.00  0.00    +0.000 A 
ATOM      7  N   UNL     1       2.592   4.425  19.341  0.00  0.00    +0.000 N 
ATOM      8  C   UNL     1       2.689   5.826  19.422  0.00  0.00    +0.000 A 
ATOM      9  C   UNL     1       2.610   6.778  20.494  0.00  0.00    +0.000 A 
ENDROOT
BRANCH   1  15
ATOM     10  C   UNL     1       0.111   9.728  21.028  0.00  0.00    +0.000 A 
ATOM     11  C   UNL     1      -0.204  10.148  22.343  0.00  0.00    +0.000 A 
ATOM     12  N   UNL     1      -1.253  10.904  22.702  0.00  0.00    +0.000 N 
ATOM     13  N   UNL     1       0.670   9.676  23.223  0.00  0.00    +0.000 NA
ATOM     14  N   UNL     1       1.520   8.943  22.484  0.00  0.00    +0.000 N 
ATOM     15  C   UNL     1       1.208   8.867  21.147  0.00  0.00    +0.000 A 
ATOM     16  H   UNL     1      -2.070  11.020  22.112  0.00  0.00    +0.000 HD
ATOM     17  H   UNL     1      -1.459  10.953  23.694  0.00  0.00    +0.000 HD
ATOM     18  H   UNL     1       2.283   8.491  22.971  0.00  0.00    +0.000 HD
BRANCH  10  20
ATOM     19  N   UNL     1      -1.229  10.413  18.910  0.00  0.00    +0.000 NA
ATOM     20  C   UNL     1      -0.632  10.100  19.851  0.00  0.00    +0.000 C 
ENDBRANCH  10  20
ENDBRANCH   1  15
BRANCH   7  21
ATOM     21  C   UNL     1       3.710   3.455  19.266  0.00  0.00    +0.000 C 
BRANCH  21  22
ATOM     22  C   UNL     1       4.772   3.794  18.234  0.00  0.00    +0.000 A 
ATOM     23  C   UNL     1       4.573   3.574  16.865  0.00  0.00    +0.000 A 
ATOM     24  C   UNL     1       5.579   3.904  15.946  0.00  0.00    +0.000 A 
ATOM     25  C   UNL     1       6.750   4.451  16.437  0.00  0.00    +0.000 A 
ATOM     26  N   UNL     1       6.959   4.727  17.734  0.00  0.00    +0.000 NA
ATOM     27  C   UNL     1       5.970   4.394  18.602  0.00  0.00    +0.000 A 
BRANCH  25  28
ATOM     28  O   UNL     1       7.794   4.752  15.611  0.00  0.00    +0.000 OA
ATOM     29  H   UNL     1       8.613   4.590  16.098  0.00  0.00    +0.000 HD
ENDBRANCH  25  28
ENDBRANCH  21  22
ENDBRANCH   7  21
TORSDOF 5
ENDMDL
MODEL 3
REMARK VINA RESULT:      -7.6      0.639      1.021
REMARK  Name = 
REMARK  5 active torsions:
REMARK  status: ('A' for Active; 'I' for Inactive)
REMARK    1  A    between atoms: C_2  and  C_3
REMARK    2  A    between atoms: C_8  and  C_9
REMARK    3  A    between atoms: N_15  and  C_16
REMARK    4  A    between atoms: C_16  and  C_17
REMARK    5  A    between atoms: C_20  and  O_21
REMARK                            x       y       z     vdW  Elec       q    Type
REMARK                         _______ _______ _______ _____ _____    ______ ____
ROOT
ATOM      1  C   UNL     1       1.721   6.397  19.993  0.00  0.00    +0.000 A 
ATOM      2  C   UNL     1       1.220   5.344  20.766  0.00  0.00    +0.000 A 
ATOM      3  C   UNL     1       1.101   4.072  20.222  0.00  0.00    +0.000 A 
ATOM      4  C   UNL     1       2.371   3.781  19.714  0.00  0.00    +0.000 A 
ATOM      5  C   UNL     1       3.509   3.156  20.296  0.00  0.00    +0.000 A 
ATOM      6  C   UNL     1       4.584   3.407  19.482  0.00  0.00    +0.000 A 
ATOM      7  N   UNL     1       4.087   4.041  18.341  0.00  0.00    +0.000 N 
ATOM      8  C   UNL     1       2.909   4.678  18.770  0.00  0.00    +0.000 A 
ATOM      9  C   UNL     1       2.464   6.043  18.815  0.00  0.00    +0.000 A 
ENDROOT
BRANCH   1  15
ATOM     10  C   UNL     1       1.477   9.030  19.996  0.00  0.00    +0.000 A 
ATOM     11  C   UNL     1       1.265   9.929  21.068  0.00  0.00    +0.000 A 
ATOM     12  N   UNL     1       0.978  11.235  20.961  0.00  0.00    +0.000 N 
ATOM     13  N   UNL     1       1.361   9.314  22.240  0.00  0.00    +0.000 NA
ATOM     14  N   UNL     1       1.607   8.032  21.922  0.00  0.00    +0.000 N 
ATOM     15  C   UNL     1       1.623   7.763  20.573  0.00  0.00    +0.000 A 
ATOM     16  H   UNL     1       0.616  11.646  20.107  0.00  0.00    +0.000 HD
ATOM     17  H   UNL     1       0.655  11.700  21.803  0.00  0.00    +0.000 HD
ATOM     18  H   UNL     1       1.723   7.379  22.687  0.00  0.00    +0.000 HD
BRANCH  10  20
ATOM     19  N   UNL     1       1.476   9.694  17.484  0.00  0.00    +0.000 NA
ATOM     20  C   UNL     1       1.468   9.400  18.604  0.00  0.00    +0.000 C 
ENDBRANCH  10  20
ENDBRANCH   1  15
BRANCH   7  21
ATOM     21  C   UNL     1       4.311   3.356  17.046  0.00  0.00    +0.000 C 
BRANCH  21  22
ATOM     22  C   UNL     1       5.374   3.994  16.170  0.00  0.00    +0.000 A 
ATOM     23  C   UNL     1       6.324   4.885  16.685  0.00  0.00    +0.000 A 
ATOM     24  C   UNL     1       7.291   5.450  15.842  0.00  0.00    +0.000 A 
ATOM     25  C   UNL     1       7.273   5.092  14.506  0.00  0.00    +0.000 A 
ATOM     26  N   UNL     1       6.414   4.203  13.983  0.00  0.00    +0.000 NA
ATOM     27  C   UNL     1       5.487   3.674  14.822  0.00  0.00    +0.000 A 
BRANCH  25  28
ATOM     28  O   UNL     1       8.149   5.638  13.613  0.00  0.00    +0.000 OA
ATOM     29  H   UNL     1       9.035   5.582  13.996  0.00  0.00    +0.000 HD
ENDBRANCH  25  28
ENDBRANCH  21  22
ENDBRANCH   7  21
TORSDOF 5
ENDMDL
MODEL 4
REMARK VINA RESULT:      -7.6      2.820      7.331
REMARK  Name = 
REMARK  5 active torsions:
REMARK  status: ('A' for Active; 'I' for Inactive)
REMARK    1  A    between atoms: C_2  and  C_3
REMARK    2  A    between atoms: C_8  and  C_9
REMARK    3  A    between atoms: N_15  and  C_16
REMARK    4  A    between atoms: C_16  and  C_17
REMARK    5  A    between atoms: C_20  and  O_21
REMARK                            x       y       z     vdW  Elec       q    Type
REMARK                         _______ _______ _______ _____ _____    ______ ____
ROOT
ATOM      1  C   UNL     1       4.992   4.426  18.159  0.00  0.00    +0.000 A 
ATOM      2  C   UNL     1       4.838   3.150  18.711  0.00  0.00    +0.000 A 
ATOM      3  C   UNL     1       4.381   3.002  20.013  0.00  0.00    +0.000 A 
ATOM      4  C   UNL     1       3.189   3.732  20.058  0.00  0.00    +0.000 A 
ATOM      5  C   UNL     1       1.838   3.365  19.807  0.00  0.00    +0.000 A 
ATOM      6  C   UNL     1       1.110   4.521  19.679  0.00  0.00    +0.000 A 
ATOM      7  N   UNL     1       1.966   5.576  20.002  0.00  0.00    +0.000 N 
ATOM      8  C   UNL     1       3.254   5.095  19.705  0.00  0.00    +0.000 A 
ATOM      9  C   UNL     1       4.297   5.504  18.806  0.00  0.00    +0.000 A 
ENDROOT
BRANCH   1  15
ATOM     10  C   UNL     1       6.574   5.439  16.297  0.00  0.00    +0.000 A 
ATOM     11  C   UNL     1       7.017   4.887  15.072  0.00  0.00    +0.000 A 
ATOM     12  N   UNL     1       7.960   5.401  14.268  0.00  0.00    +0.000 N 
ATOM     13  N   UNL     1       6.394   3.747  14.802  0.00  0.00    +0.000 NA
ATOM     14  N   UNL     1       5.579   3.559  15.854  0.00  0.00    +0.000 N 
ATOM     15  C   UNL     1       5.679   4.511  16.842  0.00  0.00    +0.000 A 
ATOM     16  H   UNL     1       8.638   6.084  14.588  0.00  0.00    +0.000 HD
ATOM     17  H   UNL     1       8.313   4.794  13.535  0.00  0.00    +0.000 HD
ATOM     18  H   UNL     1       4.996   2.732  15.845  0.00  0.00    +0.000 HD
BRANCH  10  20
ATOM     19  N   UNL     1       7.406   7.697  17.279  0.00  0.00    +0.000 NA
ATOM     20  C   UNL     1       7.039   6.687  16.848  0.00  0.00    +0.000 C 
ENDBRANCH  10  20
ENDBRANCH   1  15
BRANCH   7  21
ATOM     21  C   UNL     1       1.573   6.427  21.150  0.00  0.00    +0.000 C 
BRANCH  21  22
ATOM     22  C   UNL     1       1.169   7.842  20.777  0.00  0.00    +0.000 A 
ATOM     23  C   UNL     1       0.369   8.631  21.614  0.00  0.00    +0.000 A 
ATOM     24  C   UNL     1       0.021   9.935  21.233  0.00  0.00    +0.000 A 
ATOM     25  C   UNL     1       0.498  10.404  20.022  0.00  0.00    +0.000 A 
ATOM     26  N   UNL     1       1.311   9.701  19.217  0.00  0.00    +0.000 NA
ATOM     27  C   UNL     1       1.628   8.441  19.610  0.00  0.00    +0.000 A 
BRANCH  25  28
ATOM     28  O   UNL     1       0.163  11.643  19.559  0.00  0.00    +0.000 OA
ATOM     29  H   UNL     1       0.462  12.293  20.209  0.00  0.00    +0.000 HD
ENDBRANCH  25  28
ENDBRANCH  21  22
ENDBRANCH   7  21
TORSDOF 5
ENDMDL
MODEL 5
REMARK VINA RESULT:      -7.3      3.951      6.597
REMARK  Name = 
REMARK  5 active torsions:
REMARK  status: ('A' for Active; 'I' for Inactive)
REMARK    1  A    between atoms: C_2  and  C_3
REMARK    2  A    between atoms: C_8  and  C_9
REMARK    3  A    between atoms: N_15  and  C_16
REMARK    4  A    between atoms: C_16  and  C_17
REMARK    5  A    between atoms: C_20  and  O_21
REMARK                            x       y       z     vdW  Elec       q    Type
REMARK                         _______ _______ _______ _____ _____    ______ ____
ROOT
ATOM      1  C   UNL     1      -1.090  11.184  19.110  0.00  0.00    +0.000 A 
ATOM      2  C   UNL     1      -0.094  12.120  18.810  0.00  0.00    +0.000 A 
ATOM      3  C   UNL     1       1.189  11.963  19.317  0.00  0.00    +0.000 A 
ATOM      4  C   UNL     1       1.565  10.670  18.941  0.00  0.00    +0.000 A 
ATOM      5  C   UNL     1       2.228  10.169  17.786  0.00  0.00    +0.000 A 
ATOM      6  C   UNL     1       2.064   8.808  17.770  0.00  0.00    +0.000 A 
ATOM      7  N   UNL     1       1.447   8.461  18.974  0.00  0.00    +0.000 N 
ATOM      8  C   UNL     1       0.733   9.611  19.354  0.00  0.00    +0.000 A 
ATOM      9  C   UNL     1      -0.654   9.901  19.587  0.00  0.00    +0.000 A 
ENDROOT
BRANCH   1  15
ATOM     10  C   UNL     1      -3.257  11.186  17.595  0.00  0.00    +0.000 A 
ATOM     11  C   UNL     1      -4.559  11.672  17.859  0.00  0.00    +0.000 A 
ATOM     12  N   UNL     1      -5.647  11.475  17.099  0.00  0.00    +0.000 N 
ATOM     13  N   UNL     1      -4.599  12.352  18.998  0.00  0.00    +0.000 NA
ATOM     14  N   UNL     1      -3.342  12.281  19.469  0.00  0.00    +0.000 N 
ATOM     15  C   UNL     1      -2.480  11.529  18.707  0.00  0.00    +0.000 A 
ATOM     16  H   UNL     1      -5.704  10.735  16.408  0.00  0.00    +0.000 HD
ATOM     17  H   UNL     1      -6.542  11.709  17.517  0.00  0.00    +0.000 HD
ATOM     18  H   UNL     1      -3.150  12.751  20.346  0.00  0.00    +0.000 HD
BRANCH  10  20
ATOM     19  N   UNL     1      -2.599   9.825  15.481  0.00  0.00    +0.000 NA
ATOM     20  C   UNL     1      -2.886  10.437  16.421  0.00  0.00    +0.000 C 
ENDBRANCH  10  20
ENDBRANCH   1  15
BRANCH   7  21
ATOM     21  C   UNL     1       2.190   7.536  19.862  0.00  0.00    +0.000 C 
BRANCH  21  22
ATOM     22  C   UNL     1       1.959   6.062  19.575  0.00  0.00    +0.000 A 
ATOM     23  C   UNL     1       1.377   5.205  20.517  0.00  0.00    +0.000 A 
ATOM     24  C   UNL     1       1.178   3.851  20.210  0.00  0.00    +0.000 A 
ATOM     25  C   UNL     1       1.568   3.408  18.959  0.00  0.00    +0.000 A 
ATOM     26  N   UNL     1       2.079   4.207  18.010  0.00  0.00    +0.000 NA
ATOM     27  C   UNL     1       2.263   5.512  18.335  0.00  0.00    +0.000 A 
BRANCH  25  28
ATOM     28  O   UNL     1       1.454   2.095  18.604  0.00  0.00    +0.000 OA
ATOM     29  H   UNL     1       2.288   1.657  18.819  0.00  0.00    +0.000 HD
ENDBRANCH  25  28
ENDBRANCH  21  22
ENDBRANCH   7  21
TORSDOF 5
ENDMDL
MODEL 6
REMARK VINA RESULT:      -7.3      2.081      3.806
REMARK  Name = 
REMARK  5 active torsions:
REMARK  status: ('A' for Active; 'I' for Inactive)
REMARK    1  A    between atoms: C_2  and  C_3
REMARK    2  A    between atoms: C_8  and  C_9
REMARK    3  A    between atoms: N_15  and  C_16
REMARK    4  A    between atoms: C_16  and  C_17
REMARK    5  A    between atoms: C_20  and  O_21
REMARK                            x       y       z     vdW  Elec       q    Type
REMARK                         _______ _______ _______ _____ _____    ______ ____
ROOT
ATOM      1  C   UNL     1       1.209   9.076  19.569  0.00  0.00    +0.000 A 
ATOM      2  C   UNL     1       1.477   9.145  18.198  0.00  0.00    +0.000 A 
ATOM      3  C   UNL     1       2.591   8.507  17.670  0.00  0.00    +0.000 A 
ATOM      4  C   UNL     1       2.486   7.183  18.110  0.00  0.00    +0.000 A 
ATOM      5  C   UNL     1       1.866   6.036  17.539  0.00  0.00    +0.000 A 
ATOM      6  C   UNL     1       1.778   5.080  18.518  0.00  0.00    +0.000 A 
ATOM      7  N   UNL     1       2.471   5.572  19.626  0.00  0.00    +0.000 N 
ATOM      8  C   UNL     1       2.402   6.971  19.500  0.00  0.00    +0.000 A 
ATOM      9  C   UNL     1       1.856   8.026  20.307  0.00  0.00    +0.000 A 
ENDROOT
BRANCH   1  15
ATOM     10  C   UNL     1      -0.267  10.311  21.382  0.00  0.00    +0.000 A 
ATOM     11  C   UNL     1      -1.254  11.314  21.231  0.00  0.00    +0.000 A 
ATOM     12  N   UNL     1      -1.832  12.012  22.221  0.00  0.00    +0.000 N 
ATOM     13  N   UNL     1      -1.544  11.518  19.952  0.00  0.00    +0.000 NA
ATOM     14  N   UNL     1      -0.735  10.673  19.291  0.00  0.00    +0.000 N 
ATOM     15  C   UNL     1       0.124   9.952  20.087  0.00  0.00    +0.000 A 
ATOM     16  H   UNL     1      -1.425  12.083  23.147  0.00  0.00    +0.000 HD
ATOM     17  H   UNL     1      -2.366  12.830  21.949  0.00  0.00    +0.000 HD
ATOM     18  H   UNL     1      -0.801  10.664  18.281  0.00  0.00    +0.000 HD
BRANCH  10  20
ATOM     19  N   UNL     1       0.626   9.463  23.670  0.00  0.00    +0.000 NA
ATOM     20  C   UNL     1       0.236   9.843  22.648  0.00  0.00    +0.000 C 
ENDBRANCH  10  20
ENDBRANCH   1  15
BRANCH   7  21
ATOM     21  C   UNL     1       3.627   4.773  20.098  0.00  0.00    +0.000 C 
BRANCH  21  22
ATOM     22  C   UNL     1       4.809   4.750  19.145  0.00  0.00    +0.000 A 
ATOM     23  C   UNL     1       5.975   5.487  19.390  0.00  0.00    +0.000 A 
ATOM     24  C   UNL     1       7.045   5.434  18.486  0.00  0.00    +0.000 A 
ATOM     25  C   UNL     1       6.907   4.635  17.366  0.00  0.00    +0.000 A 
ATOM     26  N   UNL     1       5.829   3.873  17.121  0.00  0.00    +0.000 NA
ATOM     27  C   UNL     1       4.808   3.945  18.012  0.00  0.00    +0.000 A 
BRANCH  25  28
ATOM     28  O   UNL     1       7.884   4.571  16.415  0.00  0.00    +0.000 OA
ATOM     29  H   UNL     1       7.695   3.812  15.847  0.00  0.00    +0.000 HD
ENDBRANCH  25  28
ENDBRANCH  21  22
ENDBRANCH   7  21
TORSDOF 5
ENDMDL
MODEL 7
REMARK VINA RESULT:      -7.2      1.167      2.062
REMARK  Name = 
REMARK  5 active torsions:
REMARK  status: ('A' for Active; 'I' for Inactive)
REMARK    1  A    between atoms: C_2  and  C_3
REMARK    2  A    between atoms: C_8  and  C_9
REMARK    3  A    between atoms: N_15  and  C_16
REMARK    4  A    between atoms: C_16  and  C_17
REMARK    5  A    between atoms: C_20  and  O_21
REMARK                            x       y       z     vdW  Elec       q    Type
REMARK                         _______ _______ _______ _____ _____    ______ ____
ROOT
ATOM      1  C   UNL     1       2.154   7.323  18.807  0.00  0.00    +0.000 A 
ATOM      2  C   UNL     1       2.115   6.640  20.028  0.00  0.00    +0.000 A 
ATOM      3  C   UNL     1       2.278   5.262  20.063  0.00  0.00    +0.000 A 
ATOM      4  C   UNL     1       3.473   5.026  19.377  0.00  0.00    +0.000 A 
ATOM      5  C   UNL     1       4.824   4.948  19.816  0.00  0.00    +0.000 A 
ATOM      6  C   UNL     1       5.627   5.017  18.707  0.00  0.00    +0.000 A 
ATOM      7  N   UNL     1       4.784   4.980  17.594  0.00  0.00    +0.000 N 
ATOM      8  C   UNL     1       3.562   5.504  18.054  0.00  0.00    +0.000 A 
ATOM      9  C   UNL     1       2.757   6.638  17.697  0.00  0.00    +0.000 A 
ENDROOT
BRANCH   1  15
ATOM     10  C   UNL     1       0.997   9.520  19.715  0.00  0.00    +0.000 A 
ATOM     11  C   UNL     1       1.132  10.866  19.298  0.00  0.00    +0.000 A 
ATOM     12  N   UNL     1       0.640  11.943  19.929  0.00  0.00    +0.000 N 
ATOM     13  N   UNL     1       1.846  10.957  18.184  0.00  0.00    +0.000 NA
ATOM     14  N   UNL     1       2.186   9.687  17.904  0.00  0.00    +0.000 N 
ATOM     15  C   UNL     1       1.765   8.759  18.827  0.00  0.00    +0.000 A 
ATOM     16  H   UNL     1       0.360  11.925  20.904  0.00  0.00    +0.000 HD
ATOM     17  H   UNL     1       0.987  12.847  19.625  0.00  0.00    +0.000 HD
ATOM     18  H   UNL     1       2.739   9.529  17.072  0.00  0.00    +0.000 HD
BRANCH  10  20
ATOM     19  N   UNL     1      -0.357   8.744  21.793  0.00  0.00    +0.000 NA
ATOM     20  C   UNL     1       0.252   9.093  20.873  0.00  0.00    +0.000 C 
ENDBRANCH  10  20
ENDBRANCH   1  15
BRANCH   7  21
ATOM     21  C   UNL     1       4.974   3.855  16.649  0.00  0.00    +0.000 C 
BRANCH  21  22
ATOM     22  C   UNL     1       5.779   4.201  15.409  0.00  0.00    +0.000 A 
ATOM     23  C   UNL     1       5.485   3.648  14.156  0.00  0.00    +0.000 A 
ATOM     24  C   UNL     1       6.251   3.997  13.034  0.00  0.00    +0.000 A 
ATOM     25  C   UNL     1       7.285   4.898  13.213  0.00  0.00    +0.000 A 
ATOM     26  N   UNL     1       7.566   5.491  14.384  0.00  0.00    +0.000 NA
ATOM     27  C   UNL     1       6.810   5.132  15.453  0.00  0.00    +0.000 A 
BRANCH  25  28
ATOM     28  O   UNL     1       8.107   5.248  12.181  0.00  0.00    +0.000 OA
ATOM     29  H   UNL     1       8.384   4.437  11.734  0.00  0.00    +0.000 HD
ENDBRANCH  25  28
ENDBRANCH  21  22
ENDBRANCH   7  21
TORSDOF 5
ENDMDL
MODEL 8
REMARK VINA RESULT:      -7.2      3.711      6.058
REMARK  Name = 
REMARK  5 active torsions:
REMARK  status: ('A' for Active; 'I' for Inactive)
REMARK    1  A    between atoms: C_2  and  C_3
REMARK    2  A    between atoms: C_8  and  C_9
REMARK    3  A    between atoms: N_15  and  C_16
REMARK    4  A    between atoms: C_16  and  C_17
REMARK    5  A    between atoms: C_20  and  O_21
REMARK                            x       y       z     vdW  Elec       q    Type
REMARK                         _______ _______ _______ _____ _____    ______ ____
ROOT
ATOM      1  C   UNL     1      -1.121  11.193  19.073  0.00  0.00    +0.000 A 
ATOM      2  C   UNL     1      -0.122  12.135  18.807  0.00  0.00    +0.000 A 
ATOM      3  C   UNL     1       1.150  11.975  19.340  0.00  0.00    +0.000 A 
ATOM      4  C   UNL     1       1.538  10.687  18.956  0.00  0.00    +0.000 A 
ATOM      5  C   UNL     1       2.227  10.203  17.810  0.00  0.00    +0.000 A 
ATOM      6  C   UNL     1       2.068   8.841  17.772  0.00  0.00    +0.000 A 
ATOM      7  N   UNL     1       1.425   8.477  18.958  0.00  0.00    +0.000 N 
ATOM      8  C   UNL     1       0.699   9.621  19.337  0.00  0.00    +0.000 A 
ATOM      9  C   UNL     1      -0.693   9.905  19.543  0.00  0.00    +0.000 A 
ENDROOT
BRANCH   1  15
ATOM     10  C   UNL     1      -3.258  11.201  17.514  0.00  0.00    +0.000 A 
ATOM     11  C   UNL     1      -4.565  11.686  17.755  0.00  0.00    +0.000 A 
ATOM     12  N   UNL     1      -5.638  11.493  16.972  0.00  0.00    +0.000 N 
ATOM     13  N   UNL     1      -4.628  12.362  18.896  0.00  0.00    +0.000 NA
ATOM     14  N   UNL     1      -3.381  12.289  19.391  0.00  0.00    +0.000 N 
ATOM     15  C   UNL     1      -2.503  11.540  18.644  0.00  0.00    +0.000 A 
ATOM     16  H   UNL     1      -5.680  10.755  16.278  0.00  0.00    +0.000 HD
ATOM     17  H   UNL     1      -6.541  11.725  17.373  0.00  0.00    +0.000 HD
ATOM     18  H   UNL     1      -3.206  12.754  20.273  0.00  0.00    +0.000 HD
BRANCH  10  20
ATOM     19  N   UNL     1      -2.555   9.870  15.397  0.00  0.00    +0.000 NA
ATOM     20  C   UNL     1      -2.863  10.457  16.345  0.00  0.00    +0.000 C 
ENDBRANCH  10  20
ENDBRANCH   1  15
BRANCH   7  21
ATOM     21  C   UNL     1       2.151   7.543  19.851  0.00  0.00    +0.000 C 
BRANCH  21  22
ATOM     22  C   UNL     1       2.708   6.312  19.157  0.00  0.00    +0.000 A 
ATOM     23  C   UNL     1       1.923   5.517  18.313  0.00  0.00    +0.000 A 
ATOM     24  C   UNL     1       2.478   4.390  17.689  0.00  0.00    +0.000 A 
ATOM     25  C   UNL     1       3.809   4.106  17.934  0.00  0.00    +0.000 A 
ATOM     26  N   UNL     1       4.609   4.871  18.693  0.00  0.00    +0.000 NA
ATOM     27  C   UNL     1       4.045   5.954  19.286  0.00  0.00    +0.000 A 
BRANCH  25  28
ATOM     28  O   UNL     1       4.407   2.999  17.404  0.00  0.00    +0.000 OA
ATOM     29  H   UNL     1       4.219   2.253  17.989  0.00  0.00    +0.000 HD
ENDBRANCH  25  28
ENDBRANCH  21  22
ENDBRANCH   7  21
TORSDOF 5
ENDMDL
MODEL 9
REMARK VINA RESULT:      -7.1      4.273      8.022
REMARK  Name = 
REMARK  5 active torsions:
REMARK  status: ('A' for Active; 'I' for Inactive)
REMARK    1  A    between atoms: C_2  and  C_3
REMARK    2  A    between atoms: C_8  and  C_9
REMARK    3  A    between atoms: N_15  and  C_16
REMARK    4  A    between atoms: C_16  and  C_17
REMARK    5  A    between atoms: C_20  and  O_21
REMARK                            x       y       z     vdW  Elec       q    Type
REMARK                         _______ _______ _______ _____ _____    ______ ____
ROOT
ATOM      1  C   UNL     1       5.396   4.684  14.948  0.00  0.00    +0.000 A 
ATOM      2  C   UNL     1       5.442   6.080  15.019  0.00  0.00    +0.000 A 
ATOM      3  C   UNL     1       4.901   6.743  16.112  0.00  0.00    +0.000 A 
ATOM      4  C   UNL     1       5.505   6.148  17.225  0.00  0.00    +0.000 A 
ATOM      5  C   UNL     1       6.695   6.458  17.940  0.00  0.00    +0.000 A 
ATOM      6  C   UNL     1       6.994   5.382  18.736  0.00  0.00    +0.000 A 
ATOM      7  N   UNL     1       5.923   4.491  18.630  0.00  0.00    +0.000 N 
ATOM      8  C   UNL     1       5.363   4.754  17.367  0.00  0.00    +0.000 A 
ATOM      9  C   UNL     1       5.161   3.976  16.177  0.00  0.00    +0.000 A 
ENDROOT
BRANCH   1  15
ATOM     10  C   UNL     1       6.922   4.237  12.834  0.00  0.00    +0.000 A 
ATOM     11  C   UNL     1       6.836   3.237  11.838  0.00  0.00    +0.000 A 
ATOM     12  N   UNL     1       7.755   2.976  10.896  0.00  0.00    +0.000 N 
ATOM     13  N   UNL     1       5.714   2.536  11.951  0.00  0.00    +0.000 NA
ATOM     14  N   UNL     1       5.101   3.067  13.023  0.00  0.00    +0.000 N 
ATOM     15  C   UNL     1       5.804   4.062  13.659  0.00  0.00    +0.000 A 
ATOM     16  H   UNL     1       8.718   3.286  10.973  0.00  0.00    +0.000 HD
ATOM     17  H   UNL     1       7.649   2.106  10.385  0.00  0.00    +0.000 HD
ATOM     18  H   UNL     1       4.205   2.673  13.285  0.00  0.00    +0.000 HD
BRANCH  10  20
ATOM     19  N   UNL     1       8.881   5.928  13.068  0.00  0.00    +0.000 NA
ATOM     20  C   UNL     1       8.005   5.179  12.957  0.00  0.00    +0.000 C 
ENDBRANCH  10  20
ENDBRANCH   1  15
BRANCH   7  21
ATOM     21  C   UNL     1       5.195   4.171  19.881  0.00  0.00    +0.000 C 
BRANCH  21  22
ATOM     22  C   UNL     1       3.757   3.727  19.678  0.00  0.00    +0.000 A 
ATOM     23  C   UNL     1       2.681   4.614  19.809  0.00  0.00    +0.000 A 
ATOM     24  C   UNL     1       1.368   4.164  19.610  0.00  0.00    +0.000 A 
ATOM     25  C   UNL     1       1.184   2.834  19.280  0.00  0.00    +0.000 A 
ATOM     26  N   UNL     1       2.189   1.965  19.093  0.00  0.00    +0.000 NA
ATOM     27  C   UNL     1       3.449   2.427  19.295  0.00  0.00    +0.000 A 
BRANCH  25  28
ATOM     28  O   UNL     1      -0.066   2.309  19.120  0.00  0.00    +0.000 OA
ATOM     29  H   UNL     1      -0.052   1.746  18.335  0.00  0.00    +0.000 HD
ENDBRANCH  25  28
ENDBRANCH  21  22
ENDBRANCH   7  21
TORSDOF 5
ENDMDL
