MODEL 1
REMARK VINA RESULT:      -7.1      0.000      0.000
REMARK  Name = 
REMARK  7 active torsions:
REMARK  status: ('A' for Active; 'I' for Inactive)
REMARK    1  A    between atoms: C_1  and  C_2
REMARK    2  A    between atoms: C_2  and  O_4
REMARK    3  A    between atoms: O_4  and  C_5
REMARK    4  A    between atoms: C_8  and  C_9
REMARK    5  A    between atoms: C_9  and  O_10
REMARK    6  A    between atoms: O_10  and  C_11
REMARK    7  A    between atoms: C_11  and  C_13
REMARK                            x       y       z     vdW  Elec       q    Type
REMARK                         _______ _______ _______ _____ _____    ______ ____
ROOT
ATOM      1  C   UNL     1       3.220   3.420  18.859  0.00  0.00    +0.000 A 
ATOM      2  C   UNL     1       4.436   3.609  19.508  0.00  0.00    +0.000 A 
ATOM      3  C   UNL     1       5.287   4.636  19.087  0.00  0.00    +0.000 A 
ATOM      4  C   UNL     1       4.927   5.465  18.012  0.00  0.00    +0.000 A 
ATOM      5  C   UNL     1       3.701   5.260  17.371  0.00  0.00    +0.000 A 
ATOM      6  C   UNL     1       2.856   4.231  17.783  0.00  0.00    +0.000 A 
ENDROOT
BRANCH   1   7
ATOM      7  O   UNL     1       2.453   2.298  19.218  0.00  0.00    +0.000 OA
BRANCH   7   9
ATOM      8  C   UNL     1       1.034   3.012  20.951  0.00  0.00    +0.000 C 
ATOM      9  C   UNL     1       1.116   2.505  19.544  0.00  0.00    +0.000 C 
ATOM     10  O   UNL     1       0.142   2.282  18.837  0.00  0.00    +0.000 OA
ENDBRANCH   7   9
ENDBRANCH   1   7
BRANCH   4  11
ATOM     11  C   UNL     1       5.864   6.541  17.526  0.00  0.00    +0.000 C 
BRANCH  11  12
ATOM     12  O   UNL     1       6.224   6.312  16.158  0.00  0.00    +0.000 OA
BRANCH  12  13
ATOM     13  C   UNL     1       7.084   5.286  15.942  0.00  0.00    +0.000 C 
ATOM     14  O   UNL     1       7.787   4.740  16.781  0.00  0.00    +0.000 OA
BRANCH  13  15
ATOM     15  C   UNL     1       7.067   4.893  14.511  0.00  0.00    +0.000 A 
ATOM     16  C   UNL     1       6.210   3.879  14.105  0.00  0.00    +0.000 A 
ATOM     17  N   UNL     1       6.131   3.463  12.814  0.00  0.00    +0.000 NA
ATOM     18  C   UNL     1       6.949   4.106  11.949  0.00  0.00    +0.000 A 
ATOM     19  C   UNL     1       7.809   5.116  12.351  0.00  0.00    +0.000 A 
ATOM     20  N   UNL     1       7.890   5.534  13.634  0.00  0.00    +0.000 NA
ENDBRANCH  13  15
ENDBRANCH  12  13
ENDBRANCH  11  12
ENDBRANCH   4  11
TORSDOF 6
ENDMDL
MODEL 2
REMARK VINA RESULT:      -6.8      1.116      1.309
REMARK  Name = 
REMARK  7 active torsions:
REMARK  status: ('A' for Active; 'I' for Inactive)
REMARK    1  A    between atoms: C_1  and  C_2
REMARK    2  A    between atoms: C_2  and  O_4
REMARK    3  A    between atoms: O_4  and  C_5
REMARK    4  A    between atoms: C_8  and  C_9
REMARK    5  A    between atoms: C_9  and  O_10
REMARK    6  A    between atoms: O_10  and  C_11
REMARK    7  A    between atoms: C_11  and  C_13
REMARK                            x       y       z     vdW  Elec       q    Type
REMARK                         _______ _______ _______ _____ _____    ______ ____
ROOT
ATOM      1  C   UNL     1       2.956   5.395  18.551  0.00  0.00    +0.000 A 
ATOM      2  C   UNL     1       3.999   4.810  19.261  0.00  0.00    +0.000 A 
ATOM      3  C   UNL     1       5.312   5.224  19.018  0.00  0.00    +0.000 A 
ATOM      4  C   UNL     1       5.582   6.214  18.059  0.00  0.00    +0.000 A 
ATOM      5  C   UNL     1       4.521   6.790  17.353  0.00  0.00    +0.000 A 
ATOM      6  C   UNL     1       3.212   6.373  17.588  0.00  0.00    +0.000 A 
ENDROOT
BRANCH   1   7
ATOM      7  O   UNL     1       1.666   4.861  18.721  0.00  0.00    +0.000 OA
BRANCH   7   9
ATOM      8  C   UNL     1       0.929   2.901  19.789  0.00  0.00    +0.000 C 
ATOM      9  C   UNL     1       1.504   3.491  18.539  0.00  0.00    +0.000 C 
ATOM     10  O   UNL     1       1.808   2.838  17.549  0.00  0.00    +0.000 OA
ENDBRANCH   7   9
ENDBRANCH   1   7
BRANCH   4  11
ATOM     11  C   UNL     1       7.002   6.627  17.761  0.00  0.00    +0.000 C 
BRANCH  11  12
ATOM     12  O   UNL     1       7.333   6.336  16.399  0.00  0.00    +0.000 OA
BRANCH  12  13
ATOM     13  C   UNL     1       7.537   5.027  16.112  0.00  0.00    +0.000 C 
ATOM     14  O   UNL     1       7.895   4.159  16.897  0.00  0.00    +0.000 OA
BRANCH  13  15
ATOM     15  C   UNL     1       7.263   4.765  14.676  0.00  0.00    +0.000 A 
ATOM     16  C   UNL     1       6.284   3.841  14.339  0.00  0.00    +0.000 A 
ATOM     17  N   UNL     1       5.970   3.547  13.050  0.00  0.00    +0.000 NA
ATOM     18  C   UNL     1       6.680   4.220  12.115  0.00  0.00    +0.000 A 
ATOM     19  C   UNL     1       7.661   5.141  12.448  0.00  0.00    +0.000 A 
ATOM     20  N   UNL     1       7.976   5.436  13.729  0.00  0.00    +0.000 NA
ENDBRANCH  13  15
ENDBRANCH  12  13
ENDBRANCH  11  12
ENDBRANCH   4  11
TORSDOF 6
ENDMDL
MODEL 3
REMARK VINA RESULT:      -6.6      2.475      3.530
REMARK  Name = 
REMARK  7 active torsions:
REMARK  status: ('A' for Active; 'I' for Inactive)
REMARK    1  A    between atoms: C_1  and  C_2
REMARK    2  A    between atoms: C_2  and  O_4
REMARK    3  A    between atoms: O_4  and  C_5
REMARK    4  A    between atoms: C_8  and  C_9
REMARK    5  A    between atoms: C_9  and  O_10
REMARK    6  A    between atoms: O_10  and  C_11
REMARK    7  A    between atoms: C_11  and  C_13
REMARK                            x       y       z     vdW  Elec       q    Type
REMARK                         _______ _______ _______ _____ _____    ______ ____
ROOT
ATOM      1  C   UNL     1       2.883   5.015  19.759  0.00  0.00    +0.000 A 
ATOM      2  C   UNL     1       2.781   6.323  19.297  0.00  0.00    +0.000 A 
ATOM      3  C   UNL     1       3.347   6.662  18.064  0.00  0.00    +0.000 A 
ATOM      4  C   UNL     1       4.022   5.697  17.299  0.00  0.00    +0.000 A 
ATOM      5  C   UNL     1       4.116   4.387  17.779  0.00  0.00    +0.000 A 
ATOM      6  C   UNL     1       3.560   4.049  19.012  0.00  0.00    +0.000 A 
ENDROOT
BRANCH   1   7
ATOM      7  O   UNL     1       2.424   4.741  21.059  0.00  0.00    +0.000 OA
BRANCH   7   9
ATOM      8  C   UNL     1       0.667   3.344  20.358  0.00  0.00    +0.000 C 
ATOM      9  C   UNL     1       1.830   3.503  21.288  0.00  0.00    +0.000 C 
ATOM     10  O   UNL     1       2.154   2.675  22.129  0.00  0.00    +0.000 OA
ENDBRANCH   7   9
ENDBRANCH   1   7
BRANCH   4  11
ATOM     11  C   UNL     1       4.674   6.073  15.992  0.00  0.00    +0.000 C 
BRANCH  11  12
ATOM     12  O   UNL     1       5.506   5.005  15.523  0.00  0.00    +0.000 OA
BRANCH  12  13
ATOM     13  C   UNL     1       6.834   5.276  15.471  0.00  0.00    +0.000 C 
ATOM     14  O   UNL     1       7.548   5.218  14.480  0.00  0.00    +0.000 OA
BRANCH  13  15
ATOM     15  C   UNL     1       7.332   5.665  16.814  0.00  0.00    +0.000 A 
ATOM     16  C   UNL     1       7.530   4.676  17.768  0.00  0.00    +0.000 A 
ATOM     17  N   UNL     1       7.987   4.950  19.019  0.00  0.00    +0.000 NA
ATOM     18  C   UNL     1       8.235   6.256  19.271  0.00  0.00    +0.000 A 
ATOM     19  C   UNL     1       8.034   7.246  18.322  0.00  0.00    +0.000 A 
ATOM     20  N   UNL     1       7.580   6.979  17.077  0.00  0.00    +0.000 NA
ENDBRANCH  13  15
ENDBRANCH  12  13
ENDBRANCH  11  12
ENDBRANCH   4  11
TORSDOF 6
ENDMDL
MODEL 4
REMARK VINA RESULT:      -6.6      1.353      1.396
REMARK  Name = 
REMARK  7 active torsions:
REMARK  status: ('A' for Active; 'I' for Inactive)
REMARK    1  A    between atoms: C_1  and  C_2
REMARK    2  A    between atoms: C_2  and  O_4
REMARK    3  A    between atoms: O_4  and  C_5
REMARK    4  A    between atoms: C_8  and  C_9
REMARK    5  A    between atoms: C_9  and  O_10
REMARK    6  A    between atoms: O_10  and  C_11
REMARK    7  A    between atoms: C_11  and  C_13
REMARK                            x       y       z     vdW  Elec       q    Type
REMARK                         _______ _______ _______ _____ _____    ______ ____
ROOT
ATOM      1  C   UNL     1       2.612   5.193  20.134  0.00  0.00    +0.000 A 
ATOM      2  C   UNL     1       3.713   4.443  19.734  0.00  0.00    +0.000 A 
ATOM      3  C   UNL     1       4.523   4.911  18.695  0.00  0.00    +0.000 A 
ATOM      4  C   UNL     1       4.226   6.123  18.049  0.00  0.00    +0.000 A 
ATOM      5  C   UNL     1       3.114   6.864  18.463  0.00  0.00    +0.000 A 
ATOM      6  C   UNL     1       2.301   6.394  19.493  0.00  0.00    +0.000 A 
ENDROOT
BRANCH   1   7
ATOM      7  O   UNL     1       1.746   4.629  21.086  0.00  0.00    +0.000 OA
BRANCH   7   9
ATOM      8  C   UNL     1       1.670   2.452  21.969  0.00  0.00    +0.000 C 
ATOM      9  C   UNL     1       1.261   3.348  20.841  0.00  0.00    +0.000 C 
ATOM     10  O   UNL     1       0.636   2.972  19.858  0.00  0.00    +0.000 OA
ENDBRANCH   7   9
ENDBRANCH   1   7
BRANCH   4  11
ATOM     11  C   UNL     1       5.069   6.605  16.896  0.00  0.00    +0.000 C 
BRANCH  11  12
ATOM     12  O   UNL     1       5.334   5.531  15.985  0.00  0.00    +0.000 OA
BRANCH  12  13
ATOM     13  C   UNL     1       6.643   5.245  15.780  0.00  0.00    +0.000 C 
ATOM     14  O   UNL     1       7.532   5.274  16.619  0.00  0.00    +0.000 OA
BRANCH  13  15
ATOM     15  C   UNL     1       6.873   4.879  14.360  0.00  0.00    +0.000 A 
ATOM     16  C   UNL     1       6.117   3.858  13.800  0.00  0.00    +0.000 A 
ATOM     17  N   UNL     1       6.264   3.464  12.508  0.00  0.00    +0.000 NA
ATOM     18  C   UNL     1       7.202   4.138  11.802  0.00  0.00    +0.000 A 
ATOM     19  C   UNL     1       7.961   5.155  12.359  0.00  0.00    +0.000 A 
ATOM     20  N   UNL     1       7.819   5.550  13.644  0.00  0.00    +0.000 NA
ENDBRANCH  13  15
ENDBRANCH  12  13
ENDBRANCH  11  12
ENDBRANCH   4  11
TORSDOF 6
ENDMDL
MODEL 5
REMARK VINA RESULT:      -6.6      1.218      1.564
REMARK  Name = 
REMARK  7 active torsions:
REMARK  status: ('A' for Active; 'I' for Inactive)
REMARK    1  A    between atoms: C_1  and  C_2
REMARK    2  A    between atoms: C_2  and  O_4
REMARK    3  A    between atoms: O_4  and  C_5
REMARK    4  A    between atoms: C_8  and  C_9
REMARK    5  A    between atoms: C_9  and  O_10
REMARK    6  A    between atoms: O_10  and  C_11
REMARK    7  A    between atoms: C_11  and  C_13
REMARK                            x       y       z     vdW  Elec       q    Type
REMARK                         _______ _______ _______ _____ _____    ______ ____
ROOT
ATOM      1  C   UNL     1       2.943   4.517  18.929  0.00  0.00    +0.000 A 
ATOM      2  C   UNL     1       3.655   5.629  19.368  0.00  0.00    +0.000 A 
ATOM      3  C   UNL     1       5.032   5.696  19.138  0.00  0.00    +0.000 A 
ATOM      4  C   UNL     1       5.698   4.649  18.480  0.00  0.00    +0.000 A 
ATOM      5  C   UNL     1       4.966   3.539  18.047  0.00  0.00    +0.000 A 
ATOM      6  C   UNL     1       3.595   3.466  18.282  0.00  0.00    +0.000 A 
ENDROOT
BRANCH   1   7
ATOM      7  O   UNL     1       1.589   4.420  19.295  0.00  0.00    +0.000 OA
BRANCH   7   9
ATOM      8  C   UNL     1       0.578   2.351  18.819  0.00  0.00    +0.000 C 
ATOM      9  C   UNL     1       1.161   3.232  19.881  0.00  0.00    +0.000 C 
ATOM     10  O   UNL     1       1.201   2.941  21.069  0.00  0.00    +0.000 OA
ENDBRANCH   7   9
ENDBRANCH   1   7
BRANCH   4  11
ATOM     11  C   UNL     1       7.191   4.698  18.275  0.00  0.00    +0.000 C 
BRANCH  11  12
ATOM     12  O   UNL     1       7.519   4.418  16.909  0.00  0.00    +0.000 OA
BRANCH  12  13
ATOM     13  C   UNL     1       7.390   5.458  16.049  0.00  0.00    +0.000 C 
ATOM     14  O   UNL     1       7.442   6.646  16.335  0.00  0.00    +0.000 OA
BRANCH  13  15
ATOM     15  C   UNL     1       7.169   4.960  14.668  0.00  0.00    +0.000 A 
ATOM     16  C   UNL     1       6.243   3.947  14.461  0.00  0.00    +0.000 A 
ATOM     17  N   UNL     1       5.981   3.438  13.228  0.00  0.00    +0.000 NA
ATOM     18  C   UNL     1       6.687   3.988  12.214  0.00  0.00    +0.000 A 
ATOM     19  C   UNL     1       7.616   4.997  12.417  0.00  0.00    +0.000 A 
ATOM     20  N   UNL     1       7.880   5.507  13.642  0.00  0.00    +0.000 NA
ENDBRANCH  13  15
ENDBRANCH  12  13
ENDBRANCH  11  12
ENDBRANCH   4  11
TORSDOF 6
ENDMDL
MODEL 6
REMARK VINA RESULT:      -6.6      0.735      1.556
REMARK  Name = 
REMARK  7 active torsions:
REMARK  status: ('A' for Active; 'I' for Inactive)
REMARK    1  A    between atoms: C_1  and  C_2
REMARK    2  A    between atoms: C_2  and  O_4
REMARK    3  A    between atoms: O_4  and  C_5
REMARK    4  A    between atoms: C_8  and  C_9
REMARK    5  A    between atoms: C_9  and  O_10
REMARK    6  A    between atoms: O_10  and  C_11
REMARK    7  A    between atoms: C_11  and  C_13
REMARK                            x       y       z     vdW  Elec       q    Type
REMARK                         _______ _______ _______ _____ _____    ______ ____
ROOT
ATOM      1  C   UNL     1       3.350   3.109  18.808  0.00  0.00    +0.000 A 
ATOM      2  C   UNL     1       2.989   3.892  17.716  0.00  0.00    +0.000 A 
ATOM      3  C   UNL     1       3.832   4.930  17.307  0.00  0.00    +0.000 A 
ATOM      4  C   UNL     1       5.029   5.190  17.994  0.00  0.00    +0.000 A 
ATOM      5  C   UNL     1       5.375   4.394  19.090  0.00  0.00    +0.000 A 
ATOM      6  C   UNL     1       4.532   3.365  19.505  0.00  0.00    +0.000 A 
ENDROOT
BRANCH   1   7
ATOM      7  O   UNL     1       2.418   2.166  19.275  0.00  0.00    +0.000 OA
BRANCH   7   9
ATOM      8  C   UNL     1       1.029   3.367  20.744  0.00  0.00    +0.000 C 
ATOM      9  C   UNL     1       1.106   2.592  19.464  0.00  0.00    +0.000 C 
ATOM     10  O   UNL     1       0.144   2.355  18.746  0.00  0.00    +0.000 OA
ENDBRANCH   7   9
ENDBRANCH   1   7
BRANCH   4  11
ATOM     11  C   UNL     1       5.915   6.339  17.583  0.00  0.00    +0.000 C 
BRANCH  11  12
ATOM     12  O   UNL     1       6.278   6.224  16.202  0.00  0.00    +0.000 OA
BRANCH  12  13
ATOM     13  C   UNL     1       7.087   5.181  15.893  0.00  0.00    +0.000 C 
ATOM     14  O   UNL     1       7.956   4.701  16.607  0.00  0.00    +0.000 OA
BRANCH  13  15
ATOM     15  C   UNL     1       6.777   4.675  14.532  0.00  0.00    +0.000 A 
ATOM     16  C   UNL     1       7.676   4.926  13.504  0.00  0.00    +0.000 A 
ATOM     17  N   UNL     1       7.468   4.495  12.231  0.00  0.00    +0.000 NA
ATOM     18  C   UNL     1       6.322   3.804  12.036  0.00  0.00    +0.000 A 
ATOM     19  C   UNL     1       5.420   3.555  13.059  0.00  0.00    +0.000 A 
ATOM     20  N   UNL     1       5.623   3.982  14.326  0.00  0.00    +0.000 NA
ENDBRANCH  13  15
ENDBRANCH  12  13
ENDBRANCH  11  12
ENDBRANCH   4  11
TORSDOF 6
ENDMDL
MODEL 7
REMARK VINA RESULT:      -6.6      4.761      6.054
REMARK  Name = 
REMARK  7 active torsions:
REMARK  status: ('A' for Active; 'I' for Inactive)
REMARK    1  A    between atoms: C_1  and  C_2
REMARK    2  A    between atoms: C_2  and  O_4
REMARK    3  A    between atoms: O_4  and  C_5
REMARK    4  A    between atoms: C_8  and  C_9
REMARK    5  A    between atoms: C_9  and  O_10
REMARK    6  A    between atoms: O_10  and  C_11
REMARK    7  A    between atoms: C_11  and  C_13
REMARK                            x       y       z     vdW  Elec       q    Type
REMARK                         _______ _______ _______ _____ _____    ______ ____
ROOT
ATOM      1  C   UNL     1       1.160   9.619  18.827  0.00  0.00    +0.000 A 
ATOM      2  C   UNL     1       1.010   9.151  20.128  0.00  0.00    +0.000 A 
ATOM      3  C   UNL     1       1.573   7.922  20.485  0.00  0.00    +0.000 A 
ATOM      4  C   UNL     1       2.274   7.156  19.539  0.00  0.00    +0.000 A 
ATOM      5  C   UNL     1       2.413   7.641  18.235  0.00  0.00    +0.000 A 
ATOM      6  C   UNL     1       1.846   8.863  17.875  0.00  0.00    +0.000 A 
ENDROOT
BRANCH   1   7
ATOM      7  O   UNL     1       0.470  10.789  18.467  0.00  0.00    +0.000 OA
BRANCH   7   9
ATOM      8  C   UNL     1      -1.613  10.129  17.598  0.00  0.00    +0.000 C 
ATOM      9  C   UNL     1      -0.900  10.833  18.711  0.00  0.00    +0.000 C 
ATOM     10  O   UNL     1      -1.464  11.383  19.648  0.00  0.00    +0.000 OA
ENDBRANCH   7   9
ENDBRANCH   1   7
BRANCH   4  11
ATOM     11  C   UNL     1       2.839   5.808  19.910  0.00  0.00    +0.000 C 
BRANCH  11  12
ATOM     12  O   UNL     1       3.349   5.142  18.749  0.00  0.00    +0.000 OA
BRANCH  12  13
ATOM     13  C   UNL     1       4.465   4.398  18.942  0.00  0.00    +0.000 C 
ATOM     14  O   UNL     1       4.503   3.214  19.246  0.00  0.00    +0.000 OA
BRANCH  13  15
ATOM     15  C   UNL     1       5.679   5.226  18.731  0.00  0.00    +0.000 A 
ATOM     16  C   UNL     1       5.718   6.093  17.647  0.00  0.00    +0.000 A 
ATOM     17  N   UNL     1       6.790   6.887  17.386  0.00  0.00    +0.000 NA
ATOM     18  C   UNL     1       7.819   6.773  18.257  0.00  0.00    +0.000 A 
ATOM     19  C   UNL     1       7.785   5.905  19.337  0.00  0.00    +0.000 A 
ATOM     20  N   UNL     1       6.721   5.113  19.601  0.00  0.00    +0.000 NA
ENDBRANCH  13  15
ENDBRANCH  12  13
ENDBRANCH  11  12
ENDBRANCH   4  11
TORSDOF 6
ENDMDL
MODEL 8
REMARK VINA RESULT:      -6.5      0.963      1.243
REMARK  Name = 
REMARK  7 active torsions:
REMARK  status: ('A' for Active; 'I' for Inactive)
REMARK    1  A    between atoms: C_1  and  C_2
REMARK    2  A    between atoms: C_2  and  O_4
REMARK    3  A    between atoms: O_4  and  C_5
REMARK    4  A    between atoms: C_8  and  C_9
REMARK    5  A    between atoms: C_9  and  O_10
REMARK    6  A    between atoms: O_10  and  C_11
REMARK    7  A    between atoms: C_11  and  C_13
REMARK                            x       y       z     vdW  Elec       q    Type
REMARK                         _______ _______ _______ _____ _____    ______ ____
ROOT
ATOM      1  C   UNL     1       2.187   4.589  18.895  0.00  0.00    +0.000 A 
ATOM      2  C   UNL     1       2.888   4.092  17.801  0.00  0.00    +0.000 A 
ATOM      3  C   UNL     1       3.982   4.807  17.304  0.00  0.00    +0.000 A 
ATOM      4  C   UNL     1       4.368   6.022  17.893  0.00  0.00    +0.000 A 
ATOM      5  C   UNL     1       3.651   6.508  18.991  0.00  0.00    +0.000 A 
ATOM      6  C   UNL     1       2.555   5.801  19.483  0.00  0.00    +0.000 A 
ENDROOT
BRANCH   1   7
ATOM      7  O   UNL     1       1.015   3.918  19.283  0.00  0.00    +0.000 OA
BRANCH   7   9
ATOM      8  C   UNL     1       1.317   2.813  21.337  0.00  0.00    +0.000 C 
ATOM      9  C   UNL     1       1.151   2.656  19.856  0.00  0.00    +0.000 C 
ATOM     10  O   UNL     1       1.177   1.581  19.272  0.00  0.00    +0.000 OA
ENDBRANCH   7   9
ENDBRANCH   1   7
BRANCH   4  11
ATOM     11  C   UNL     1       5.517   6.818  17.327  0.00  0.00    +0.000 C 
BRANCH  11  12
ATOM     12  O   UNL     1       5.820   6.384  15.996  0.00  0.00    +0.000 OA
BRANCH  12  13
ATOM     13  C   UNL     1       6.842   5.500  15.885  0.00  0.00    +0.000 C 
ATOM     14  O   UNL     1       7.612   5.166  16.776  0.00  0.00    +0.000 OA
BRANCH  13  15
ATOM     15  C   UNL     1       6.914   4.967  14.502  0.00  0.00    +0.000 A 
ATOM     16  C   UNL     1       6.076   3.920  14.142  0.00  0.00    +0.000 A 
ATOM     17  N   UNL     1       6.078   3.378  12.896  0.00  0.00    +0.000 NA
ATOM     18  C   UNL     1       6.957   3.930  12.027  0.00  0.00    +0.000 A 
ATOM     19  C   UNL     1       7.798   4.973  12.384  0.00  0.00    +0.000 A 
ATOM     20  N   UNL     1       7.799   5.516  13.623  0.00  0.00    +0.000 NA
ENDBRANCH  13  15
ENDBRANCH  12  13
ENDBRANCH  11  12
ENDBRANCH   4  11
TORSDOF 6
ENDMDL
MODEL 9
REMARK VINA RESULT:      -6.5      3.698      7.019
REMARK  Name = 
REMARK  7 active torsions:
REMARK  status: ('A' for Active; 'I' for Inactive)
REMARK    1  A    between atoms: C_1  and  C_2
REMARK    2  A    between atoms: C_2  and  O_4
REMARK    3  A    between atoms: O_4  and  C_5
REMARK    4  A    between atoms: C_8  and  C_9
REMARK    5  A    between atoms: C_9  and  O_10
REMARK    6  A    between atoms: O_10  and  C_11
REMARK    7  A    between atoms: C_11  and  C_13
REMARK                            x       y       z     vdW  Elec       q    Type
REMARK                         _______ _______ _______ _____ _____    ______ ____
ROOT
ATOM      1  C   UNL     1       5.732   4.204  14.978  0.00  0.00    +0.000 A 
ATOM      2  C   UNL     1       5.185   3.597  16.104  0.00  0.00    +0.000 A 
ATOM      3  C   UNL     1       4.640   4.393  17.116  0.00  0.00    +0.000 A 
ATOM      4  C   UNL     1       4.652   5.793  17.007  0.00  0.00    +0.000 A 
ATOM      5  C   UNL     1       5.208   6.386  15.869  0.00  0.00    +0.000 A 
ATOM      6  C   UNL     1       5.759   5.595  14.863  0.00  0.00    +0.000 A 
ENDROOT
BRANCH   1   7
ATOM      7  O   UNL     1       6.391   3.383  14.046  0.00  0.00    +0.000 OA
BRANCH   7   9
ATOM      8  C   UNL     1       5.024   3.379  12.132  0.00  0.00    +0.000 C 
ATOM      9  C   UNL     1       6.353   3.764  12.707  0.00  0.00    +0.000 C 
ATOM     10  O   UNL     1       7.252   4.290  12.065  0.00  0.00    +0.000 OA
ENDBRANCH   7   9
ENDBRANCH   1   7
BRANCH   4  11
ATOM     11  C   UNL     1       4.109   6.653  18.120  0.00  0.00    +0.000 C 
BRANCH  11  12
ATOM     12  O   UNL     1       2.688   6.505  18.221  0.00  0.00    +0.000 OA
BRANCH  12  13
ATOM     13  C   UNL     1       2.190   6.462  19.481  0.00  0.00    +0.000 C 
ATOM     14  O   UNL     1       1.976   7.421  20.209  0.00  0.00    +0.000 OA
BRANCH  13  15
ATOM     15  C   UNL     1       1.928   5.057  19.883  0.00  0.00    +0.000 A 
ATOM     16  C   UNL     1       2.283   4.648  21.162  0.00  0.00    +0.000 A 
ATOM     17  N   UNL     1       2.073   3.381  21.608  0.00  0.00    +0.000 NA
ATOM     18  C   UNL     1       1.494   2.544  20.717  0.00  0.00    +0.000 A 
ATOM     19  C   UNL     1       1.141   2.948  19.439  0.00  0.00    +0.000 A 
ATOM     20  N   UNL     1       1.347   4.207  18.991  0.00  0.00    +0.000 NA
ENDBRANCH  13  15
ENDBRANCH  12  13
ENDBRANCH  11  12
ENDBRANCH   4  11
TORSDOF 6
ENDMDL
