MODEL 1
REMARK VINA RESULT:      -8.0      0.000      0.000
REMARK  Name = 
REMARK  11 active torsions:
REMARK  status: ('A' for Active; 'I' for Inactive)
REMARK    1  A    between atoms: C_1  and  C_2
REMARK    2  A    between atoms: C_2  and  C_3
REMARK    3  A    between atoms: C_2  and  N_4
REMARK    4  A    between atoms: C_8  and  N_9
REMARK    5  A    between atoms: C_10  and  C_12
REMARK    6  A    between atoms: C_12  and  C_13
REMARK    7  A    between atoms: C_12  and  N_20
REMARK    8  A    between atoms: C_13  and  C_14
REMARK    9  A    between atoms: C_21  and  O_23
REMARK   10  A    between atoms: O_23  and  C_24
REMARK   11  A    between atoms: C_24  and  C_25
REMARK                            x       y       z     vdW  Elec       q    Type
REMARK                         _______ _______ _______ _____ _____    ______ ____
ROOT
ATOM      1  C   UNL     1      -0.117  10.648  19.004  0.00  0.00    +0.000 C 
ENDROOT
BRANCH   1   3
ATOM      2  N   UNL     1      -1.041  12.206  20.644  0.00  0.00    +0.000 N 
ATOM      3  C   UNL     1       0.057  11.915  19.860  0.00  0.00    +0.000 C 
ATOM      4  O   UNL     1       1.097  12.570  19.921  0.00  0.00    +0.000 OA
ATOM      5  H   UNL     1      -1.786  11.500  20.657  0.00  0.00    +0.000 HD
BRANCH   2  10
ATOM      6  N   UNL     1      -3.766  13.613  22.509  0.00  0.00    +0.000 N 
ATOM      7  C   UNL     1      -3.426  14.119  21.184  0.00  0.00    +0.000 C 
ATOM      8  C   UNL     1      -1.946  14.395  21.078  0.00  0.00    +0.000 C 
ATOM      9  O   UNL     1      -1.509  15.324  20.399  0.00  0.00    +0.000 OA
ATOM     10  C   UNL     1      -1.053  13.289  21.611  0.00  0.00    +0.000 C 
ATOM     11  C   UNL     1      -1.506  12.828  22.978  0.00  0.00    +0.000 C 
ATOM     12  C   UNL     1      -2.999  12.626  23.116  0.00  0.00    +0.000 C 
ATOM     13  O   UNL     1      -3.454  11.808  23.910  0.00  0.00    +0.000 OA
BRANCH   6  15
ATOM     14  C   UNL     1      -4.711  15.680  23.367  0.00  0.00    +0.000 C 
ATOM     15  C   UNL     1      -4.906  14.164  23.255  0.00  0.00    +0.000 C 
ATOM     16  C   UNL     1      -6.282  13.835  22.679  0.00  0.00    +0.000 C 
ENDBRANCH   6  15
ENDBRANCH   2  10
ENDBRANCH   1   3
BRANCH   1  17
ATOM     17  N   UNL     1       0.871   9.642  19.426  0.00  0.00    +0.000 N 
ATOM     18  C   UNL     1       1.627   8.949  18.531  0.00  0.00    +0.000 C 
ATOM     19  O   UNL     1       1.608   9.162  17.324  0.00  0.00    +0.000 OA
ATOM     20  H   UNL     1       1.082   9.511  20.407  0.00  0.00    +0.000 HD
BRANCH  18  21
ATOM     21  O   UNL     1       2.376   8.017  19.159  0.00  0.00    +0.000 OA
BRANCH  21  22
ATOM     22  C   UNL     1       2.752   6.893  18.346  0.00  0.00    +0.000 C 
BRANCH  22  23
ATOM     23  C   UNL     1       2.191   5.583  18.842  0.00  0.00    +0.000 A 
ATOM     24  C   UNL     1       1.900   5.391  20.200  0.00  0.00    +0.000 A 
ATOM     25  C   UNL     1       1.326   4.195  20.641  0.00  0.00    +0.000 A 
ATOM     26  C   UNL     1       1.035   3.180  19.730  0.00  0.00    +0.000 A 
ATOM     27  C   UNL     1       1.308   3.362  18.377  0.00  0.00    +0.000 A 
ATOM     28  C   UNL     1       1.883   4.556  17.936  0.00  0.00    +0.000 A 
ENDBRANCH  22  23
ENDBRANCH  21  22
ENDBRANCH  18  21
ENDBRANCH   1  17
BRANCH   1  29
ATOM     29  C   UNL     1      -1.572  10.158  19.076  0.00  0.00    +0.000 C 
BRANCH  29  30
ATOM     30  C   UNL     1      -2.352  10.402  17.803  0.00  0.00    +0.000 A 
ATOM     31  C   UNL     1      -3.471  11.243  17.803  0.00  0.00    +0.000 A 
ATOM     32  C   UNL     1      -4.215  11.431  16.638  0.00  0.00    +0.000 A 
ATOM     33  C   UNL     1      -3.842  10.787  15.459  0.00  0.00    +0.000 A 
ATOM     34  C   UNL     1      -2.716   9.966  15.441  0.00  0.00    +0.000 A 
ATOM     35  C   UNL     1      -1.974   9.772  16.608  0.00  0.00    +0.000 A 
ENDBRANCH  29  30
ENDBRANCH   1  29
TORSDOF 9
ENDMDL
MODEL 2
REMARK VINA RESULT:      -7.8      0.930      1.482
REMARK  Name = 
REMARK  11 active torsions:
REMARK  status: ('A' for Active; 'I' for Inactive)
REMARK    1  A    between atoms: C_1  and  C_2
REMARK    2  A    between atoms: C_2  and  C_3
REMARK    3  A    between atoms: C_2  and  N_4
REMARK    4  A    between atoms: C_8  and  N_9
REMARK    5  A    between atoms: C_10  and  C_12
REMARK    6  A    between atoms: C_12  and  C_13
REMARK    7  A    between atoms: C_12  and  N_20
REMARK    8  A    between atoms: C_13  and  C_14
REMARK    9  A    between atoms: C_21  and  O_23
REMARK   10  A    between atoms: O_23  and  C_24
REMARK   11  A    between atoms: C_24  and  C_25
REMARK                            x       y       z     vdW  Elec       q    Type
REMARK                         _______ _______ _______ _____ _____    ______ ____
ROOT
ATOM      1  C   UNL     1      -0.036  10.506  19.096  0.00  0.00    +0.000 C 
ENDROOT
BRANCH   1   3
ATOM      2  N   UNL     1      -0.795  12.041  20.840  0.00  0.00    +0.000 N 
ATOM      3  C   UNL     1       0.278  11.668  20.056  0.00  0.00    +0.000 C 
ATOM      4  O   UNL     1       1.392  12.171  20.191  0.00  0.00    +0.000 OA
ATOM      5  H   UNL     1      -1.627  11.442  20.781  0.00  0.00    +0.000 HD
BRANCH   2  10
ATOM      6  N   UNL     1      -3.369  13.826  22.592  0.00  0.00    +0.000 N 
ATOM      7  C   UNL     1      -2.814  14.344  21.347  0.00  0.00    +0.000 C 
ATOM      8  C   UNL     1      -1.306  14.331  21.385  0.00  0.00    +0.000 C 
ATOM      9  O   UNL     1      -0.637  15.199  20.825  0.00  0.00    +0.000 OA
ATOM     10  C   UNL     1      -0.694  13.037  21.892  0.00  0.00    +0.000 C 
ATOM     11  C   UNL     1      -1.355  12.582  23.173  0.00  0.00    +0.000 C 
ATOM     12  C   UNL     1      -2.866  12.668  23.173  0.00  0.00    +0.000 C 
ATOM     13  O   UNL     1      -3.542  11.904  23.855  0.00  0.00    +0.000 OA
BRANCH   6  15
ATOM     14  C   UNL     1      -3.824  15.360  24.420  0.00  0.00    +0.000 C 
ATOM     15  C   UNL     1      -4.450  14.538  23.288  0.00  0.00    +0.000 C 
ATOM     16  C   UNL     1      -5.328  15.419  22.401  0.00  0.00    +0.000 C 
ENDBRANCH   6  15
ENDBRANCH   2  10
ENDBRANCH   1   3
BRANCH   1  17
ATOM     17  N   UNL     1       0.906   9.405  19.351  0.00  0.00    +0.000 N 
ATOM     18  C   UNL     1       1.809   8.993  18.418  0.00  0.00    +0.000 C 
ATOM     19  O   UNL     1       1.967   9.552  17.339  0.00  0.00    +0.000 OA
ATOM     20  H   UNL     1       0.970   8.987  20.270  0.00  0.00    +0.000 HD
BRANCH  18  21
ATOM     21  O   UNL     1       2.481   7.905  18.852  0.00  0.00    +0.000 OA
BRANCH  21  22
ATOM     22  C   UNL     1       3.357   7.308  17.881  0.00  0.00    +0.000 C 
BRANCH  22  23
ATOM     23  C   UNL     1       3.175   5.815  17.752  0.00  0.00    +0.000 A 
ATOM     24  C   UNL     1       1.955   5.207  18.078  0.00  0.00    +0.000 A 
ATOM     25  C   UNL     1       1.777   3.831  17.900  0.00  0.00    +0.000 A 
ATOM     26  C   UNL     1       2.815   3.051  17.390  0.00  0.00    +0.000 A 
ATOM     27  C   UNL     1       4.027   3.645  17.050  0.00  0.00    +0.000 A 
ATOM     28  C   UNL     1       4.206   5.019  17.230  0.00  0.00    +0.000 A 
ENDBRANCH  22  23
ENDBRANCH  21  22
ENDBRANCH  18  21
ENDBRANCH   1  17
BRANCH   1  29
ATOM     29  C   UNL     1      -1.513  10.103  19.222  0.00  0.00    +0.000 C 
BRANCH  29  30
ATOM     30  C   UNL     1      -2.316  10.364  17.967  0.00  0.00    +0.000 A 
ATOM     31  C   UNL     1      -1.931   9.799  16.745  0.00  0.00    +0.000 A 
ATOM     32  C   UNL     1      -2.647  10.077  15.580  0.00  0.00    +0.000 A 
ATOM     33  C   UNL     1      -3.760  10.915  15.626  0.00  0.00    +0.000 A 
ATOM     34  C   UNL     1      -4.166  11.464  16.841  0.00  0.00    +0.000 A 
ATOM     35  C   UNL     1      -3.447  11.192  18.007  0.00  0.00    +0.000 A 
ENDBRANCH  29  30
ENDBRANCH   1  29
TORSDOF 9
ENDMDL
MODEL 3
REMARK VINA RESULT:      -7.8      2.703      6.324
REMARK  Name = 
REMARK  11 active torsions:
REMARK  status: ('A' for Active; 'I' for Inactive)
REMARK    1  A    between atoms: C_1  and  C_2
REMARK    2  A    between atoms: C_2  and  C_3
REMARK    3  A    between atoms: C_2  and  N_4
REMARK    4  A    between atoms: C_8  and  N_9
REMARK    5  A    between atoms: C_10  and  C_12
REMARK    6  A    between atoms: C_12  and  C_13
REMARK    7  A    between atoms: C_12  and  N_20
REMARK    8  A    between atoms: C_13  and  C_14
REMARK    9  A    between atoms: C_21  and  O_23
REMARK   10  A    between atoms: O_23  and  C_24
REMARK   11  A    between atoms: C_24  and  C_25
REMARK                            x       y       z     vdW  Elec       q    Type
REMARK                         _______ _______ _______ _____ _____    ______ ____
ROOT
ATOM      1  C   UNL     1       2.917   6.947  18.598  0.00  0.00    +0.000 C 
ENDROOT
BRANCH   1   3
ATOM      2  N   UNL     1       1.462   8.909  18.692  0.00  0.00    +0.000 N 
ATOM      3  C   UNL     1       2.370   8.215  17.917  0.00  0.00    +0.000 C 
ATOM      4  O   UNL     1       2.755   8.634  16.827  0.00  0.00    +0.000 OA
ATOM      5  H   UNL     1       1.344   8.576  19.656  0.00  0.00    +0.000 HD
BRANCH   2  10
ATOM      6  N   UNL     1      -0.449  11.288  20.582  0.00  0.00    +0.000 N 
ATOM      7  C   UNL     1      -1.106  10.203  19.862  0.00  0.00    +0.000 C 
ATOM      8  C   UNL     1      -0.604  10.120  18.441  0.00  0.00    +0.000 C 
ATOM      9  O   UNL     1      -1.340   9.782  17.514  0.00  0.00    +0.000 OA
ATOM     10  C   UNL     1       0.906  10.190  18.295  0.00  0.00    +0.000 C 
ATOM     11  C   UNL     1       1.483  11.335  19.095  0.00  0.00    +0.000 C 
ATOM     12  C   UNL     1       0.926  11.474  20.495  0.00  0.00    +0.000 C 
ATOM     13  O   UNL     1       1.601  11.960  21.397  0.00  0.00    +0.000 OA
BRANCH   6  15
ATOM     14  C   UNL     1      -2.429  12.695  20.550  0.00  0.00    +0.000 C 
ATOM     15  C   UNL     1      -1.228  12.237  21.387  0.00  0.00    +0.000 C 
ATOM     16  C   UNL     1      -1.685  11.717  22.748  0.00  0.00    +0.000 C 
ENDBRANCH   6  15
ENDBRANCH   2  10
ENDBRANCH   1   3
BRANCH   1  17
ATOM     17  N   UNL     1       1.792   6.163  19.130  0.00  0.00    +0.000 N 
ATOM     18  C   UNL     1       1.842   5.559  20.350  0.00  0.00    +0.000 C 
ATOM     19  O   UNL     1       2.780   5.688  21.128  0.00  0.00    +0.000 OA
ATOM     20  H   UNL     1       0.908   6.134  18.638  0.00  0.00    +0.000 HD
BRANCH  18  21
ATOM     21  O   UNL     1       0.733   4.817  20.562  0.00  0.00    +0.000 OA
BRANCH  21  22
ATOM     22  C   UNL     1       0.976   3.422  20.807  0.00  0.00    +0.000 C 
BRANCH  22  23
ATOM     23  C   UNL     1       1.935   2.801  19.821  0.00  0.00    +0.000 A 
ATOM     24  C   UNL     1       1.577   2.632  18.476  0.00  0.00    +0.000 A 
ATOM     25  C   UNL     1       2.493   2.110  17.558  0.00  0.00    +0.000 A 
ATOM     26  C   UNL     1       3.776   1.755  17.973  0.00  0.00    +0.000 A 
ATOM     27  C   UNL     1       4.149   1.928  19.303  0.00  0.00    +0.000 A 
ATOM     28  C   UNL     1       3.233   2.449  20.222  0.00  0.00    +0.000 A 
ENDBRANCH  22  23
ENDBRANCH  21  22
ENDBRANCH  18  21
ENDBRANCH   1  17
BRANCH   1  29
ATOM     29  C   UNL     1       3.811   6.168  17.621  0.00  0.00    +0.000 C 
BRANCH  29  30
ATOM     30  C   UNL     1       5.272   6.171  18.010  0.00  0.00    +0.000 A 
ATOM     31  C   UNL     1       5.728   5.382  19.073  0.00  0.00    +0.000 A 
ATOM     32  C   UNL     1       7.068   5.421  19.459  0.00  0.00    +0.000 A 
ATOM     33  C   UNL     1       7.968   6.240  18.781  0.00  0.00    +0.000 A 
ATOM     34  C   UNL     1       7.531   7.012  17.706  0.00  0.00    +0.000 A 
ATOM     35  C   UNL     1       6.189   6.980  17.322  0.00  0.00    +0.000 A 
ENDBRANCH  29  30
ENDBRANCH   1  29
TORSDOF 9
ENDMDL
MODEL 4
REMARK VINA RESULT:      -7.7      2.694      3.796
REMARK  Name = 
REMARK  11 active torsions:
REMARK  status: ('A' for Active; 'I' for Inactive)
REMARK    1  A    between atoms: C_1  and  C_2
REMARK    2  A    between atoms: C_2  and  C_3
REMARK    3  A    between atoms: C_2  and  N_4
REMARK    4  A    between atoms: C_8  and  N_9
REMARK    5  A    between atoms: C_10  and  C_12
REMARK    6  A    between atoms: C_12  and  C_13
REMARK    7  A    between atoms: C_12  and  N_20
REMARK    8  A    between atoms: C_13  and  C_14
REMARK    9  A    between atoms: C_21  and  O_23
REMARK   10  A    between atoms: O_23  and  C_24
REMARK   11  A    between atoms: C_24  and  C_25
REMARK                            x       y       z     vdW  Elec       q    Type
REMARK                         _______ _______ _______ _____ _____    ______ ____
ROOT
ATOM      1  C   UNL     1       0.335  10.679  19.489  0.00  0.00    +0.000 C 
ENDROOT
BRANCH   1   3
ATOM      2  N   UNL     1       1.352  12.886  19.749  0.00  0.00    +0.000 N 
ATOM      3  C   UNL     1       0.826  11.801  20.421  0.00  0.00    +0.000 C 
ATOM      4  O   UNL     1       0.693  11.791  21.644  0.00  0.00    +0.000 OA
ATOM      5  H   UNL     1       1.253  12.876  18.728  0.00  0.00    +0.000 HD
BRANCH   2  10
ATOM      6  N   UNL     1       0.842  16.324  18.851  0.00  0.00    +0.000 N 
ATOM      7  C   UNL     1       2.003  15.587  18.364  0.00  0.00    +0.000 C 
ATOM      8  C   UNL     1       2.696  14.869  19.495  0.00  0.00    +0.000 C 
ATOM      9  O   UNL     1       3.918  14.720  19.515  0.00  0.00    +0.000 OA
ATOM     10  C   UNL     1       1.771  14.103  20.424  0.00  0.00    +0.000 C 
ATOM     11  C   UNL     1       0.595  14.951  20.850  0.00  0.00    +0.000 C 
ATOM     12  C   UNL     1      -0.057  15.739  19.734  0.00  0.00    +0.000 C 
ATOM     13  O   UNL     1      -1.248  16.031  19.780  0.00  0.00    +0.000 OA
BRANCH   6  15
ATOM     14  C   UNL     1       1.095  18.624  19.590  0.00  0.00    +0.000 C 
ATOM     15  C   UNL     1       0.614  17.719  18.450  0.00  0.00    +0.000 C 
ATOM     16  C   UNL     1       1.254  18.130  17.126  0.00  0.00    +0.000 C 
ENDBRANCH   6  15
ENDBRANCH   2  10
ENDBRANCH   1   3
BRANCH   1  17
ATOM     17  N   UNL     1       1.155   9.477  19.709  0.00  0.00    +0.000 N 
ATOM     18  C   UNL     1       1.786   8.834  18.688  0.00  0.00    +0.000 C 
ATOM     19  O   UNL     1       1.793   9.245  17.534  0.00  0.00    +0.000 OA
ATOM     20  H   UNL     1       1.349   9.154  20.648  0.00  0.00    +0.000 HD
BRANCH  18  21
ATOM     21  O   UNL     1       2.383   7.706  19.131  0.00  0.00    +0.000 OA
BRANCH  21  22
ATOM     22  C   UNL     1       2.420   6.628  18.181  0.00  0.00    +0.000 C 
BRANCH  22  23
ATOM     23  C   UNL     1       1.982   5.306  18.762  0.00  0.00    +0.000 A 
ATOM     24  C   UNL     1       1.836   5.140  20.146  0.00  0.00    +0.000 A 
ATOM     25  C   UNL     1       1.373   3.929  20.671  0.00  0.00    +0.000 A 
ATOM     26  C   UNL     1       1.049   2.874  19.818  0.00  0.00    +0.000 A 
ATOM     27  C   UNL     1       1.178   3.030  18.441  0.00  0.00    +0.000 A 
ATOM     28  C   UNL     1       1.642   4.239  17.916  0.00  0.00    +0.000 A 
ENDBRANCH  22  23
ENDBRANCH  21  22
ENDBRANCH  18  21
ENDBRANCH   1  17
BRANCH   1  29
ATOM     29  C   UNL     1      -1.171  10.450  19.689  0.00  0.00    +0.000 C 
BRANCH  29  30
ATOM     30  C   UNL     1      -1.975  10.595  18.416  0.00  0.00    +0.000 A 
ATOM     31  C   UNL     1      -3.116  11.406  18.383  0.00  0.00    +0.000 A 
ATOM     32  C   UNL     1      -3.881  11.504  17.221  0.00  0.00    +0.000 A 
ATOM     33  C   UNL     1      -3.509  10.800  16.077  0.00  0.00    +0.000 A 
ATOM     34  C   UNL     1      -2.362  10.009  16.091  0.00  0.00    +0.000 A 
ATOM     35  C   UNL     1      -1.599   9.904  17.255  0.00  0.00    +0.000 A 
ENDBRANCH  29  30
ENDBRANCH   1  29
TORSDOF 9
ENDMDL
MODEL 5
REMARK VINA RESULT:      -7.7      7.800     10.796
REMARK  Name = 
REMARK  11 active torsions:
REMARK  status: ('A' for Active; 'I' for Inactive)
REMARK    1  A    between atoms: C_1  and  C_2
REMARK    2  A    between atoms: C_2  and  C_3
REMARK    3  A    between atoms: C_2  and  N_4
REMARK    4  A    between atoms: C_8  and  N_9
REMARK    5  A    between atoms: C_10  and  C_12
REMARK    6  A    between atoms: C_12  and  C_13
REMARK    7  A    between atoms: C_12  and  N_20
REMARK    8  A    between atoms: C_13  and  C_14
REMARK    9  A    between atoms: C_21  and  O_23
REMARK   10  A    between atoms: O_23  and  C_24
REMARK   11  A    between atoms: C_24  and  C_25
REMARK                            x       y       z     vdW  Elec       q    Type
REMARK                         _______ _______ _______ _____ _____    ______ ____
ROOT
ATOM      1  C   UNL     1       6.278   6.777  16.344  0.00  0.00    +0.000 C 
ENDROOT
BRANCH   1   3
ATOM      2  N   UNL     1       4.789   5.879  18.062  0.00  0.00    +0.000 N 
ATOM      3  C   UNL     1       5.001   6.928  17.191  0.00  0.00    +0.000 C 
ATOM      4  O   UNL     1       4.273   7.920  17.172  0.00  0.00    +0.000 OA
ATOM      5  H   UNL     1       5.547   5.190  18.131  0.00  0.00    +0.000 HD
BRANCH   2  10
ATOM      6  N   UNL     1       2.592   3.218  19.048  0.00  0.00    +0.000 N 
ATOM      7  C   UNL     1       2.258   4.087  17.926  0.00  0.00    +0.000 C 
ATOM      8  C   UNL     1       2.417   5.539  18.306  0.00  0.00    +0.000 C 
ATOM      9  O   UNL     1       1.679   6.412  17.849  0.00  0.00    +0.000 OA
ATOM     10  C   UNL     1       3.709   5.867  19.033  0.00  0.00    +0.000 C 
ATOM     11  C   UNL     1       3.967   4.895  20.161  0.00  0.00    +0.000 C 
ATOM     12  C   UNL     1       3.731   3.441  19.812  0.00  0.00    +0.000 C 
ATOM     13  O   UNL     1       4.353   2.548  20.377  0.00  0.00    +0.000 OA
BRANCH   6  15
ATOM     14  C   UNL     1       1.271   2.320  20.878  0.00  0.00    +0.000 C 
ATOM     15  C   UNL     1       1.711   2.104  19.426  0.00  0.00    +0.000 C 
ATOM     16  C   UNL     1       0.500   1.894  18.519  0.00  0.00    +0.000 C 
ENDBRANCH   6  15
ENDBRANCH   2  10
ENDBRANCH   1   3
BRANCH   1  17
ATOM     17  N   UNL     1       7.357   7.569  16.956  0.00  0.00    +0.000 N 
ATOM     18  C   UNL     1       7.868   7.271  18.183  0.00  0.00    +0.000 C 
ATOM     19  O   UNL     1       7.537   6.285  18.830  0.00  0.00    +0.000 OA
ATOM     20  H   UNL     1       7.814   8.304  16.432  0.00  0.00    +0.000 HD
BRANCH  18  21
ATOM     21  O   UNL     1       8.767   8.204  18.564  0.00  0.00    +0.000 OA
BRANCH  21  22
ATOM     22  C   UNL     1       8.456   9.547  18.155  0.00  0.00    +0.000 C 
BRANCH  22  23
ATOM     23  C   UNL     1       9.386  10.580  18.743  0.00  0.00    +0.000 A 
ATOM     24  C   UNL     1       9.432  10.805  20.126  0.00  0.00    +0.000 A 
ATOM     25  C   UNL     1      10.338  11.722  20.666  0.00  0.00    +0.000 A 
ATOM     26  C   UNL     1      11.209  12.422  19.832  0.00  0.00    +0.000 A 
ATOM     27  C   UNL     1      11.181  12.200  18.458  0.00  0.00    +0.000 A 
ATOM     28  C   UNL     1      10.275  11.285  17.916  0.00  0.00    +0.000 A 
ENDBRANCH  22  23
ENDBRANCH  21  22
ENDBRANCH  18  21
ENDBRANCH   1  17
BRANCH   1  29
ATOM     29  C   UNL     1       6.622   5.289  16.171  0.00  0.00    +0.000 C 
BRANCH  29  30
ATOM     30  C   UNL     1       6.670   4.849  14.724  0.00  0.00    +0.000 A 
ATOM     31  C   UNL     1       5.749   3.917  14.232  0.00  0.00    +0.000 A 
ATOM     32  C   UNL     1       5.823   3.479  12.910  0.00  0.00    +0.000 A 
ATOM     33  C   UNL     1       6.813   3.976  12.063  0.00  0.00    +0.000 A 
ATOM     34  C   UNL     1       7.721   4.921  12.535  0.00  0.00    +0.000 A 
ATOM     35  C   UNL     1       7.652   5.356  13.860  0.00  0.00    +0.000 A 
ENDBRANCH  29  30
ENDBRANCH   1  29
TORSDOF 9
ENDMDL
MODEL 6
REMARK VINA RESULT:      -7.7      2.881      4.898
REMARK  Name = 
REMARK  11 active torsions:
REMARK  status: ('A' for Active; 'I' for Inactive)
REMARK    1  A    between atoms: C_1  and  C_2
REMARK    2  A    between atoms: C_2  and  C_3
REMARK    3  A    between atoms: C_2  and  N_4
REMARK    4  A    between atoms: C_8  and  N_9
REMARK    5  A    between atoms: C_10  and  C_12
REMARK    6  A    between atoms: C_12  and  C_13
REMARK    7  A    between atoms: C_12  and  N_20
REMARK    8  A    between atoms: C_13  and  C_14
REMARK    9  A    between atoms: C_21  and  O_23
REMARK   10  A    between atoms: O_23  and  C_24
REMARK   11  A    between atoms: C_24  and  C_25
REMARK                            x       y       z     vdW  Elec       q    Type
REMARK                         _______ _______ _______ _____ _____    ______ ____
ROOT
ATOM      1  C   UNL     1      -0.182  10.701  18.908  0.00  0.00    +0.000 C 
ENDROOT
BRANCH   1   3
ATOM      2  N   UNL     1       0.864  12.888  19.219  0.00  0.00    +0.000 N 
ATOM      3  C   UNL     1      -0.104  12.025  19.690  0.00  0.00    +0.000 C 
ATOM      4  O   UNL     1      -0.879  12.341  20.593  0.00  0.00    +0.000 OA
ATOM      5  H   UNL     1       1.334  12.608  18.351  0.00  0.00    +0.000 HD
BRANCH   2  10
ATOM      6  N   UNL     1       3.823  14.902  19.490  0.00  0.00    +0.000 N 
ATOM      7  C   UNL     1       3.436  13.993  20.563  0.00  0.00    +0.000 C 
ATOM      8  C   UNL     1       1.981  14.175  20.922  0.00  0.00    +0.000 C 
ATOM      9  O   UNL     1       1.578  14.041  22.077  0.00  0.00    +0.000 OA
ATOM     10  C   UNL     1       1.036  14.235  19.734  0.00  0.00    +0.000 C 
ATOM     11  C   UNL     1       1.543  15.189  18.677  0.00  0.00    +0.000 C 
ATOM     12  C   UNL     1       3.020  15.068  18.368  0.00  0.00    +0.000 C 
ATOM     13  O   UNL     1       3.458  15.353  17.258  0.00  0.00    +0.000 OA
BRANCH   6  15
ATOM     14  C   UNL     1       4.683  17.087  20.110  0.00  0.00    +0.000 C 
ATOM     15  C   UNL     1       5.055  15.696  19.585  0.00  0.00    +0.000 C 
ATOM     16  C   UNL     1       6.167  15.078  20.431  0.00  0.00    +0.000 C 
ENDBRANCH   6  15
ENDBRANCH   2  10
ENDBRANCH   1   3
BRANCH   1  17
ATOM     17  N   UNL     1       0.861   9.789  19.404  0.00  0.00    +0.000 N 
ATOM     18  C   UNL     1       1.602   9.012  18.565  0.00  0.00    +0.000 C 
ATOM     19  O   UNL     1       1.521   9.071  17.344  0.00  0.00    +0.000 OA
ATOM     20  H   UNL     1       1.121   9.789  20.381  0.00  0.00    +0.000 HD
BRANCH  18  21
ATOM     21  O   UNL     1       2.413   8.191  19.267  0.00  0.00    +0.000 OA
BRANCH  21  22
ATOM     22  C   UNL     1       2.902   7.054  18.536  0.00  0.00    +0.000 C 
BRANCH  22  23
ATOM     23  C   UNL     1       2.216   5.763  18.910  0.00  0.00    +0.000 A 
ATOM     24  C   UNL     1       1.932   4.790  17.942  0.00  0.00    +0.000 A 
ATOM     25  C   UNL     1       1.349   3.574  18.308  0.00  0.00    +0.000 A 
ATOM     26  C   UNL     1       1.047   3.315  19.645  0.00  0.00    +0.000 A 
ATOM     27  C   UNL     1       1.334   4.268  20.618  0.00  0.00    +0.000 A 
ATOM     28  C   UNL     1       1.915   5.485  20.253  0.00  0.00    +0.000 A 
ENDBRANCH  22  23
ENDBRANCH  21  22
ENDBRANCH  18  21
ENDBRANCH   1  17
BRANCH   1  29
ATOM     29  C   UNL     1      -1.603  10.123  18.990  0.00  0.00    +0.000 C 
BRANCH  29  30
ATOM     30  C   UNL     1      -2.423  10.368  17.743  0.00  0.00    +0.000 A 
ATOM     31  C   UNL     1      -2.045   9.803  16.519  0.00  0.00    +0.000 A 
ATOM     32  C   UNL     1      -2.777  10.066  15.361  0.00  0.00    +0.000 A 
ATOM     33  C   UNL     1      -3.901  10.888  15.417  0.00  0.00    +0.000 A 
ATOM     34  C   UNL     1      -4.301  11.438  16.633  0.00  0.00    +0.000 A 
ATOM     35  C   UNL     1      -3.565  11.181  17.792  0.00  0.00    +0.000 A 
ENDBRANCH  29  30
ENDBRANCH   1  29
TORSDOF 9
ENDMDL
MODEL 7
REMARK VINA RESULT:      -7.7      2.843      4.744
REMARK  Name = 
REMARK  11 active torsions:
REMARK  status: ('A' for Active; 'I' for Inactive)
REMARK    1  A    between atoms: C_1  and  C_2
REMARK    2  A    between atoms: C_2  and  C_3
REMARK    3  A    between atoms: C_2  and  N_4
REMARK    4  A    between atoms: C_8  and  N_9
REMARK    5  A    between atoms: C_10  and  C_12
REMARK    6  A    between atoms: C_12  and  C_13
REMARK    7  A    between atoms: C_12  and  N_20
REMARK    8  A    between atoms: C_13  and  C_14
REMARK    9  A    between atoms: C_21  and  O_23
REMARK   10  A    between atoms: O_23  and  C_24
REMARK   11  A    between atoms: C_24  and  C_25
REMARK                            x       y       z     vdW  Elec       q    Type
REMARK                         _______ _______ _______ _____ _____    ______ ____
ROOT
ATOM      1  C   UNL     1      -0.213  10.667  18.886  0.00  0.00    +0.000 C 
ENDROOT
BRANCH   1   3
ATOM      2  N   UNL     1       0.795  12.868  19.225  0.00  0.00    +0.000 N 
ATOM      3  C   UNL     1      -0.140  11.971  19.702  0.00  0.00    +0.000 C 
ATOM      4  O   UNL     1      -0.891  12.244  20.636  0.00  0.00    +0.000 OA
ATOM      5  H   UNL     1       1.243  12.622  18.335  0.00  0.00    +0.000 HD
BRANCH   2  10
ATOM      6  N   UNL     1       3.729  14.915  19.516  0.00  0.00    +0.000 N 
ATOM      7  C   UNL     1       3.365  13.975  20.569  0.00  0.00    +0.000 C 
ATOM      8  C   UNL     1       1.912  14.127  20.947  0.00  0.00    +0.000 C 
ATOM      9  O   UNL     1       1.524  13.959  22.103  0.00  0.00    +0.000 OA
ATOM     10  C   UNL     1       0.954  14.204  19.772  0.00  0.00    +0.000 C 
ATOM     11  C   UNL     1       1.436  15.191  18.733  0.00  0.00    +0.000 C 
ATOM     12  C   UNL     1       2.911  15.098  18.407  0.00  0.00    +0.000 C 
ATOM     13  O   UNL     1       3.333  15.416  17.299  0.00  0.00    +0.000 OA
BRANCH   6  15
ATOM     14  C   UNL     1       4.999  16.335  21.022  0.00  0.00    +0.000 C 
ATOM     15  C   UNL     1       4.951  15.723  19.617  0.00  0.00    +0.000 C 
ATOM     16  C   UNL     1       6.251  14.984  19.305  0.00  0.00    +0.000 C 
ENDBRANCH   6  15
ENDBRANCH   2  10
ENDBRANCH   1   3
BRANCH   1  17
ATOM     17  N   UNL     1       0.818   9.737  19.372  0.00  0.00    +0.000 N 
ATOM     18  C   UNL     1       1.624   9.041  18.522  0.00  0.00    +0.000 C 
ATOM     19  O   UNL     1       1.613   9.193  17.307  0.00  0.00    +0.000 OA
ATOM     20  H   UNL     1       1.020   9.666  20.361  0.00  0.00    +0.000 HD
BRANCH  18  21
ATOM     21  O   UNL     1       2.410   8.182  19.207  0.00  0.00    +0.000 OA
BRANCH  21  22
ATOM     22  C   UNL     1       2.879   7.055  18.448  0.00  0.00    +0.000 C 
BRANCH  22  23
ATOM     23  C   UNL     1       2.267   5.746  18.884  0.00  0.00    +0.000 A 
ATOM     24  C   UNL     1       1.938   5.515  20.227  0.00  0.00    +0.000 A 
ATOM     25  C   UNL     1       1.319   4.322  20.611  0.00  0.00    +0.000 A 
ATOM     26  C   UNL     1       1.019   3.350  19.659  0.00  0.00    +0.000 A 
ATOM     27  C   UNL     1       1.330   3.570  18.319  0.00  0.00    +0.000 A 
ATOM     28  C   UNL     1       1.950   4.762  17.934  0.00  0.00    +0.000 A 
ENDBRANCH  22  23
ENDBRANCH  21  22
ENDBRANCH  18  21
ENDBRANCH   1  17
BRANCH   1  29
ATOM     29  C   UNL     1      -1.639  10.095  18.934  0.00  0.00    +0.000 C 
BRANCH  29  30
ATOM     30  C   UNL     1      -2.435  10.359  17.676  0.00  0.00    +0.000 A 
ATOM     31  C   UNL     1      -3.560  11.191  17.707  0.00  0.00    +0.000 A 
ATOM     32  C   UNL     1      -4.319  11.398  16.554  0.00  0.00    +0.000 A 
ATOM     33  C   UNL     1      -3.955  10.783  15.357  0.00  0.00    +0.000 A 
ATOM     34  C   UNL     1      -2.823   9.972  15.309  0.00  0.00    +0.000 A 
ATOM     35  C   UNL     1      -2.066   9.758  16.463  0.00  0.00    +0.000 A 
ENDBRANCH  29  30
ENDBRANCH   1  29
TORSDOF 9
ENDMDL
MODEL 8
REMARK VINA RESULT:      -7.6      3.459      6.541
REMARK  Name = 
REMARK  11 active torsions:
REMARK  status: ('A' for Active; 'I' for Inactive)
REMARK    1  A    between atoms: C_1  and  C_2
REMARK    2  A    between atoms: C_2  and  C_3
REMARK    3  A    between atoms: C_2  and  N_4
REMARK    4  A    between atoms: C_8  and  N_9
REMARK    5  A    between atoms: C_10  and  C_12
REMARK    6  A    between atoms: C_12  and  C_13
REMARK    7  A    between atoms: C_12  and  N_20
REMARK    8  A    between atoms: C_13  and  C_14
REMARK    9  A    between atoms: C_21  and  O_23
REMARK   10  A    between atoms: O_23  and  C_24
REMARK   11  A    between atoms: C_24  and  C_25
REMARK                            x       y       z     vdW  Elec       q    Type
REMARK                         _______ _______ _______ _____ _____    ______ ____
ROOT
ATOM      1  C   UNL     1       2.518   6.814  18.247  0.00  0.00    +0.000 C 
ENDROOT
BRANCH   1   3
ATOM      2  N   UNL     1       1.079   8.784  18.395  0.00  0.00    +0.000 N 
ATOM      3  C   UNL     1       2.198   8.249  17.789  0.00  0.00    +0.000 C 
ATOM      4  O   UNL     1       2.905   8.905  17.026  0.00  0.00    +0.000 OA
ATOM      5  H   UNL     1       0.664   8.225  19.149  0.00  0.00    +0.000 HD
BRANCH   2  10
ATOM      6  N   UNL     1      -0.543  11.055  20.652  0.00  0.00    +0.000 N 
ATOM      7  C   UNL     1      -1.321  10.160  19.804  0.00  0.00    +0.000 C 
ATOM      8  C   UNL     1      -0.848  10.229  18.373  0.00  0.00    +0.000 C 
ATOM      9  O   UNL     1      -1.626  10.105  17.427  0.00  0.00    +0.000 OA
ATOM     10  C   UNL     1       0.659  10.160  18.198  0.00  0.00    +0.000 C 
ATOM     11  C   UNL     1       1.365  11.112  19.135  0.00  0.00    +0.000 C 
ATOM     12  C   UNL     1       0.842  11.107  20.556  0.00  0.00    +0.000 C 
ATOM     13  O   UNL     1       1.576  11.385  21.499  0.00  0.00    +0.000 OA
BRANCH   6  15
ATOM     14  C   UNL     1      -2.466  12.513  20.929  0.00  0.00    +0.000 C 
ATOM     15  C   UNL     1      -1.207  11.957  21.603  0.00  0.00    +0.000 C 
ATOM     16  C   UNL     1      -1.547  11.339  22.958  0.00  0.00    +0.000 C 
ENDBRANCH   6  15
ENDBRANCH   2  10
ENDBRANCH   1   3
BRANCH   1  17
ATOM     17  N   UNL     1       3.879   6.463  17.809  0.00  0.00    +0.000 N 
ATOM     18  C   UNL     1       4.174   5.249  17.266  0.00  0.00    +0.000 C 
ATOM     19  O   UNL     1       3.330   4.396  17.023  0.00  0.00    +0.000 OA
ATOM     20  H   UNL     1       4.614   7.157  17.814  0.00  0.00    +0.000 HD
BRANCH  18  21
ATOM     21  O   UNL     1       5.502   5.135  17.047  0.00  0.00    +0.000 OA
BRANCH  21  22
ATOM     22  C   UNL     1       5.902   3.935  16.365  0.00  0.00    +0.000 C 
BRANCH  22  23
ATOM     23  C   UNL     1       6.305   4.171  14.929  0.00  0.00    +0.000 A 
ATOM     24  C   UNL     1       7.363   5.033  14.610  0.00  0.00    +0.000 A 
ATOM     25  C   UNL     1       7.766   5.199  13.281  0.00  0.00    +0.000 A 
ATOM     26  C   UNL     1       7.120   4.504  12.260  0.00  0.00    +0.000 A 
ATOM     27  C   UNL     1       6.075   3.635  12.565  0.00  0.00    +0.000 A 
ATOM     28  C   UNL     1       5.670   3.470  13.892  0.00  0.00    +0.000 A 
ENDBRANCH  22  23
ENDBRANCH  21  22
ENDBRANCH  18  21
ENDBRANCH   1  17
BRANCH   1  29
ATOM     29  C   UNL     1       2.299   6.683  19.762  0.00  0.00    +0.000 C 
BRANCH  29  30
ATOM     30  C   UNL     1       1.982   5.272  20.203  0.00  0.00    +0.000 A 
ATOM     31  C   UNL     1       1.095   4.477  19.466  0.00  0.00    +0.000 A 
ATOM     32  C   UNL     1       0.770   3.191  19.899  0.00  0.00    +0.000 A 
ATOM     33  C   UNL     1       1.336   2.683  21.067  0.00  0.00    +0.000 A 
ATOM     34  C   UNL     1       2.238   3.455  21.796  0.00  0.00    +0.000 A 
ATOM     35  C   UNL     1       2.560   4.745  21.368  0.00  0.00    +0.000 A 
ENDBRANCH  29  30
ENDBRANCH   1  29
TORSDOF 9
ENDMDL
MODEL 9
REMARK VINA RESULT:      -7.6      1.346      1.600
REMARK  Name = 
REMARK  11 active torsions:
REMARK  status: ('A' for Active; 'I' for Inactive)
REMARK    1  A    between atoms: C_1  and  C_2
REMARK    2  A    between atoms: C_2  and  C_3
REMARK    3  A    between atoms: C_2  and  N_4
REMARK    4  A    between atoms: C_8  and  N_9
REMARK    5  A    between atoms: C_10  and  C_12
REMARK    6  A    between atoms: C_12  and  C_13
REMARK    7  A    between atoms: C_12  and  N_20
REMARK    8  A    between atoms: C_13  and  C_14
REMARK    9  A    between atoms: C_21  and  O_23
REMARK   10  A    between atoms: O_23  and  C_24
REMARK   11  A    between atoms: C_24  and  C_25
REMARK                            x       y       z     vdW  Elec       q    Type
REMARK                         _______ _______ _______ _____ _____    ______ ____
ROOT
ATOM      1  C   UNL     1       0.224  10.847  18.925  0.00  0.00    +0.000 C 
ENDROOT
BRANCH   1   3
ATOM      2  N   UNL     1      -0.064  13.098  19.832  0.00  0.00    +0.000 N 
ATOM      3  C   UNL     1       0.851  12.192  19.334  0.00  0.00    +0.000 C 
ATOM      4  O   UNL     1       2.058  12.428  19.311  0.00  0.00    +0.000 OA
ATOM      5  H   UNL     1      -1.016  12.743  19.979  0.00  0.00    +0.000 HD
BRANCH   2  10
ATOM      6  N   UNL     1      -1.742  15.195  22.214  0.00  0.00    +0.000 N 
ATOM      7  C   UNL     1      -2.019  15.313  20.787  0.00  0.00    +0.000 C 
ATOM      8  C   UNL     1      -0.736  15.405  19.997  0.00  0.00    +0.000 C 
ATOM      9  O   UNL     1      -0.654  16.084  18.974  0.00  0.00    +0.000 OA
ATOM     10  C   UNL     1       0.322  14.386  20.381  0.00  0.00    +0.000 C 
ATOM     11  C   UNL     1       0.514  14.332  21.880  0.00  0.00    +0.000 C 
ATOM     12  C   UNL     1      -0.768  14.321  22.684  0.00  0.00    +0.000 C 
ATOM     13  O   UNL     1      -0.819  13.779  23.784  0.00  0.00    +0.000 OA
BRANCH   6  15
ATOM     14  C   UNL     1      -2.342  17.488  22.745  0.00  0.00    +0.000 C 
ATOM     15  C   UNL     1      -2.458  16.026  23.191  0.00  0.00    +0.000 C 
ATOM     16  C   UNL     1      -3.918  15.646  23.425  0.00  0.00    +0.000 C 
ENDBRANCH   6  15
ENDBRANCH   2  10
ENDBRANCH   1   3
BRANCH   1  17
ATOM     17  N   UNL     1       0.996   9.752  19.535  0.00  0.00    +0.000 N 
ATOM     18  C   UNL     1       1.601   8.789  18.786  0.00  0.00    +0.000 C 
ATOM     19  O   UNL     1       1.625   8.802  17.562  0.00  0.00    +0.000 OA
ATOM     20  H   UNL     1       1.177   9.744  20.530  0.00  0.00    +0.000 HD
BRANCH  18  21
ATOM     21  O   UNL     1       2.153   7.845  19.580  0.00  0.00    +0.000 OA
BRANCH  21  22
ATOM     22  C   UNL     1       2.803   6.771  18.880  0.00  0.00    +0.000 C 
BRANCH  22  23
ATOM     23  C   UNL     1       2.180   5.422  19.145  0.00  0.00    +0.000 A 
ATOM     24  C   UNL     1       1.757   5.064  20.433  0.00  0.00    +0.000 A 
ATOM     25  C   UNL     1       1.128   3.836  20.657  0.00  0.00    +0.000 A 
ATOM     26  C   UNL     1       0.912   2.955  19.598  0.00  0.00    +0.000 A 
ATOM     27  C   UNL     1       1.317   3.303  18.312  0.00  0.00    +0.000 A 
ATOM     28  C   UNL     1       1.947   4.530  18.087  0.00  0.00    +0.000 A 
ENDBRANCH  22  23
ENDBRANCH  21  22
ENDBRANCH  18  21
ENDBRANCH   1  17
BRANCH   1  29
ATOM     29  C   UNL     1      -1.270  10.830  19.285  0.00  0.00    +0.000 C 
BRANCH  29  30
ATOM     30  C   UNL     1      -2.178  10.785  18.077  0.00  0.00    +0.000 A 
ATOM     31  C   UNL     1      -3.348  11.552  18.036  0.00  0.00    +0.000 A 
ATOM     32  C   UNL     1      -4.207  11.475  16.939  0.00  0.00    +0.000 A 
ATOM     33  C   UNL     1      -3.901  10.636  15.868  0.00  0.00    +0.000 A 
ATOM     34  C   UNL     1      -2.727   9.885  15.888  0.00  0.00    +0.000 A 
ATOM     35  C   UNL     1      -1.869   9.957  16.987  0.00  0.00    +0.000 A 
ENDBRANCH  29  30
ENDBRANCH   1  29
TORSDOF 9
ENDMDL
