MODEL 1
REMARK VINA RESULT:      -8.0      0.000      0.000
REMARK  Name = 
REMARK  14 active torsions:
REMARK  status: ('A' for Active; 'I' for Inactive)
REMARK    1  A    between atoms: C_1  and  C_2
REMARK    2  A    between atoms: C_2  and  C_3
REMARK    3  A    between atoms: C_3  and  C_4
REMARK    4  A    between atoms: C_4  and  C_5
REMARK    5  A    between atoms: C_5  and  C_6
REMARK    6  A    between atoms: C_6  and  O_7
REMARK    7  A    between atoms: C_6  and  C_8
REMARK    8  A    between atoms: C_11  and  N_12
REMARK    9  A    between atoms: C_17  and  C_18
REMARK   10  A    between atoms: C_18  and  O_19
REMARK   11  A    between atoms: O_19  and  C_20
REMARK   12  A    between atoms: C_20  and  C_21
REMARK   13  A    between atoms: C_25  and  C_26
REMARK   14  A    between atoms: C_26  and  O_28
REMARK                            x       y       z     vdW  Elec       q    Type
REMARK                         _______ _______ _______ _____ _____    ______ ____
ROOT
ATOM      1  N   UNL     1       2.868   3.708  19.394  0.00  0.00    +0.000 N 
ATOM      2  C   UNL     1       2.164   2.704  18.718  0.00  0.00    +0.000 C 
ATOM      3  O   UNL     1       2.326   2.288  17.582  0.00  0.00    +0.000 OA
ATOM      4  C   UNL     1       1.096   2.190  19.643  0.00  0.00    +0.000 C 
ATOM      5  C   UNL     1       1.518   2.723  21.004  0.00  0.00    +0.000 C 
ATOM      6  C   UNL     1       2.279   4.007  20.687  0.00  0.00    +0.000 C 
ENDROOT
BRANCH   1  10
ATOM      7  C   UNL     1       5.728   6.208  17.562  0.00  0.00    +0.000 A 
ATOM      8  C   UNL     1       6.065   5.443  18.684  0.00  0.00    +0.000 A 
ATOM      9  C   UNL     1       5.111   4.640  19.300  0.00  0.00    +0.000 A 
ATOM     10  C   UNL     1       3.811   4.565  18.795  0.00  0.00    +0.000 A 
ATOM     11  C   UNL     1       3.472   5.314  17.665  0.00  0.00    +0.000 A 
ATOM     12  C   UNL     1       4.417   6.147  17.068  0.00  0.00    +0.000 A 
BRANCH   7  13
ATOM     13  C   UNL     1       6.818   6.959  16.832  0.00  0.00    +0.000 C 
BRANCH  13  14
ATOM     14  O   UNL     1       7.502   6.104  15.923  0.00  0.00    +0.000 OA
ATOM     15  H   UNL     1       8.175   5.617  16.424  0.00  0.00    +0.000 HD
ENDBRANCH  13  14
BRANCH  13  16
ATOM     16  C   UNL     1       7.773   7.546  17.877  0.00  0.00    +0.000 C 
BRANCH  16  17
ATOM     17  C   UNL     1       8.119   9.006  17.613  0.00  0.00    +0.000 C 
BRANCH  17  18
ATOM     18  C   UNL     1       8.838   9.601  18.824  0.00  0.00    +0.000 C 
BRANCH  18  20
ATOM     19  C   UNL     1      10.420  11.399  19.581  0.00  0.00    +0.000 C 
ATOM     20  C   UNL     1       9.482  10.939  18.478  0.00  0.00    +0.000 C 
ENDBRANCH  18  20
ENDBRANCH  17  18
ENDBRANCH  16  17
ENDBRANCH  13  16
ENDBRANCH   7  13
ENDBRANCH   1  10
BRANCH   6  21
ATOM     21  C   UNL     1       1.380   5.262  20.617  0.00  0.00    +0.000 C 
BRANCH  21  22
ATOM     22  O   UNL     1       2.160   6.448  20.767  0.00  0.00    +0.000 OA
BRANCH  22  23
ATOM     23  C   UNL     1       1.351   7.566  21.147  0.00  0.00    +0.000 C 
BRANCH  23  24
ATOM     24  C   UNL     1       1.268   8.540  19.995  0.00  0.00    +0.000 A 
ATOM     25  C   UNL     1       2.090   8.365  18.873  0.00  0.00    +0.000 A 
ATOM     26  C   UNL     1       2.063   9.286  17.821  0.00  0.00    +0.000 A 
ATOM     27  C   UNL     1       1.217  10.393  17.886  0.00  0.00    +0.000 A 
ATOM     28  C   UNL     1       0.394  10.590  18.995  0.00  0.00    +0.000 A 
ATOM     29  C   UNL     1       0.430   9.671  20.057  0.00  0.00    +0.000 A 
BRANCH  28  30
ATOM     30  C   UNL     1      -0.448  11.816  19.026  0.00  0.00    +0.000 C 
ATOM     31  O   UNL     1      -1.036  12.170  20.033  0.00  0.00    +0.000 OA
BRANCH  30  32
ATOM     32  O   UNL     1      -0.484  12.521  17.877  0.00  0.00    +0.000 OA
ATOM     33  H   UNL     1       0.300  13.063  17.679  0.00  0.00    +0.000 HD
ENDBRANCH  30  32
ENDBRANCH  28  30
ENDBRANCH  23  24
ENDBRANCH  22  23
ENDBRANCH  21  22
ENDBRANCH   6  21
TORSDOF 13
ENDMDL
MODEL 2
REMARK VINA RESULT:      -7.8      2.740      4.480
REMARK  Name = 
REMARK  14 active torsions:
REMARK  status: ('A' for Active; 'I' for Inactive)
REMARK    1  A    between atoms: C_1  and  C_2
REMARK    2  A    between atoms: C_2  and  C_3
REMARK    3  A    between atoms: C_3  and  C_4
REMARK    4  A    between atoms: C_4  and  C_5
REMARK    5  A    between atoms: C_5  and  C_6
REMARK    6  A    between atoms: C_6  and  O_7
REMARK    7  A    between atoms: C_6  and  C_8
REMARK    8  A    between atoms: C_11  and  N_12
REMARK    9  A    between atoms: C_17  and  C_18
REMARK   10  A    between atoms: C_18  and  O_19
REMARK   11  A    between atoms: O_19  and  C_20
REMARK   12  A    between atoms: C_20  and  C_21
REMARK   13  A    between atoms: C_25  and  C_26
REMARK   14  A    between atoms: C_26  and  O_28
REMARK                            x       y       z     vdW  Elec       q    Type
REMARK                         _______ _______ _______ _____ _____    ______ ____
ROOT
ATOM      1  N   UNL     1       3.198   3.733  19.551  0.00  0.00    +0.000 N 
ATOM      2  C   UNL     1       2.342   2.630  19.656  0.00  0.00    +0.000 C 
ATOM      3  O   UNL     1       2.355   1.588  19.020  0.00  0.00    +0.000 OA
ATOM      4  C   UNL     1       1.323   2.938  20.718  0.00  0.00    +0.000 C 
ATOM      5  C   UNL     1       1.922   4.132  21.448  0.00  0.00    +0.000 C 
ATOM      6  C   UNL     1       2.766   4.837  20.390  0.00  0.00    +0.000 C 
ENDROOT
BRANCH   1  10
ATOM      7  C   UNL     1       6.028   4.336  16.483  0.00  0.00    +0.000 A 
ATOM      8  C   UNL     1       4.738   3.885  16.183  0.00  0.00    +0.000 A 
ATOM      9  C   UNL     1       3.817   3.663  17.201  0.00  0.00    +0.000 A 
ATOM     10  C   UNL     1       4.155   3.909  18.534  0.00  0.00    +0.000 A 
ATOM     11  C   UNL     1       5.437   4.376  18.838  0.00  0.00    +0.000 A 
ATOM     12  C   UNL     1       6.372   4.565  17.823  0.00  0.00    +0.000 A 
BRANCH   7  13
ATOM     13  C   UNL     1       6.959   4.702  15.350  0.00  0.00    +0.000 C 
BRANCH  13  14
ATOM     14  O   UNL     1       7.733   5.851  15.680  0.00  0.00    +0.000 OA
ATOM     15  H   UNL     1       7.417   6.587  15.134  0.00  0.00    +0.000 HD
ENDBRANCH  13  14
BRANCH  13  16
ATOM     16  C   UNL     1       6.111   4.939  14.096  0.00  0.00    +0.000 C 
BRANCH  16  17
ATOM     17  C   UNL     1       6.117   3.750  13.141  0.00  0.00    +0.000 C 
BRANCH  17  18
ATOM     18  C   UNL     1       4.703   3.489  12.624  0.00  0.00    +0.000 C 
BRANCH  18  20
ATOM     19  C   UNL     1       3.433   3.161  10.481  0.00  0.00    +0.000 C 
ATOM     20  C   UNL     1       4.733   2.894  11.220  0.00  0.00    +0.000 C 
ENDBRANCH  18  20
ENDBRANCH  17  18
ENDBRANCH  16  17
ENDBRANCH  13  16
ENDBRANCH   7  13
ENDBRANCH   1  10
BRANCH   6  21
ATOM     21  C   UNL     1       1.986   5.890  19.573  0.00  0.00    +0.000 C 
BRANCH  21  22
ATOM     22  O   UNL     1       2.192   7.196  20.110  0.00  0.00    +0.000 OA
BRANCH  22  23
ATOM     23  C   UNL     1       2.149   8.200  19.090  0.00  0.00    +0.000 C 
BRANCH  23  24
ATOM     24  C   UNL     1       1.069   9.204  19.418  0.00  0.00    +0.000 A 
ATOM     25  C   UNL     1       0.679   9.399  20.750  0.00  0.00    +0.000 A 
ATOM     26  C   UNL     1      -0.354  10.286  21.065  0.00  0.00    +0.000 A 
ATOM     27  C   UNL     1      -1.010  10.981  20.049  0.00  0.00    +0.000 A 
ATOM     28  C   UNL     1      -0.642  10.799  18.716  0.00  0.00    +0.000 A 
ATOM     29  C   UNL     1       0.389   9.898  18.399  0.00  0.00    +0.000 A 
BRANCH  28  30
ATOM     30  C   UNL     1      -1.413  11.532  17.676  0.00  0.00    +0.000 C 
ATOM     31  O   UNL     1      -2.275  10.987  17.009  0.00  0.00    +0.000 OA
BRANCH  30  32
ATOM     32  O   UNL     1      -1.115  12.841  17.552  0.00  0.00    +0.000 OA
ATOM     33  H   UNL     1      -0.349  13.058  16.991  0.00  0.00    +0.000 HD
ENDBRANCH  30  32
ENDBRANCH  28  30
ENDBRANCH  23  24
ENDBRANCH  22  23
ENDBRANCH  21  22
ENDBRANCH   6  21
TORSDOF 13
ENDMDL
MODEL 3
REMARK VINA RESULT:      -7.8      3.004      4.582
REMARK  Name = 
REMARK  14 active torsions:
REMARK  status: ('A' for Active; 'I' for Inactive)
REMARK    1  A    between atoms: C_1  and  C_2
REMARK    2  A    between atoms: C_2  and  C_3
REMARK    3  A    between atoms: C_3  and  C_4
REMARK    4  A    between atoms: C_4  and  C_5
REMARK    5  A    between atoms: C_5  and  C_6
REMARK    6  A    between atoms: C_6  and  O_7
REMARK    7  A    between atoms: C_6  and  C_8
REMARK    8  A    between atoms: C_11  and  N_12
REMARK    9  A    between atoms: C_17  and  C_18
REMARK   10  A    between atoms: C_18  and  O_19
REMARK   11  A    between atoms: O_19  and  C_20
REMARK   12  A    between atoms: C_20  and  C_21
REMARK   13  A    between atoms: C_25  and  C_26
REMARK   14  A    between atoms: C_26  and  O_28
REMARK                            x       y       z     vdW  Elec       q    Type
REMARK                         _______ _______ _______ _____ _____    ______ ____
ROOT
ATOM      1  N   UNL     1       3.326   3.608  19.509  0.00  0.00    +0.000 N 
ATOM      2  C   UNL     1       2.735   2.366  19.771  0.00  0.00    +0.000 C 
ATOM      3  O   UNL     1       2.930   1.294  19.220  0.00  0.00    +0.000 OA
ATOM      4  C   UNL     1       1.747   2.554  20.888  0.00  0.00    +0.000 C 
ATOM      5  C   UNL     1       2.121   3.910  21.469  0.00  0.00    +0.000 C 
ATOM      6  C   UNL     1       2.723   4.672  20.292  0.00  0.00    +0.000 C 
ENDROOT
BRANCH   1  10
ATOM      7  C   UNL     1       5.852   4.359  16.216  0.00  0.00    +0.000 A 
ATOM      8  C   UNL     1       6.280   4.635  17.519  0.00  0.00    +0.000 A 
ATOM      9  C   UNL     1       5.433   4.410  18.599  0.00  0.00    +0.000 A 
ATOM     10  C   UNL     1       4.154   3.883  18.404  0.00  0.00    +0.000 A 
ATOM     11  C   UNL     1       3.727   3.589  17.106  0.00  0.00    +0.000 A 
ATOM     12  C   UNL     1       4.561   3.848  16.020  0.00  0.00    +0.000 A 
BRANCH   7  13
ATOM     13  C   UNL     1       6.840   4.480  15.078  0.00  0.00    +0.000 C 
BRANCH  13  14
ATOM     14  O   UNL     1       7.722   5.577  15.287  0.00  0.00    +0.000 OA
ATOM     15  H   UNL     1       7.307   6.367  14.907  0.00  0.00    +0.000 HD
ENDBRANCH  13  14
BRANCH  13  16
ATOM     16  C   UNL     1       6.048   4.637  13.775  0.00  0.00    +0.000 C 
BRANCH  16  17
ATOM     17  C   UNL     1       6.529   3.704  12.671  0.00  0.00    +0.000 C 
BRANCH  17  18
ATOM     18  C   UNL     1       5.334   3.024  12.003  0.00  0.00    +0.000 C 
BRANCH  18  20
ATOM     19  C   UNL     1       7.278   1.780  11.009  0.00  0.00    +0.000 C 
ATOM     20  C   UNL     1       5.772   1.795  11.214  0.00  0.00    +0.000 C 
ENDBRANCH  18  20
ENDBRANCH  17  18
ENDBRANCH  16  17
ENDBRANCH  13  16
ENDBRANCH   7  13
ENDBRANCH   1  10
BRANCH   6  21
ATOM     21  C   UNL     1       1.683   5.458  19.463  0.00  0.00    +0.000 C 
BRANCH  21  22
ATOM     22  O   UNL     1       2.332   6.299  18.510  0.00  0.00    +0.000 OA
BRANCH  22  23
ATOM     23  C   UNL     1       2.836   7.494  19.117  0.00  0.00    +0.000 C 
BRANCH  23  24
ATOM     24  C   UNL     1       1.688   8.434  19.404  0.00  0.00    +0.000 A 
ATOM     25  C   UNL     1       1.142   9.205  18.368  0.00  0.00    +0.000 A 
ATOM     26  C   UNL     1       0.115  10.117  18.627  0.00  0.00    +0.000 A 
ATOM     27  C   UNL     1      -0.371  10.270  19.925  0.00  0.00    +0.000 A 
ATOM     28  C   UNL     1       0.160   9.517  20.972  0.00  0.00    +0.000 A 
ATOM     29  C   UNL     1       1.201   8.609  20.714  0.00  0.00    +0.000 A 
BRANCH  28  30
ATOM     30  C   UNL     1      -0.367   9.762  22.341  0.00  0.00    +0.000 C 
ATOM     31  O   UNL     1      -0.248  10.842  22.894  0.00  0.00    +0.000 OA
BRANCH  30  32
ATOM     32  O   UNL     1      -1.012   8.722  22.907  0.00  0.00    +0.000 OA
ATOM     33  H   UNL     1      -1.011   7.888  22.403  0.00  0.00    +0.000 HD
ENDBRANCH  30  32
ENDBRANCH  28  30
ENDBRANCH  23  24
ENDBRANCH  22  23
ENDBRANCH  21  22
ENDBRANCH   6  21
TORSDOF 13
ENDMDL
MODEL 4
REMARK VINA RESULT:      -7.7      1.154      1.999
REMARK  Name = 
REMARK  14 active torsions:
REMARK  status: ('A' for Active; 'I' for Inactive)
REMARK    1  A    between atoms: C_1  and  C_2
REMARK    2  A    between atoms: C_2  and  C_3
REMARK    3  A    between atoms: C_3  and  C_4
REMARK    4  A    between atoms: C_4  and  C_5
REMARK    5  A    between atoms: C_5  and  C_6
REMARK    6  A    between atoms: C_6  and  O_7
REMARK    7  A    between atoms: C_6  and  C_8
REMARK    8  A    between atoms: C_11  and  N_12
REMARK    9  A    between atoms: C_17  and  C_18
REMARK   10  A    between atoms: C_18  and  O_19
REMARK   11  A    between atoms: O_19  and  C_20
REMARK   12  A    between atoms: C_20  and  C_21
REMARK   13  A    between atoms: C_25  and  C_26
REMARK   14  A    between atoms: C_26  and  O_28
REMARK                            x       y       z     vdW  Elec       q    Type
REMARK                         _______ _______ _______ _____ _____    ______ ____
ROOT
ATOM      1  N   UNL     1       2.934   3.964  19.549  0.00  0.00    +0.000 N 
ATOM      2  C   UNL     1       2.264   2.827  19.082  0.00  0.00    +0.000 C 
ATOM      3  O   UNL     1       2.517   2.137  18.107  0.00  0.00    +0.000 OA
ATOM      4  C   UNL     1       1.101   2.569  19.999  0.00  0.00    +0.000 C 
ATOM      5  C   UNL     1       1.413   3.425  21.218  0.00  0.00    +0.000 C 
ATOM      6  C   UNL     1       2.239   4.583  20.664  0.00  0.00    +0.000 C 
ENDROOT
BRANCH   1  10
ATOM      7  C   UNL     1       5.958   6.055  17.483  0.00  0.00    +0.000 A 
ATOM      8  C   UNL     1       4.650   6.022  16.988  0.00  0.00    +0.000 A 
ATOM      9  C   UNL     1       3.662   5.309  17.660  0.00  0.00    +0.000 A 
ATOM     10  C   UNL     1       3.953   4.637  18.849  0.00  0.00    +0.000 A 
ATOM     11  C   UNL     1       5.254   4.680  19.358  0.00  0.00    +0.000 A 
ATOM     12  C   UNL     1       6.253   5.364  18.667  0.00  0.00    +0.000 A 
BRANCH   7  13
ATOM     13  C   UNL     1       6.974   6.950  16.812  0.00  0.00    +0.000 C 
BRANCH  13  14
ATOM     14  O   UNL     1       7.745   6.220  15.864  0.00  0.00    +0.000 OA
ATOM     15  H   UNL     1       8.619   6.638  15.809  0.00  0.00    +0.000 HD
ENDBRANCH  13  14
BRANCH  13  16
ATOM     16  C   UNL     1       7.860   7.565  17.901  0.00  0.00    +0.000 C 
BRANCH  16  17
ATOM     17  C   UNL     1       7.883   9.088  17.859  0.00  0.00    +0.000 C 
BRANCH  17  18
ATOM     18  C   UNL     1       8.960   9.620  18.804  0.00  0.00    +0.000 C 
BRANCH  18  20
ATOM     19  C   UNL     1      10.616  11.464  19.220  0.00  0.00    +0.000 C 
ATOM     20  C   UNL     1       9.609  10.881  18.243  0.00  0.00    +0.000 C 
ENDBRANCH  18  20
ENDBRANCH  17  18
ENDBRANCH  16  17
ENDBRANCH  13  16
ENDBRANCH   7  13
ENDBRANCH   1  10
BRANCH   6  21
ATOM     21  C   UNL     1       1.389   5.785  20.197  0.00  0.00    +0.000 C 
BRANCH  21  22
ATOM     22  O   UNL     1       1.508   6.872  21.115  0.00  0.00    +0.000 OA
BRANCH  22  23
ATOM     23  C   UNL     1       1.622   8.127  20.435  0.00  0.00    +0.000 C 
BRANCH  23  24
ATOM     24  C   UNL     1       0.765   9.156  21.135  0.00  0.00    +0.000 A 
ATOM     25  C   UNL     1       0.485   9.018  22.502  0.00  0.00    +0.000 A 
ATOM     26  C   UNL     1      -0.348   9.933  23.152  0.00  0.00    +0.000 A 
ATOM     27  C   UNL     1      -0.914  10.990  22.439  0.00  0.00    +0.000 A 
ATOM     28  C   UNL     1      -0.653  11.144  21.077  0.00  0.00    +0.000 A 
ATOM     29  C   UNL     1       0.175  10.217  20.421  0.00  0.00    +0.000 A 
BRANCH  28  30
ATOM     30  C   UNL     1      -1.326  12.262  20.363  0.00  0.00    +0.000 C 
ATOM     31  O   UNL     1      -0.930  13.411  20.446  0.00  0.00    +0.000 OA
BRANCH  30  32
ATOM     32  O   UNL     1      -2.377  11.908  19.596  0.00  0.00    +0.000 OA
ATOM     33  H   UNL     1      -2.270  12.028  18.635  0.00  0.00    +0.000 HD
ENDBRANCH  30  32
ENDBRANCH  28  30
ENDBRANCH  23  24
ENDBRANCH  22  23
ENDBRANCH  21  22
ENDBRANCH   6  21
TORSDOF 13
ENDMDL
MODEL 5
REMARK VINA RESULT:      -7.7      2.827      4.477
REMARK  Name = 
REMARK  14 active torsions:
REMARK  status: ('A' for Active; 'I' for Inactive)
REMARK    1  A    between atoms: C_1  and  C_2
REMARK    2  A    between atoms: C_2  and  C_3
REMARK    3  A    between atoms: C_3  and  C_4
REMARK    4  A    between atoms: C_4  and  C_5
REMARK    5  A    between atoms: C_5  and  C_6
REMARK    6  A    between atoms: C_6  and  O_7
REMARK    7  A    between atoms: C_6  and  C_8
REMARK    8  A    between atoms: C_11  and  N_12
REMARK    9  A    between atoms: C_17  and  C_18
REMARK   10  A    between atoms: C_18  and  O_19
REMARK   11  A    between atoms: O_19  and  C_20
REMARK   12  A    between atoms: C_20  and  C_21
REMARK   13  A    between atoms: C_25  and  C_26
REMARK   14  A    between atoms: C_26  and  O_28
REMARK                            x       y       z     vdW  Elec       q    Type
REMARK                         _______ _______ _______ _____ _____    ______ ____
ROOT
ATOM      1  N   UNL     1       3.056   3.560  19.754  0.00  0.00    +0.000 N 
ATOM      2  C   UNL     1       2.253   2.414  19.767  0.00  0.00    +0.000 C 
ATOM      3  O   UNL     1       2.262   1.465  18.999  0.00  0.00    +0.000 OA
ATOM      4  C   UNL     1       1.301   2.533  20.924  0.00  0.00    +0.000 C 
ATOM      5  C   UNL     1       1.903   3.650  21.765  0.00  0.00    +0.000 C 
ATOM      6  C   UNL     1       2.643   4.525  20.757  0.00  0.00    +0.000 C 
ENDROOT
BRANCH   1  10
ATOM      7  C   UNL     1       5.619   4.660  16.589  0.00  0.00    +0.000 A 
ATOM      8  C   UNL     1       4.649   3.667  16.408  0.00  0.00    +0.000 A 
ATOM      9  C   UNL     1       3.824   3.291  17.463  0.00  0.00    +0.000 A 
ATOM     10  C   UNL     1       3.933   3.912  18.709  0.00  0.00    +0.000 A 
ATOM     11  C   UNL     1       4.888   4.915  18.891  0.00  0.00    +0.000 A 
ATOM     12  C   UNL     1       5.739   5.269  17.846  0.00  0.00    +0.000 A 
BRANCH   7  13
ATOM     13  C   UNL     1       6.402   5.146  15.392  0.00  0.00    +0.000 C 
BRANCH  13  14
ATOM     14  O   UNL     1       5.784   6.290  14.811  0.00  0.00    +0.000 OA
ATOM     15  H   UNL     1       5.707   6.132  13.858  0.00  0.00    +0.000 HD
ENDBRANCH  13  14
BRANCH  13  16
ATOM     16  C   UNL     1       6.501   3.992  14.387  0.00  0.00    +0.000 C 
BRANCH  16  17
ATOM     17  C   UNL     1       6.955   4.445  13.005  0.00  0.00    +0.000 C 
BRANCH  17  18
ATOM     18  C   UNL     1       6.256   3.616  11.928  0.00  0.00    +0.000 C 
BRANCH  18  20
ATOM     19  C   UNL     1       3.952   3.137  11.048  0.00  0.00    +0.000 C 
ATOM     20  C   UNL     1       4.796   3.362  12.291  0.00  0.00    +0.000 C 
ENDBRANCH  18  20
ENDBRANCH  17  18
ENDBRANCH  16  17
ENDBRANCH  13  16
ENDBRANCH   7  13
ENDBRANCH   1  10
BRANCH   6  21
ATOM     21  C   UNL     1       1.767   5.637  20.138  0.00  0.00    +0.000 C 
BRANCH  21  22
ATOM     22  O   UNL     1       2.283   6.926  20.470  0.00  0.00    +0.000 OA
BRANCH  22  23
ATOM     23  C   UNL     1       2.096   7.860  19.401  0.00  0.00    +0.000 C 
BRANCH  23  24
ATOM     24  C   UNL     1       1.142   8.945  19.843  0.00  0.00    +0.000 A 
ATOM     25  C   UNL     1       0.694   9.899  18.920  0.00  0.00    +0.000 A 
ATOM     26  C   UNL     1      -0.148  10.939  19.326  0.00  0.00    +0.000 A 
ATOM     27  C   UNL     1      -0.544  11.036  20.659  0.00  0.00    +0.000 A 
ATOM     28  C   UNL     1      -0.106  10.100  21.596  0.00  0.00    +0.000 A 
ATOM     29  C   UNL     1       0.750   9.062  21.191  0.00  0.00    +0.000 A 
BRANCH  28  30
ATOM     30  C   UNL     1      -0.523  10.288  23.012  0.00  0.00    +0.000 C 
ATOM     31  O   UNL     1      -1.270  11.189  23.350  0.00  0.00    +0.000 OA
BRANCH  30  32
ATOM     32  O   UNL     1      -0.046   9.373  23.880  0.00  0.00    +0.000 OA
ATOM     33  H   UNL     1      -0.669   9.056  24.559  0.00  0.00    +0.000 HD
ENDBRANCH  30  32
ENDBRANCH  28  30
ENDBRANCH  23  24
ENDBRANCH  22  23
ENDBRANCH  21  22
ENDBRANCH   6  21
TORSDOF 13
ENDMDL
MODEL 6
REMARK VINA RESULT:      -7.7      0.679      1.213
REMARK  Name = 
REMARK  14 active torsions:
REMARK  status: ('A' for Active; 'I' for Inactive)
REMARK    1  A    between atoms: C_1  and  C_2
REMARK    2  A    between atoms: C_2  and  C_3
REMARK    3  A    between atoms: C_3  and  C_4
REMARK    4  A    between atoms: C_4  and  C_5
REMARK    5  A    between atoms: C_5  and  C_6
REMARK    6  A    between atoms: C_6  and  O_7
REMARK    7  A    between atoms: C_6  and  C_8
REMARK    8  A    between atoms: C_11  and  N_12
REMARK    9  A    between atoms: C_17  and  C_18
REMARK   10  A    between atoms: C_18  and  O_19
REMARK   11  A    between atoms: O_19  and  C_20
REMARK   12  A    between atoms: C_20  and  C_21
REMARK   13  A    between atoms: C_25  and  C_26
REMARK   14  A    between atoms: C_26  and  O_28
REMARK                            x       y       z     vdW  Elec       q    Type
REMARK                         _______ _______ _______ _____ _____    ______ ____
ROOT
ATOM      1  N   UNL     1       2.881   3.839  19.537  0.00  0.00    +0.000 N 
ATOM      2  C   UNL     1       2.149   2.761  19.025  0.00  0.00    +0.000 C 
ATOM      3  O   UNL     1       2.328   2.136  17.992  0.00  0.00    +0.000 OA
ATOM      4  C   UNL     1       1.026   2.473  19.982  0.00  0.00    +0.000 C 
ATOM      5  C   UNL     1       1.429   3.228  21.240  0.00  0.00    +0.000 C 
ATOM      6  C   UNL     1       2.266   4.397  20.728  0.00  0.00    +0.000 C 
ENDROOT
BRANCH   1  10
ATOM      7  C   UNL     1       5.865   5.981  17.463  0.00  0.00    +0.000 A 
ATOM      8  C   UNL     1       4.549   5.953  16.989  0.00  0.00    +0.000 A 
ATOM      9  C   UNL     1       3.574   5.224  17.662  0.00  0.00    +0.000 A 
ATOM     10  C   UNL     1       3.887   4.529  18.833  0.00  0.00    +0.000 A 
ATOM     11  C   UNL     1       5.196   4.567  19.321  0.00  0.00    +0.000 A 
ATOM     12  C   UNL     1       6.181   5.267  18.628  0.00  0.00    +0.000 A 
BRANCH   7  13
ATOM     13  C   UNL     1       6.867   6.892  16.792  0.00  0.00    +0.000 C 
BRANCH  13  14
ATOM     14  O   UNL     1       7.640   6.178  15.834  0.00  0.00    +0.000 OA
ATOM     15  H   UNL     1       7.878   6.797  15.126  0.00  0.00    +0.000 HD
ENDBRANCH  13  14
BRANCH  13  16
ATOM     16  C   UNL     1       7.753   7.507  17.882  0.00  0.00    +0.000 C 
BRANCH  16  17
ATOM     17  C   UNL     1       7.890   9.019  17.752  0.00  0.00    +0.000 C 
BRANCH  17  18
ATOM     18  C   UNL     1       8.874   9.546  18.797  0.00  0.00    +0.000 C 
BRANCH  18  20
ATOM     19  C   UNL     1      10.546  11.340  19.343  0.00  0.00    +0.000 C 
ATOM     20  C   UNL     1       9.532  10.840  18.328  0.00  0.00    +0.000 C 
ENDBRANCH  18  20
ENDBRANCH  17  18
ENDBRANCH  16  17
ENDBRANCH  13  16
ENDBRANCH   7  13
ENDBRANCH   1  10
BRANCH   6  21
ATOM     21  C   UNL     1       1.436   5.656  20.393  0.00  0.00    +0.000 C 
BRANCH  21  22
ATOM     22  O   UNL     1       2.223   6.835  20.558  0.00  0.00    +0.000 OA
BRANCH  22  23
ATOM     23  C   UNL     1       1.490   7.871  21.220  0.00  0.00    +0.000 C 
BRANCH  23  24
ATOM     24  C   UNL     1       0.981   8.859  20.197  0.00  0.00    +0.000 A 
ATOM     25  C   UNL     1       1.593   8.938  18.938  0.00  0.00    +0.000 A 
ATOM     26  C   UNL     1       1.168   9.882  17.999  0.00  0.00    +0.000 A 
ATOM     27  C   UNL     1       0.131  10.760  18.314  0.00  0.00    +0.000 A 
ATOM     28  C   UNL     1      -0.490  10.702  19.561  0.00  0.00    +0.000 A 
ATOM     29  C   UNL     1      -0.054   9.761  20.510  0.00  0.00    +0.000 A 
BRANCH  28  30
ATOM     30  C   UNL     1      -1.556  11.699  19.853  0.00  0.00    +0.000 C 
ATOM     31  O   UNL     1      -2.554  11.796  19.162  0.00  0.00    +0.000 OA
BRANCH  30  32
ATOM     32  O   UNL     1      -1.353  12.456  20.950  0.00  0.00    +0.000 OA
ATOM     33  H   UNL     1      -1.624  12.065  21.800  0.00  0.00    +0.000 HD
ENDBRANCH  30  32
ENDBRANCH  28  30
ENDBRANCH  23  24
ENDBRANCH  22  23
ENDBRANCH  21  22
ENDBRANCH   6  21
TORSDOF 13
ENDMDL
MODEL 7
REMARK VINA RESULT:      -7.6      0.757      1.206
REMARK  Name = 
REMARK  14 active torsions:
REMARK  status: ('A' for Active; 'I' for Inactive)
REMARK    1  A    between atoms: C_1  and  C_2
REMARK    2  A    between atoms: C_2  and  C_3
REMARK    3  A    between atoms: C_3  and  C_4
REMARK    4  A    between atoms: C_4  and  C_5
REMARK    5  A    between atoms: C_5  and  C_6
REMARK    6  A    between atoms: C_6  and  O_7
REMARK    7  A    between atoms: C_6  and  C_8
REMARK    8  A    between atoms: C_11  and  N_12
REMARK    9  A    between atoms: C_17  and  C_18
REMARK   10  A    between atoms: C_18  and  O_19
REMARK   11  A    between atoms: O_19  and  C_20
REMARK   12  A    between atoms: C_20  and  C_21
REMARK   13  A    between atoms: C_25  and  C_26
REMARK   14  A    between atoms: C_26  and  O_28
REMARK                            x       y       z     vdW  Elec       q    Type
REMARK                         _______ _______ _______ _____ _____    ______ ____
ROOT
ATOM      1  N   UNL     1       3.162   3.302  19.345  0.00  0.00    +0.000 N 
ATOM      2  C   UNL     1       2.699   2.090  18.819  0.00  0.00    +0.000 C 
ATOM      3  O   UNL     1       3.124   1.459  17.864  0.00  0.00    +0.000 OA
ATOM      4  C   UNL     1       1.514   1.657  19.636  0.00  0.00    +0.000 C 
ATOM      5  C   UNL     1       1.604   2.529  20.880  0.00  0.00    +0.000 C 
ATOM      6  C   UNL     1       2.300   3.800  20.402  0.00  0.00    +0.000 C 
ENDROOT
BRANCH   1  10
ATOM      7  C   UNL     1       6.007   5.828  17.523  0.00  0.00    +0.000 A 
ATOM      8  C   UNL     1       4.894   5.376  16.806  0.00  0.00    +0.000 A 
ATOM      9  C   UNL     1       3.972   4.522  17.404  0.00  0.00    +0.000 A 
ATOM     10  C   UNL     1       4.129   4.123  18.733  0.00  0.00    +0.000 A 
ATOM     11  C   UNL     1       5.230   4.585  19.459  0.00  0.00    +0.000 A 
ATOM     12  C   UNL     1       6.173   5.411  18.851  0.00  0.00    +0.000 A 
BRANCH   7  13
ATOM     13  C   UNL     1       6.912   6.863  16.895  0.00  0.00    +0.000 C 
BRANCH  13  14
ATOM     14  O   UNL     1       7.757   6.271  15.915  0.00  0.00    +0.000 OA
ATOM     15  H   UNL     1       8.512   5.874  16.376  0.00  0.00    +0.000 HD
ENDBRANCH  13  14
BRANCH  13  16
ATOM     16  C   UNL     1       7.727   7.522  18.014  0.00  0.00    +0.000 C 
BRANCH  16  17
ATOM     17  C   UNL     1       8.053   8.983  17.731  0.00  0.00    +0.000 C 
BRANCH  17  18
ATOM     18  C   UNL     1       8.910   9.556  18.859  0.00  0.00    +0.000 C 
BRANCH  18  20
ATOM     19  C   UNL     1      10.459  11.425  19.510  0.00  0.00    +0.000 C 
ATOM     20  C   UNL     1       9.420  10.950  18.508  0.00  0.00    +0.000 C 
ENDBRANCH  18  20
ENDBRANCH  17  18
ENDBRANCH  16  17
ENDBRANCH  13  16
ENDBRANCH   7  13
ENDBRANCH   1  10
BRANCH   6  21
ATOM     21  C   UNL     1       1.329   4.879  19.872  0.00  0.00    +0.000 C 
BRANCH  21  22
ATOM     22  O   UNL     1       1.061   5.852  20.881  0.00  0.00    +0.000 OA
BRANCH  22  23
ATOM     23  C   UNL     1       2.096   6.839  20.950  0.00  0.00    +0.000 C 
BRANCH  23  24
ATOM     24  C   UNL     1       1.888   7.862  19.857  0.00  0.00    +0.000 A 
ATOM     25  C   UNL     1       2.525   7.701  18.619  0.00  0.00    +0.000 A 
ATOM     26  C   UNL     1       2.383   8.664  17.617  0.00  0.00    +0.000 A 
ATOM     27  C   UNL     1       1.609   9.800  17.846  0.00  0.00    +0.000 A 
ATOM     28  C   UNL     1       0.969   9.984  19.072  0.00  0.00    +0.000 A 
ATOM     29  C   UNL     1       1.121   9.022  20.084  0.00  0.00    +0.000 A 
BRANCH  28  30
ATOM     30  C   UNL     1       0.198  11.241  19.271  0.00  0.00    +0.000 C 
ATOM     31  O   UNL     1      -0.812  11.486  18.635  0.00  0.00    +0.000 OA
BRANCH  30  32
ATOM     32  O   UNL     1       0.675  12.066  20.225  0.00  0.00    +0.000 OA
ATOM     33  H   UNL     1       1.236  11.656  20.909  0.00  0.00    +0.000 HD
ENDBRANCH  30  32
ENDBRANCH  28  30
ENDBRANCH  23  24
ENDBRANCH  22  23
ENDBRANCH  21  22
ENDBRANCH   6  21
TORSDOF 13
ENDMDL
MODEL 8
REMARK VINA RESULT:      -7.6      2.633      4.245
REMARK  Name = 
REMARK  14 active torsions:
REMARK  status: ('A' for Active; 'I' for Inactive)
REMARK    1  A    between atoms: C_1  and  C_2
REMARK    2  A    between atoms: C_2  and  C_3
REMARK    3  A    between atoms: C_3  and  C_4
REMARK    4  A    between atoms: C_4  and  C_5
REMARK    5  A    between atoms: C_5  and  C_6
REMARK    6  A    between atoms: C_6  and  O_7
REMARK    7  A    between atoms: C_6  and  C_8
REMARK    8  A    between atoms: C_11  and  N_12
REMARK    9  A    between atoms: C_17  and  C_18
REMARK   10  A    between atoms: C_18  and  O_19
REMARK   11  A    between atoms: O_19  and  C_20
REMARK   12  A    between atoms: C_20  and  C_21
REMARK   13  A    between atoms: C_25  and  C_26
REMARK   14  A    between atoms: C_26  and  O_28
REMARK                            x       y       z     vdW  Elec       q    Type
REMARK                         _______ _______ _______ _____ _____    ______ ____
ROOT
ATOM      1  N   UNL     1       3.127   3.746  19.742  0.00  0.00    +0.000 N 
ATOM      2  C   UNL     1       2.460   2.514  19.760  0.00  0.00    +0.000 C 
ATOM      3  O   UNL     1       2.642   1.536  19.053  0.00  0.00    +0.000 OA
ATOM      4  C   UNL     1       1.405   2.578  20.829  0.00  0.00    +0.000 C 
ATOM      5  C   UNL     1       1.803   3.799  21.647  0.00  0.00    +0.000 C 
ATOM      6  C   UNL     1       2.522   4.704  20.651  0.00  0.00    +0.000 C 
ENDROOT
BRANCH   1  10
ATOM      7  C   UNL     1       5.904   4.862  16.771  0.00  0.00    +0.000 A 
ATOM      8  C   UNL     1       6.304   4.728  18.105  0.00  0.00    +0.000 A 
ATOM      9  C   UNL     1       5.378   4.385  19.085  0.00  0.00    +0.000 A 
ATOM     10  C   UNL     1       4.043   4.145  18.751  0.00  0.00    +0.000 A 
ATOM     11  C   UNL     1       3.641   4.261  17.418  0.00  0.00    +0.000 A 
ATOM     12  C   UNL     1       4.560   4.640  16.440  0.00  0.00    +0.000 A 
BRANCH   7  13
ATOM     13  C   UNL     1       6.955   5.096  15.710  0.00  0.00    +0.000 C 
BRANCH  13  14
ATOM     14  O   UNL     1       7.713   6.266  15.997  0.00  0.00    +0.000 OA
ATOM     15  H   UNL     1       7.104   6.937  16.342  0.00  0.00    +0.000 HD
ENDBRANCH  13  14
BRANCH  13  16
ATOM     16  C   UNL     1       6.246   5.206  14.355  0.00  0.00    +0.000 C 
BRANCH  16  17
ATOM     17  C   UNL     1       6.412   3.958  13.496  0.00  0.00    +0.000 C 
BRANCH  17  18
ATOM     18  C   UNL     1       5.045   3.472  13.013  0.00  0.00    +0.000 C 
BRANCH  18  20
ATOM     19  C   UNL     1       3.760   3.271  10.863  0.00  0.00    +0.000 C 
ATOM     20  C   UNL     1       5.099   3.052  11.548  0.00  0.00    +0.000 C 
ENDBRANCH  18  20
ENDBRANCH  17  18
ENDBRANCH  16  17
ENDBRANCH  13  16
ENDBRANCH   7  13
ENDBRANCH   1  10
BRANCH   6  21
ATOM     21  C   UNL     1       1.582   5.672  19.900  0.00  0.00    +0.000 C 
BRANCH  21  22
ATOM     22  O   UNL     1       2.053   7.015  20.009  0.00  0.00    +0.000 OA
BRANCH  22  23
ATOM     23  C   UNL     1       1.834   7.546  21.321  0.00  0.00    +0.000 C 
BRANCH  23  24
ATOM     24  C   UNL     1       0.972   8.784  21.223  0.00  0.00    +0.000 A 
ATOM     25  C   UNL     1       0.406   9.333  22.382  0.00  0.00    +0.000 A 
ATOM     26  C   UNL     1      -0.435  10.447  22.303  0.00  0.00    +0.000 A 
ATOM     27  C   UNL     1      -0.723  11.016  21.063  0.00  0.00    +0.000 A 
ATOM     28  C   UNL     1      -0.175  10.483  19.896  0.00  0.00    +0.000 A 
ATOM     29  C   UNL     1       0.661   9.356  19.975  0.00  0.00    +0.000 A 
BRANCH  28  30
ATOM     30  C   UNL     1      -0.561  11.105  18.600  0.00  0.00    +0.000 C 
ATOM     31  O   UNL     1      -0.981  12.247  18.533  0.00  0.00    +0.000 OA
BRANCH  30  32
ATOM     32  O   UNL     1      -0.380  10.330  17.512  0.00  0.00    +0.000 OA
ATOM     33  H   UNL     1       0.228   9.576  17.615  0.00  0.00    +0.000 HD
ENDBRANCH  30  32
ENDBRANCH  28  30
ENDBRANCH  23  24
ENDBRANCH  22  23
ENDBRANCH  21  22
ENDBRANCH   6  21
TORSDOF 13
ENDMDL
MODEL 9
REMARK VINA RESULT:      -7.4      3.328      8.225
REMARK  Name = 
REMARK  14 active torsions:
REMARK  status: ('A' for Active; 'I' for Inactive)
REMARK    1  A    between atoms: C_1  and  C_2
REMARK    2  A    between atoms: C_2  and  C_3
REMARK    3  A    between atoms: C_3  and  C_4
REMARK    4  A    between atoms: C_4  and  C_5
REMARK    5  A    between atoms: C_5  and  C_6
REMARK    6  A    between atoms: C_6  and  O_7
REMARK    7  A    between atoms: C_6  and  C_8
REMARK    8  A    between atoms: C_11  and  N_12
REMARK    9  A    between atoms: C_17  and  C_18
REMARK   10  A    between atoms: C_18  and  O_19
REMARK   11  A    between atoms: O_19  and  C_20
REMARK   12  A    between atoms: C_20  and  C_21
REMARK   13  A    between atoms: C_25  and  C_26
REMARK   14  A    between atoms: C_26  and  O_28
REMARK                            x       y       z     vdW  Elec       q    Type
REMARK                         _______ _______ _______ _____ _____    ______ ____
ROOT
ATOM      1  N   UNL     1       2.573   4.424  19.198  0.00  0.00    +0.000 N 
ATOM      2  C   UNL     1       2.673   3.635  20.351  0.00  0.00    +0.000 C 
ATOM      3  O   UNL     1       2.432   3.938  21.508  0.00  0.00    +0.000 OA
ATOM      4  C   UNL     1       3.174   2.279  19.937  0.00  0.00    +0.000 C 
ATOM      5  C   UNL     1       2.972   2.272  18.428  0.00  0.00    +0.000 C 
ATOM      6  C   UNL     1       3.085   3.739  18.025  0.00  0.00    +0.000 C 
ENDROOT
BRANCH   1  10
ATOM      7  C   UNL     1       1.768   8.564  19.159  0.00  0.00    +0.000 A 
ATOM      8  C   UNL     1       2.134   7.899  17.985  0.00  0.00    +0.000 A 
ATOM      9  C   UNL     1       2.424   6.539  18.008  0.00  0.00    +0.000 A 
ATOM     10  C   UNL     1       2.330   5.811  19.197  0.00  0.00    +0.000 A 
ATOM     11  C   UNL     1       1.948   6.466  20.370  0.00  0.00    +0.000 A 
ATOM     12  C   UNL     1       1.693   7.836  20.356  0.00  0.00    +0.000 A 
BRANCH   7  13
ATOM     13  C   UNL     1       1.324  10.006  19.078  0.00  0.00    +0.000 C 
BRANCH  13  14
ATOM     14  O   UNL     1       1.060  10.530  20.375  0.00  0.00    +0.000 OA
ATOM     15  H   UNL     1       0.669  11.411  20.265  0.00  0.00    +0.000 HD
ENDBRANCH  13  14
BRANCH  13  16
ATOM     16  C   UNL     1       0.080  10.071  18.184  0.00  0.00    +0.000 C 
BRANCH  16  17
ATOM     17  C   UNL     1      -1.191  10.400  18.957  0.00  0.00    +0.000 C 
BRANCH  17  18
ATOM     18  C   UNL     1      -2.411  10.239  18.050  0.00  0.00    +0.000 C 
BRANCH  18  20
ATOM     19  C   UNL     1      -3.201   9.842  15.698  0.00  0.00    +0.000 C 
ATOM     20  C   UNL     1      -1.992   9.945  16.614  0.00  0.00    +0.000 C 
ENDBRANCH  18  20
ENDBRANCH  17  18
ENDBRANCH  16  17
ENDBRANCH  13  16
ENDBRANCH   7  13
ENDBRANCH   1  10
BRANCH   6  21
ATOM     21  C   UNL     1       4.528   4.185  17.702  0.00  0.00    +0.000 C 
BRANCH  21  22
ATOM     22  O   UNL     1       4.657   4.502  16.316  0.00  0.00    +0.000 OA
BRANCH  22  23
ATOM     23  C   UNL     1       5.910   5.134  16.033  0.00  0.00    +0.000 C 
BRANCH  23  24
ATOM     24  C   UNL     1       6.360   4.758  14.640  0.00  0.00    +0.000 A 
ATOM     25  C   UNL     1       7.469   5.397  14.068  0.00  0.00    +0.000 A 
ATOM     26  C   UNL     1       7.865   5.097  12.762  0.00  0.00    +0.000 A 
ATOM     27  C   UNL     1       7.151   4.161  12.014  0.00  0.00    +0.000 A 
ATOM     28  C   UNL     1       6.042   3.517  12.561  0.00  0.00    +0.000 A 
ATOM     29  C   UNL     1       5.636   3.827  13.870  0.00  0.00    +0.000 A 
BRANCH  28  30
ATOM     30  C   UNL     1       5.294   2.566  11.695  0.00  0.00    +0.000 C 
ATOM     31  O   UNL     1       4.223   2.857  11.193  0.00  0.00    +0.000 OA
BRANCH  30  32
ATOM     32  O   UNL     1       5.901   1.381  11.480  0.00  0.00    +0.000 OA
ATOM     33  H   UNL     1       5.768   0.698  12.162  0.00  0.00    +0.000 HD
ENDBRANCH  30  32
ENDBRANCH  28  30
ENDBRANCH  23  24
ENDBRANCH  22  23
ENDBRANCH  21  22
ENDBRANCH   6  21
TORSDOF 13
ENDMDL
