MODEL 1
REMARK VINA RESULT:      -7.8      0.000      0.000
REMARK  Name = 
REMARK  7 active torsions:
REMARK  status: ('A' for Active; 'I' for Inactive)
REMARK    1  A    between atoms: C_1  and  C_2
REMARK    2  A    between atoms: N_12  and  C_13
REMARK    3  A    between atoms: C_16  and  O_17
REMARK    4  A    between atoms: O_17  and  C_18
REMARK    5  A    between atoms: C_18  and  C_19
REMARK    6  A    between atoms: C_19  and  C_20
REMARK    7  A    between atoms: C_20  and  N_21
REMARK                            x       y       z     vdW  Elec       q    Type
REMARK                         _______ _______ _______ _____ _____    ______ ____
ROOT
ATOM      1  C   UNL     1       5.813   5.921  17.855  0.00  0.00    +0.000 A 
ATOM      2  C   UNL     1       6.965   5.719  18.614  0.00  0.00    +0.000 A 
ATOM      3  C   UNL     1       7.977   6.668  18.615  0.00  0.00    +0.000 A 
ATOM      4  C   UNL     1       7.841   7.846  17.878  0.00  0.00    +0.000 A 
ATOM      5  C   UNL     1       6.692   8.052  17.114  0.00  0.00    +0.000 A 
ATOM      6  C   UNL     1       5.677   7.087  17.094  0.00  0.00    +0.000 A 
ENDROOT
BRANCH   1  18
ATOM      7  C   UNL     1       5.803   3.712  16.011  0.00  0.00    +0.000 C 
ATOM      8  C   UNL     1       4.721   3.879  17.059  0.00  0.00    +0.000 A 
ATOM      9  N   UNL     1       3.811   2.958  17.119  0.00  0.00    +0.000 NA
ATOM     10  C   UNL     1       2.818   3.060  18.100  0.00  0.00    +0.000 A 
ATOM     11  C   UNL     1       1.806   2.101  18.139  0.00  0.00    +0.000 A 
ATOM     12  C   UNL     1       0.774   2.190  19.079  0.00  0.00    +0.000 A 
ATOM     13  C   UNL     1       0.751   3.237  19.998  0.00  0.00    +0.000 A 
ATOM     14  C   UNL     1       1.769   4.187  19.986  0.00  0.00    +0.000 A 
ATOM     15  C   UNL     1       2.794   4.088  19.037  0.00  0.00    +0.000 A 
ATOM     16  C   UNL     1       3.875   5.080  18.991  0.00  0.00    +0.000 A 
ATOM     17  O   UNL     1       3.912   5.943  19.868  0.00  0.00    +0.000 OA
ATOM     18  N   UNL     1       4.771   4.962  17.925  0.00  0.00    +0.000 N 
ENDBRANCH   1  18
BRANCH   4  19
ATOM     19  O   UNL     1       8.766   8.859  17.851  0.00  0.00    +0.000 OA
BRANCH  19  20
ATOM     20  C   UNL     1       8.902   9.569  19.083  0.00  0.00    +0.000 C 
BRANCH  20  21
ATOM     21  C   UNL     1       9.343  10.994  18.807  0.00  0.00    +0.000 C 
BRANCH  21  22
ATOM     22  C   UNL     1      10.472  11.375  19.772  0.00  0.00    +0.000 C 
BRANCH  22  23
ATOM     23  N   UNL     1      11.708  11.736  19.069  0.00  0.00    +0.000 NA
ATOM     24  C   UNL     1      12.237  13.025  19.545  0.00  0.00    +0.000 C 
ATOM     25  C   UNL     1      11.665  14.059  18.598  0.00  0.00    +0.000 C 
ATOM     26  C   UNL     1      11.728  13.345  17.265  0.00  0.00    +0.000 C 
ATOM     27  C   UNL     1      11.500  11.882  17.615  0.00  0.00    +0.000 C 
ENDBRANCH  22  23
ENDBRANCH  21  22
ENDBRANCH  20  21
ENDBRANCH  19  20
ENDBRANCH   4  19
TORSDOF 6
ENDMDL
MODEL 2
REMARK VINA RESULT:      -7.8      0.715      1.046
REMARK  Name = 
REMARK  7 active torsions:
REMARK  status: ('A' for Active; 'I' for Inactive)
REMARK    1  A    between atoms: C_1  and  C_2
REMARK    2  A    between atoms: N_12  and  C_13
REMARK    3  A    between atoms: C_16  and  O_17
REMARK    4  A    between atoms: O_17  and  C_18
REMARK    5  A    between atoms: C_18  and  C_19
REMARK    6  A    between atoms: C_19  and  C_20
REMARK    7  A    between atoms: C_20  and  N_21
REMARK                            x       y       z     vdW  Elec       q    Type
REMARK                         _______ _______ _______ _____ _____    ______ ____
ROOT
ATOM      1  C   UNL     1       5.906   5.881  17.939  0.00  0.00    +0.000 A 
ATOM      2  C   UNL     1       7.015   5.640  18.751  0.00  0.00    +0.000 A 
ATOM      3  C   UNL     1       8.051   6.559  18.810  0.00  0.00    +0.000 A 
ATOM      4  C   UNL     1       7.984   7.747  18.078  0.00  0.00    +0.000 A 
ATOM      5  C   UNL     1       6.879   7.992  17.262  0.00  0.00    +0.000 A 
ATOM      6  C   UNL     1       5.840   7.057  17.185  0.00  0.00    +0.000 A 
ENDROOT
BRANCH   1  18
ATOM      7  C   UNL     1       5.855   3.765  15.990  0.00  0.00    +0.000 C 
ATOM      8  C   UNL     1       4.765   3.913  17.033  0.00  0.00    +0.000 A 
ATOM      9  N   UNL     1       3.828   3.018  17.037  0.00  0.00    +0.000 NA
ATOM     10  C   UNL     1       2.826   3.102  18.010  0.00  0.00    +0.000 A 
ATOM     11  C   UNL     1       1.785   2.173  17.990  0.00  0.00    +0.000 A 
ATOM     12  C   UNL     1       0.744   2.248  18.922  0.00  0.00    +0.000 A 
ATOM     13  C   UNL     1       0.740   3.249  19.891  0.00  0.00    +0.000 A 
ATOM     14  C   UNL     1       1.786   4.168  19.937  0.00  0.00    +0.000 A 
ATOM     15  C   UNL     1       2.820   4.084  18.996  0.00  0.00    +0.000 A 
ATOM     16  C   UNL     1       3.930   5.045  19.011  0.00  0.00    +0.000 A 
ATOM     17  O   UNL     1       3.981   5.862  19.930  0.00  0.00    +0.000 OA
ATOM     18  N   UNL     1       4.836   4.951  17.951  0.00  0.00    +0.000 N 
ENDBRANCH   1  18
BRANCH   4  19
ATOM     19  O   UNL     1       8.938   8.734  18.105  0.00  0.00    +0.000 OA
BRANCH  19  20
ATOM     20  C   UNL     1       8.414  10.063  18.127  0.00  0.00    +0.000 C 
BRANCH  20  21
ATOM     21  C   UNL     1       9.380  10.982  18.850  0.00  0.00    +0.000 C 
BRANCH  21  22
ATOM     22  C   UNL     1      10.432  11.496  17.861  0.00  0.00    +0.000 C 
BRANCH  22  23
ATOM     23  N   UNL     1      10.571  12.957  17.904  0.00  0.00    +0.000 NA
ATOM     24  C   UNL     1      11.987  13.358  17.925  0.00  0.00    +0.000 C 
ATOM     25  C   UNL     1      12.333  13.509  19.391  0.00  0.00    +0.000 C 
ATOM     26  C   UNL     1      11.075  14.130  19.956  0.00  0.00    +0.000 C 
ATOM     27  C   UNL     1       9.955  13.539  19.113  0.00  0.00    +0.000 C 
ENDBRANCH  22  23
ENDBRANCH  21  22
ENDBRANCH  20  21
ENDBRANCH  19  20
ENDBRANCH   4  19
TORSDOF 6
ENDMDL
MODEL 3
REMARK VINA RESULT:      -7.6      1.121      1.381
REMARK  Name = 
REMARK  7 active torsions:
REMARK  status: ('A' for Active; 'I' for Inactive)
REMARK    1  A    between atoms: C_1  and  C_2
REMARK    2  A    between atoms: N_12  and  C_13
REMARK    3  A    between atoms: C_16  and  O_17
REMARK    4  A    between atoms: O_17  and  C_18
REMARK    5  A    between atoms: C_18  and  C_19
REMARK    6  A    between atoms: C_19  and  C_20
REMARK    7  A    between atoms: C_20  and  N_21
REMARK                            x       y       z     vdW  Elec       q    Type
REMARK                         _______ _______ _______ _____ _____    ______ ____
ROOT
ATOM      1  C   UNL     1       5.859   5.865  17.919  0.00  0.00    +0.000 A 
ATOM      2  C   UNL     1       6.977   5.642  18.722  0.00  0.00    +0.000 A 
ATOM      3  C   UNL     1       8.014   6.562  18.748  0.00  0.00    +0.000 A 
ATOM      4  C   UNL     1       7.939   7.733  17.990  0.00  0.00    +0.000 A 
ATOM      5  C   UNL     1       6.825   7.960  17.182  0.00  0.00    +0.000 A 
ATOM      6  C   UNL     1       5.785   7.024  17.138  0.00  0.00    +0.000 A 
ENDROOT
BRANCH   1  18
ATOM      7  C   UNL     1       5.774   3.716  16.007  0.00  0.00    +0.000 C 
ATOM      8  C   UNL     1       4.702   3.883  17.065  0.00  0.00    +0.000 A 
ATOM      9  N   UNL     1       3.764   2.989  17.100  0.00  0.00    +0.000 NA
ATOM     10  C   UNL     1       2.779   3.091  18.088  0.00  0.00    +0.000 A 
ATOM     11  C   UNL     1       1.737   2.162  18.101  0.00  0.00    +0.000 A 
ATOM     12  C   UNL     1       0.712   2.254  19.049  0.00  0.00    +0.000 A 
ATOM     13  C   UNL     1       0.724   3.272  20.000  0.00  0.00    +0.000 A 
ATOM     14  C   UNL     1       1.772   4.190  20.013  0.00  0.00    +0.000 A 
ATOM     15  C   UNL     1       2.790   4.089  19.057  0.00  0.00    +0.000 A 
ATOM     16  C   UNL     1       3.901   5.049  19.037  0.00  0.00    +0.000 A 
ATOM     17  O   UNL     1       3.967   5.883  19.940  0.00  0.00    +0.000 OA
ATOM     18  N   UNL     1       4.788   4.937  17.964  0.00  0.00    +0.000 N 
ENDBRANCH   1  18
BRANCH   4  19
ATOM     19  O   UNL     1       8.893   8.719  17.984  0.00  0.00    +0.000 OA
BRANCH  19  20
ATOM     20  C   UNL     1       8.425   9.999  18.412  0.00  0.00    +0.000 C 
BRANCH  20  21
ATOM     21  C   UNL     1       9.564  10.778  19.041  0.00  0.00    +0.000 C 
BRANCH  21  22
ATOM     22  C   UNL     1       9.268  11.005  20.528  0.00  0.00    +0.000 C 
BRANCH  22  23
ATOM     23  N   UNL     1      10.211  11.943  21.147  0.00  0.00    +0.000 NA
ATOM     24  C   UNL     1       9.506  12.984  21.912  0.00  0.00    +0.000 C 
ATOM     25  C   UNL     1       9.344  14.140  20.946  0.00  0.00    +0.000 C 
ATOM     26  C   UNL     1      10.658  14.119  20.197  0.00  0.00    +0.000 C 
ATOM     27  C   UNL     1      11.036  12.647  20.146  0.00  0.00    +0.000 C 
ENDBRANCH  22  23
ENDBRANCH  21  22
ENDBRANCH  20  21
ENDBRANCH  19  20
ENDBRANCH   4  19
TORSDOF 6
ENDMDL
MODEL 4
REMARK VINA RESULT:      -7.6      0.845      1.401
REMARK  Name = 
REMARK  7 active torsions:
REMARK  status: ('A' for Active; 'I' for Inactive)
REMARK    1  A    between atoms: C_1  and  C_2
REMARK    2  A    between atoms: N_12  and  C_13
REMARK    3  A    between atoms: C_16  and  O_17
REMARK    4  A    between atoms: O_17  and  C_18
REMARK    5  A    between atoms: C_18  and  C_19
REMARK    6  A    between atoms: C_19  and  C_20
REMARK    7  A    between atoms: C_20  and  N_21
REMARK                            x       y       z     vdW  Elec       q    Type
REMARK                         _______ _______ _______ _____ _____    ______ ____
ROOT
ATOM      1  C   UNL     1       5.752   5.951  18.003  0.00  0.00    +0.000 A 
ATOM      2  C   UNL     1       5.588   7.090  17.214  0.00  0.00    +0.000 A 
ATOM      3  C   UNL     1       6.596   8.039  17.136  0.00  0.00    +0.000 A 
ATOM      4  C   UNL     1       7.796   7.853  17.826  0.00  0.00    +0.000 A 
ATOM      5  C   UNL     1       7.965   6.718  18.620  0.00  0.00    +0.000 A 
ATOM      6  C   UNL     1       6.942   5.767  18.717  0.00  0.00    +0.000 A 
ENDROOT
BRANCH   1  18
ATOM      7  C   UNL     1       5.846   3.800  16.095  0.00  0.00    +0.000 C 
ATOM      8  C   UNL     1       4.728   3.914  17.112  0.00  0.00    +0.000 A 
ATOM      9  N   UNL     1       3.836   2.974  17.115  0.00  0.00    +0.000 NA
ATOM     10  C   UNL     1       2.811   3.026  18.066  0.00  0.00    +0.000 A 
ATOM     11  C   UNL     1       1.817   2.047  18.043  0.00  0.00    +0.000 A 
ATOM     12  C   UNL     1       0.754   2.087  18.952  0.00  0.00    +0.000 A 
ATOM     13  C   UNL     1       0.681   3.105  19.901  0.00  0.00    +0.000 A 
ATOM     14  C   UNL     1       1.680   4.075  19.950  0.00  0.00    +0.000 A 
ATOM     15  C   UNL     1       2.736   4.024  19.032  0.00  0.00    +0.000 A 
ATOM     16  C   UNL     1       3.798   5.039  19.051  0.00  0.00    +0.000 A 
ATOM     17  O   UNL     1       3.789   5.875  19.954  0.00  0.00    +0.000 OA
ATOM     18  N   UNL     1       4.729   4.970  18.011  0.00  0.00    +0.000 N 
ENDBRANCH   1  18
BRANCH   4  19
ATOM     19  O   UNL     1       8.864   8.712  17.777  0.00  0.00    +0.000 OA
BRANCH  19  20
ATOM     20  C   UNL     1       8.575  10.042  18.211  0.00  0.00    +0.000 C 
BRANCH  20  21
ATOM     21  C   UNL     1       9.359  10.350  19.473  0.00  0.00    +0.000 C 
BRANCH  21  22
ATOM     22  C   UNL     1      10.254  11.571  19.232  0.00  0.00    +0.000 C 
BRANCH  22  23
ATOM     23  N   UNL     1       9.841  12.341  18.053  0.00  0.00    +0.000 NA
ATOM     24  C   UNL     1      11.001  12.718  17.228  0.00  0.00    +0.000 C 
ATOM     25  C   UNL     1      11.395  14.099  17.710  0.00  0.00    +0.000 C 
ATOM     26  C   UNL     1      10.051  14.747  17.961  0.00  0.00    +0.000 C 
ATOM     27  C   UNL     1       9.163  13.600  18.419  0.00  0.00    +0.000 C 
ENDBRANCH  22  23
ENDBRANCH  21  22
ENDBRANCH  20  21
ENDBRANCH  19  20
ENDBRANCH   4  19
TORSDOF 6
ENDMDL
MODEL 5
REMARK VINA RESULT:      -7.3      1.058      1.803
REMARK  Name = 
REMARK  7 active torsions:
REMARK  status: ('A' for Active; 'I' for Inactive)
REMARK    1  A    between atoms: C_1  and  C_2
REMARK    2  A    between atoms: N_12  and  C_13
REMARK    3  A    between atoms: C_16  and  O_17
REMARK    4  A    between atoms: O_17  and  C_18
REMARK    5  A    between atoms: C_18  and  C_19
REMARK    6  A    between atoms: C_19  and  C_20
REMARK    7  A    between atoms: C_20  and  N_21
REMARK                            x       y       z     vdW  Elec       q    Type
REMARK                         _______ _______ _______ _____ _____    ______ ____
ROOT
ATOM      1  C   UNL     1       5.887   6.006  18.054  0.00  0.00    +0.000 A 
ATOM      2  C   UNL     1       5.766   7.138  17.249  0.00  0.00    +0.000 A 
ATOM      3  C   UNL     1       6.771   8.093  17.229  0.00  0.00    +0.000 A 
ATOM      4  C   UNL     1       7.927   7.918  17.994  0.00  0.00    +0.000 A 
ATOM      5  C   UNL     1       8.053   6.789  18.803  0.00  0.00    +0.000 A 
ATOM      6  C   UNL     1       7.031   5.833  18.842  0.00  0.00    +0.000 A 
ENDROOT
BRANCH   1  18
ATOM      7  C   UNL     1       6.055   3.907  16.094  0.00  0.00    +0.000 C 
ATOM      8  C   UNL     1       4.906   3.986  17.078  0.00  0.00    +0.000 A 
ATOM      9  N   UNL     1       4.020   3.041  17.028  0.00  0.00    +0.000 NA
ATOM     10  C   UNL     1       2.965   3.062  17.948  0.00  0.00    +0.000 A 
ATOM     11  C   UNL     1       1.980   2.078  17.868  0.00  0.00    +0.000 A 
ATOM     12  C   UNL     1       0.889   2.087  18.744  0.00  0.00    +0.000 A 
ATOM     13  C   UNL     1       0.779   3.079  19.717  0.00  0.00    +0.000 A 
ATOM     14  C   UNL     1       1.769   4.053  19.822  0.00  0.00    +0.000 A 
ATOM     15  C   UNL     1       2.854   4.033  18.937  0.00  0.00    +0.000 A 
ATOM     16  C   UNL     1       3.907   5.054  19.016  0.00  0.00    +0.000 A 
ATOM     17  O   UNL     1       3.865   5.865  19.940  0.00  0.00    +0.000 OA
ATOM     18  N   UNL     1       4.870   5.019  18.004  0.00  0.00    +0.000 N 
ENDBRANCH   1  18
BRANCH   4  19
ATOM     19  O   UNL     1       8.992   8.784  18.006  0.00  0.00    +0.000 OA
BRANCH  19  20
ATOM     20  C   UNL     1       8.641  10.149  18.237  0.00  0.00    +0.000 C 
BRANCH  20  21
ATOM     21  C   UNL     1       9.874  11.023  18.108  0.00  0.00    +0.000 C 
BRANCH  21  22
ATOM     22  C   UNL     1       9.486  12.490  18.326  0.00  0.00    +0.000 C 
BRANCH  22  23
ATOM     23  N   UNL     1      10.389  13.173  19.259  0.00  0.00    +0.000 NA
ATOM     24  C   UNL     1      10.890  12.251  20.290  0.00  0.00    +0.000 C 
ATOM     25  C   UNL     1       9.936  12.406  21.456  0.00  0.00    +0.000 C 
ATOM     26  C   UNL     1       9.658  13.893  21.447  0.00  0.00    +0.000 C 
ATOM     27  C   UNL     1       9.719  14.276  19.976  0.00  0.00    +0.000 C 
ENDBRANCH  22  23
ENDBRANCH  21  22
ENDBRANCH  20  21
ENDBRANCH  19  20
ENDBRANCH   4  19
TORSDOF 6
ENDMDL
MODEL 6
REMARK VINA RESULT:      -7.1      1.039      1.473
REMARK  Name = 
REMARK  7 active torsions:
REMARK  status: ('A' for Active; 'I' for Inactive)
REMARK    1  A    between atoms: C_1  and  C_2
REMARK    2  A    between atoms: N_12  and  C_13
REMARK    3  A    between atoms: C_16  and  O_17
REMARK    4  A    between atoms: O_17  and  C_18
REMARK    5  A    between atoms: C_18  and  C_19
REMARK    6  A    between atoms: C_19  and  C_20
REMARK    7  A    between atoms: C_20  and  N_21
REMARK                            x       y       z     vdW  Elec       q    Type
REMARK                         _______ _______ _______ _____ _____    ______ ____
ROOT
ATOM      1  C   UNL     1       5.766   6.019  17.967  0.00  0.00    +0.000 A 
ATOM      2  C   UNL     1       5.563   7.159  17.190  0.00  0.00    +0.000 A 
ATOM      3  C   UNL     1       6.546   8.133  17.106  0.00  0.00    +0.000 A 
ATOM      4  C   UNL     1       7.760   7.971  17.779  0.00  0.00    +0.000 A 
ATOM      5  C   UNL     1       7.967   6.834  18.561  0.00  0.00    +0.000 A 
ATOM      6  C   UNL     1       6.969   5.858  18.663  0.00  0.00    +0.000 A 
ENDROOT
BRANCH   1  18
ATOM      7  C   UNL     1       5.917   3.855  16.076  0.00  0.00    +0.000 C 
ATOM      8  C   UNL     1       4.795   3.949  17.090  0.00  0.00    +0.000 A 
ATOM      9  N   UNL     1       3.926   2.988  17.098  0.00  0.00    +0.000 NA
ATOM     10  C   UNL     1       2.898   3.022  18.047  0.00  0.00    +0.000 A 
ATOM     11  C   UNL     1       1.929   2.018  18.029  0.00  0.00    +0.000 A 
ATOM     12  C   UNL     1       0.864   2.039  18.936  0.00  0.00    +0.000 A 
ATOM     13  C   UNL     1       0.763   3.062  19.877  0.00  0.00    +0.000 A 
ATOM     14  C   UNL     1       1.737   4.056  19.920  0.00  0.00    +0.000 A 
ATOM     15  C   UNL     1       2.796   4.025  19.005  0.00  0.00    +0.000 A 
ATOM     16  C   UNL     1       3.832   5.066  19.018  0.00  0.00    +0.000 A 
ATOM     17  O   UNL     1       3.801   5.908  19.915  0.00  0.00    +0.000 OA
ATOM     18  N   UNL     1       4.767   5.012  17.980  0.00  0.00    +0.000 N 
ENDBRANCH   1  18
BRANCH   4  19
ATOM     19  O   UNL     1       8.806   8.857  17.722  0.00  0.00    +0.000 OA
BRANCH  19  20
ATOM     20  C   UNL     1       8.912   9.721  18.855  0.00  0.00    +0.000 C 
BRANCH  20  21
ATOM     21  C   UNL     1       9.744  10.937  18.496  0.00  0.00    +0.000 C 
BRANCH  21  22
ATOM     22  C   UNL     1       9.735  11.925  19.667  0.00  0.00    +0.000 C 
BRANCH  22  23
ATOM     23  N   UNL     1      10.442  13.172  19.350  0.00  0.00    +0.000 NA
ATOM     24  C   UNL     1      10.039  14.260  20.256  0.00  0.00    +0.000 C 
ATOM     25  C   UNL     1       8.917  14.978  19.534  0.00  0.00    +0.000 C 
ATOM     26  C   UNL     1       9.391  14.952  18.097  0.00  0.00    +0.000 C 
ATOM     27  C   UNL     1      10.156  13.642  17.980  0.00  0.00    +0.000 C 
ENDBRANCH  22  23
ENDBRANCH  21  22
ENDBRANCH  20  21
ENDBRANCH  19  20
ENDBRANCH   4  19
TORSDOF 6
ENDMDL
MODEL 7
REMARK VINA RESULT:      -7.0      6.291      9.928
REMARK  Name = 
REMARK  7 active torsions:
REMARK  status: ('A' for Active; 'I' for Inactive)
REMARK    1  A    between atoms: C_1  and  C_2
REMARK    2  A    between atoms: N_12  and  C_13
REMARK    3  A    between atoms: C_16  and  O_17
REMARK    4  A    between atoms: O_17  and  C_18
REMARK    5  A    between atoms: C_18  and  C_19
REMARK    6  A    between atoms: C_19  and  C_20
REMARK    7  A    between atoms: C_20  and  N_21
REMARK                            x       y       z     vdW  Elec       q    Type
REMARK                         _______ _______ _______ _____ _____    ______ ____
ROOT
ATOM      1  C   UNL     1       0.793   9.571  19.345  0.00  0.00    +0.000 A 
ATOM      2  C   UNL     1       1.099   8.536  20.229  0.00  0.00    +0.000 A 
ATOM      3  C   UNL     1       2.020   7.562  19.874  0.00  0.00    +0.000 A 
ATOM      4  C   UNL     1       2.670   7.621  18.639  0.00  0.00    +0.000 A 
ATOM      5  C   UNL     1       2.365   8.652  17.749  0.00  0.00    +0.000 A 
ATOM      6  C   UNL     1       1.421   9.626  18.096  0.00  0.00    +0.000 A 
ENDROOT
BRANCH   1  18
ATOM      7  C   UNL     1      -1.582  10.077  17.801  0.00  0.00    +0.000 C 
ATOM      8  C   UNL     1      -1.263  10.867  19.055  0.00  0.00    +0.000 A 
ATOM      9  N   UNL     1      -2.131  11.755  19.428  0.00  0.00    +0.000 NA
ATOM     10  C   UNL     1      -1.888  12.477  20.602  0.00  0.00    +0.000 A 
ATOM     11  C   UNL     1      -2.791  13.470  20.983  0.00  0.00    +0.000 A 
ATOM     12  C   UNL     1      -2.562  14.240  22.129  0.00  0.00    +0.000 A 
ATOM     13  C   UNL     1      -1.431  14.016  22.911  0.00  0.00    +0.000 A 
ATOM     14  C   UNL     1      -0.535  13.011  22.554  0.00  0.00    +0.000 A 
ATOM     15  C   UNL     1      -0.774  12.250  21.403  0.00  0.00    +0.000 A 
ATOM     16  C   UNL     1       0.158  11.191  20.995  0.00  0.00    +0.000 A 
ATOM     17  O   UNL     1       1.099  10.923  21.741  0.00  0.00    +0.000 OA
ATOM     18  N   UNL     1      -0.105  10.585  19.764  0.00  0.00    +0.000 N 
ENDBRANCH   1  18
BRANCH   4  19
ATOM     19  O   UNL     1       3.625   6.730  18.218  0.00  0.00    +0.000 OA
BRANCH  19  20
ATOM     20  C   UNL     1       3.889   5.668  19.135  0.00  0.00    +0.000 C 
BRANCH  20  21
ATOM     21  C   UNL     1       4.076   4.369  18.375  0.00  0.00    +0.000 C 
BRANCH  21  22
ATOM     22  C   UNL     1       2.706   3.804  17.986  0.00  0.00    +0.000 C 
BRANCH  22  23
ATOM     23  N   UNL     1       2.287   2.704  18.862  0.00  0.00    +0.000 NA
ATOM     24  C   UNL     1       0.926   2.921  19.380  0.00  0.00    +0.000 C 
ATOM     25  C   UNL     1       1.118   3.610  20.715  0.00  0.00    +0.000 C 
ATOM     26  C   UNL     1       2.334   2.902  21.271  0.00  0.00    +0.000 C 
ATOM     27  C   UNL     1       3.165   2.566  20.041  0.00  0.00    +0.000 C 
ENDBRANCH  22  23
ENDBRANCH  21  22
ENDBRANCH  20  21
ENDBRANCH  19  20
ENDBRANCH   4  19
TORSDOF 6
ENDMDL
MODEL 8
REMARK VINA RESULT:      -7.0      6.599     10.251
REMARK  Name = 
REMARK  7 active torsions:
REMARK  status: ('A' for Active; 'I' for Inactive)
REMARK    1  A    between atoms: C_1  and  C_2
REMARK    2  A    between atoms: N_12  and  C_13
REMARK    3  A    between atoms: C_16  and  O_17
REMARK    4  A    between atoms: O_17  and  C_18
REMARK    5  A    between atoms: C_18  and  C_19
REMARK    6  A    between atoms: C_19  and  C_20
REMARK    7  A    between atoms: C_20  and  N_21
REMARK                            x       y       z     vdW  Elec       q    Type
REMARK                         _______ _______ _______ _____ _____    ______ ____
ROOT
ATOM      1  C   UNL     1       0.764   9.998  19.435  0.00  0.00    +0.000 A 
ATOM      2  C   UNL     1       1.376  10.137  18.189  0.00  0.00    +0.000 A 
ATOM      3  C   UNL     1       2.233   9.154  17.718  0.00  0.00    +0.000 A 
ATOM      4  C   UNL     1       2.473   8.004  18.473  0.00  0.00    +0.000 A 
ATOM      5  C   UNL     1       1.867   7.861  19.722  0.00  0.00    +0.000 A 
ATOM      6  C   UNL     1       1.016   8.860  20.209  0.00  0.00    +0.000 A 
ENDROOT
BRANCH   1  18
ATOM      7  C   UNL     1      -1.840  10.121  18.217  0.00  0.00    +0.000 C 
ATOM      8  C   UNL     1      -1.423  11.090  19.304  0.00  0.00    +0.000 A 
ATOM      9  N   UNL     1      -2.308  11.954  19.694  0.00  0.00    +0.000 NA
ATOM     10  C   UNL     1      -1.970  12.841  20.723  0.00  0.00    +0.000 A 
ATOM     11  C   UNL     1      -2.897  13.807  21.114  0.00  0.00    +0.000 A 
ATOM     12  C   UNL     1      -2.582  14.736  22.112  0.00  0.00    +0.000 A 
ATOM     13  C   UNL     1      -1.337  14.701  22.735  0.00  0.00    +0.000 A 
ATOM     14  C   UNL     1      -0.411  13.725  22.371  0.00  0.00    +0.000 A 
ATOM     15  C   UNL     1      -0.738  12.803  21.369  0.00  0.00    +0.000 A 
ATOM     16  C   UNL     1       0.221  11.771  20.955  0.00  0.00    +0.000 A 
ATOM     17  O   UNL     1       1.278  11.674  21.578  0.00  0.00    +0.000 OA
ATOM     18  N   UNL     1      -0.156  10.990  19.859  0.00  0.00    +0.000 N 
ENDBRANCH   1  18
BRANCH   4  19
ATOM     19  O   UNL     1       3.270   6.961  18.072  0.00  0.00    +0.000 OA
BRANCH  19  20
ATOM     20  C   UNL     1       2.697   5.668  18.273  0.00  0.00    +0.000 C 
BRANCH  20  21
ATOM     21  C   UNL     1       3.690   4.773  18.989  0.00  0.00    +0.000 C 
BRANCH  21  22
ATOM     22  C   UNL     1       3.561   3.340  18.459  0.00  0.00    +0.000 C 
BRANCH  22  23
ATOM     23  N   UNL     1       2.977   2.430  19.451  0.00  0.00    +0.000 NA
ATOM     24  C   UNL     1       1.634   1.985  19.044  0.00  0.00    +0.000 C 
ATOM     25  C   UNL     1       0.680   2.956  19.708  0.00  0.00    +0.000 C 
ATOM     26  C   UNL     1       1.331   3.175  21.056  0.00  0.00    +0.000 C 
ATOM     27  C   UNL     1       2.822   3.070  20.772  0.00  0.00    +0.000 C 
ENDBRANCH  22  23
ENDBRANCH  21  22
ENDBRANCH  20  21
ENDBRANCH  19  20
ENDBRANCH   4  19
TORSDOF 6
ENDMDL
MODEL 9
REMARK VINA RESULT:      -6.9      6.446      9.916
REMARK  Name = 
REMARK  7 active torsions:
REMARK  status: ('A' for Active; 'I' for Inactive)
REMARK    1  A    between atoms: C_1  and  C_2
REMARK    2  A    between atoms: N_12  and  C_13
REMARK    3  A    between atoms: C_16  and  O_17
REMARK    4  A    between atoms: O_17  and  C_18
REMARK    5  A    between atoms: C_18  and  C_19
REMARK    6  A    between atoms: C_19  and  C_20
REMARK    7  A    between atoms: C_20  and  N_21
REMARK                            x       y       z     vdW  Elec       q    Type
REMARK                         _______ _______ _______ _____ _____    ______ ____
ROOT
ATOM      1  C   UNL     1       0.745   9.597  19.567  0.00  0.00    +0.000 A 
ATOM      2  C   UNL     1       0.883   8.615  20.548  0.00  0.00    +0.000 A 
ATOM      3  C   UNL     1       1.717   7.527  20.336  0.00  0.00    +0.000 A 
ATOM      4  C   UNL     1       2.447   7.416  19.150  0.00  0.00    +0.000 A 
ATOM      5  C   UNL     1       2.310   8.394  18.164  0.00  0.00    +0.000 A 
ATOM      6  C   UNL     1       1.453   9.483  18.365  0.00  0.00    +0.000 A 
ENDROOT
BRANCH   1  18
ATOM      7  C   UNL     1      -1.807   9.850  18.262  0.00  0.00    +0.000 C 
ATOM      8  C   UNL     1      -1.304  10.895  19.237  0.00  0.00    +0.000 A 
ATOM      9  N   UNL     1      -2.094  11.891  19.493  0.00  0.00    +0.000 NA
ATOM     10  C   UNL     1      -1.678  12.856  20.417  0.00  0.00    +0.000 A 
ATOM     11  C   UNL     1      -2.498  13.958  20.660  0.00  0.00    +0.000 A 
ATOM     12  C   UNL     1      -2.100  14.963  21.548  0.00  0.00    +0.000 A 
ATOM     13  C   UNL     1      -0.877  14.869  22.210  0.00  0.00    +0.000 A 
ATOM     14  C   UNL     1      -0.060  13.762  21.995  0.00  0.00    +0.000 A 
ATOM     15  C   UNL     1      -0.470  12.765  21.101  0.00  0.00    +0.000 A 
ATOM     16  C   UNL     1       0.375  11.592  20.845  0.00  0.00    +0.000 A 
ATOM     17  O   UNL     1       1.404  11.458  21.508  0.00  0.00    +0.000 OA
ATOM     18  N   UNL     1      -0.066  10.727  19.840  0.00  0.00    +0.000 N 
ENDBRANCH   1  18
BRANCH   4  19
ATOM     19  O   UNL     1       3.327   6.402  18.869  0.00  0.00    +0.000 OA
BRANCH  19  20
ATOM     20  C   UNL     1       3.973   6.514  17.601  0.00  0.00    +0.000 C 
BRANCH  20  21
ATOM     21  C   UNL     1       4.301   5.132  17.069  0.00  0.00    +0.000 C 
BRANCH  21  22
ATOM     22  C   UNL     1       4.406   4.147  18.239  0.00  0.00    +0.000 C 
BRANCH  22  23
ATOM     23  N   UNL     1       3.629   2.923  18.008  0.00  0.00    +0.000 NA
ATOM     24  C   UNL     1       2.386   3.208  17.274  0.00  0.00    +0.000 C 
ATOM     25  C   UNL     1       1.333   3.404  18.344  0.00  0.00    +0.000 C 
ATOM     26  C   UNL     1       1.711   2.353  19.364  0.00  0.00    +0.000 C 
ATOM     27  C   UNL     1       3.228   2.271  19.271  0.00  0.00    +0.000 C 
ENDBRANCH  22  23
ENDBRANCH  21  22
ENDBRANCH  20  21
ENDBRANCH  19  20
ENDBRANCH   4  19
TORSDOF 6
ENDMDL
