MODEL 1
REMARK VINA RESULT:      -7.6      0.000      0.000
REMARK  Name = 
REMARK  1 active torsions:
REMARK  status: ('A' for Active; 'I' for Inactive)
REMARK    1  A    between atoms: C_4  and  C_5
REMARK                            x       y       z     vdW  Elec       q    Type
REMARK                         _______ _______ _______ _____ _____    ______ ____
ROOT
ATOM      1  C   UNL     1       2.841   5.797  18.455  0.00  0.00    +0.000 A 
ATOM      2  C   UNL     1       3.882   5.567  17.501  0.00  0.00    +0.000 A 
ATOM      3  C   UNL     1       4.321   6.621  16.685  0.00  0.00    +0.000 A 
ATOM      4  N   UNL     1       3.869   7.889  16.767  0.00  0.00    +0.000 NA
ATOM      5  C   UNL     1       2.895   8.132  17.675  0.00  0.00    +0.000 A 
ATOM      6  N   UNL     1       2.411   9.413  17.853  0.00  0.00    +0.000 NA
ATOM      7  C   UNL     1       1.531   9.441  18.826  0.00  0.00    +0.000 A 
ATOM      8  N   UNL     1       0.958  10.570  19.345  0.00  0.00    +0.000 N 
ATOM      9  C   UNL     1       1.178  11.862  18.697  0.00  0.00    +0.000 C 
ATOM     10  C   UNL     1       1.614  12.790  19.831  0.00  0.00    +0.000 C 
ATOM     11  C   UNL     1       0.871  12.236  21.031  0.00  0.00    +0.000 C 
ATOM     12  C   UNL     1       0.930  10.730  20.805  0.00  0.00    +0.000 C 
ATOM     13  S   UNL     1       1.091   7.879  19.406  0.00  0.00    +0.000 S 
ATOM     14  C   UNL     1       2.357   7.138  18.491  0.00  0.00    +0.000 A 
ATOM     15  C   UNL     1       5.426   6.434  15.667  0.00  0.00    +0.000 C 
ATOM     16  C   UNL     1       5.676   4.987  15.277  0.00  0.00    +0.000 C 
ATOM     17  C   UNL     1       5.796   4.144  16.532  0.00  0.00    +0.000 C 
ATOM     18  C   UNL     1       4.480   4.184  17.299  0.00  0.00    +0.000 C 
ENDROOT
BRANCH   1  22
ATOM     19  C   UNL     1       1.246   2.816  21.182  0.00  0.00    +0.000 A 
ATOM     20  C   UNL     1       0.812   2.866  19.865  0.00  0.00    +0.000 A 
ATOM     21  C   UNL     1       1.299   3.855  19.004  0.00  0.00    +0.000 A 
ATOM     22  C   UNL     1       2.298   4.770  19.397  0.00  0.00    +0.000 A 
ATOM     23  C   UNL     1       2.744   4.657  20.726  0.00  0.00    +0.000 A 
ATOM     24  C   UNL     1       2.198   3.726  21.619  0.00  0.00    +0.000 A 
ENDBRANCH   1  22
TORSDOF 1
ENDMDL
MODEL 2
REMARK VINA RESULT:      -6.8      1.841      6.101
REMARK  Name = 
REMARK  1 active torsions:
REMARK  status: ('A' for Active; 'I' for Inactive)
REMARK    1  A    between atoms: C_4  and  C_5
REMARK                            x       y       z     vdW  Elec       q    Type
REMARK                         _______ _______ _______ _____ _____    ______ ____
ROOT
ATOM      1  C   UNL     1       2.728   6.099  18.750  0.00  0.00    +0.000 A 
ATOM      2  C   UNL     1       2.211   7.431  18.806  0.00  0.00    +0.000 A 
ATOM      3  C   UNL     1       2.757   8.423  17.977  0.00  0.00    +0.000 A 
ATOM      4  N   UNL     1       3.721   8.205  17.060  0.00  0.00    +0.000 NA
ATOM      5  C   UNL     1       4.215   6.948  16.980  0.00  0.00    +0.000 A 
ATOM      6  N   UNL     1       5.172   6.632  16.036  0.00  0.00    +0.000 NA
ATOM      7  C   UNL     1       5.456   5.352  16.078  0.00  0.00    +0.000 A 
ATOM      8  N   UNL     1       6.263   4.688  15.196  0.00  0.00    +0.000 N 
ATOM      9  C   UNL     1       7.030   5.440  14.203  0.00  0.00    +0.000 C 
ATOM     10  C   UNL     1       6.725   4.746  12.877  0.00  0.00    +0.000 C 
ATOM     11  C   UNL     1       6.513   3.301  13.288  0.00  0.00    +0.000 C 
ATOM     12  C   UNL     1       5.778   3.429  14.617  0.00  0.00    +0.000 C 
ATOM     13  S   UNL     1       4.742   4.530  17.415  0.00  0.00    +0.000 S 
ATOM     14  C   UNL     1       3.774   5.910  17.799  0.00  0.00    +0.000 A 
ATOM     15  C   UNL     1       2.239   9.845  17.988  0.00  0.00    +0.000 C 
ATOM     16  C   UNL     1       1.457  10.214  19.238  0.00  0.00    +0.000 C 
ATOM     17  C   UNL     1       0.423   9.141  19.516  0.00  0.00    +0.000 C 
ATOM     18  C   UNL     1       1.125   7.818  19.796  0.00  0.00    +0.000 C 
ENDROOT
BRANCH   1  22
ATOM     19  C   UNL     1       1.250   2.754  21.095  0.00  0.00    +0.000 A 
ATOM     20  C   UNL     1       0.889   2.891  19.762  0.00  0.00    +0.000 A 
ATOM     21  C   UNL     1       1.335   3.994  19.026  0.00  0.00    +0.000 A 
ATOM     22  C   UNL     1       2.225   4.947  19.561  0.00  0.00    +0.000 A 
ATOM     23  C   UNL     1       2.603   4.747  20.901  0.00  0.00    +0.000 A 
ATOM     24  C   UNL     1       2.092   3.695  21.671  0.00  0.00    +0.000 A 
ENDBRANCH   1  22
TORSDOF 1
ENDMDL
MODEL 3
REMARK VINA RESULT:      -6.5      1.713      4.379
REMARK  Name = 
REMARK  1 active torsions:
REMARK  status: ('A' for Active; 'I' for Inactive)
REMARK    1  A    between atoms: C_4  and  C_5
REMARK                            x       y       z     vdW  Elec       q    Type
REMARK                         _______ _______ _______ _____ _____    ______ ____
ROOT
ATOM      1  C   UNL     1       3.275   5.578  18.652  0.00  0.00    +0.000 A 
ATOM      2  C   UNL     1       3.060   4.467  19.527  0.00  0.00    +0.000 A 
ATOM      3  C   UNL     1       2.281   4.632  20.682  0.00  0.00    +0.000 A 
ATOM      4  N   UNL     1       1.649   5.775  21.018  0.00  0.00    +0.000 NA
ATOM      5  C   UNL     1       1.826   6.835  20.196  0.00  0.00    +0.000 A 
ATOM      6  N   UNL     1       1.177   8.028  20.446  0.00  0.00    +0.000 NA
ATOM      7  C   UNL     1       1.426   8.896  19.494  0.00  0.00    +0.000 A 
ATOM      8  N   UNL     1       0.838  10.125  19.366  0.00  0.00    +0.000 N 
ATOM      9  C   UNL     1      -0.020  10.636  20.433  0.00  0.00    +0.000 C 
ATOM     10  C   UNL     1      -1.297  11.079  19.720  0.00  0.00    +0.000 C 
ATOM     11  C   UNL     1      -0.792  11.524  18.361  0.00  0.00    +0.000 C 
ATOM     12  C   UNL     1       0.303  10.509  18.053  0.00  0.00    +0.000 C 
ATOM     13  S   UNL     1       2.637   8.374  18.382  0.00  0.00    +0.000 S 
ATOM     14  C   UNL     1       2.626   6.782  19.056  0.00  0.00    +0.000 A 
ATOM     15  C   UNL     1       2.012   3.487  21.634  0.00  0.00    +0.000 C 
ATOM     16  C   UNL     1       2.993   2.332  21.512  0.00  0.00    +0.000 C 
ATOM     17  C   UNL     1       3.133   1.947  20.052  0.00  0.00    +0.000 C 
ATOM     18  C   UNL     1       3.715   3.119  19.271  0.00  0.00    +0.000 C 
ENDROOT
BRANCH   1  22
ATOM     19  C   UNL     1       5.573   5.427  14.969  0.00  0.00    +0.000 A 
ATOM     20  C   UNL     1       5.044   4.266  15.514  0.00  0.00    +0.000 A 
ATOM     21  C   UNL     1       4.341   4.317  16.723  0.00  0.00    +0.000 A 
ATOM     22  C   UNL     1       4.064   5.532  17.383  0.00  0.00    +0.000 A 
ATOM     23  C   UNL     1       4.579   6.691  16.774  0.00  0.00    +0.000 A 
ATOM     24  C   UNL     1       5.358   6.639  15.611  0.00  0.00    +0.000 A 
ENDBRANCH   1  22
TORSDOF 1
ENDMDL
MODEL 4
REMARK VINA RESULT:      -6.5      2.037      4.604
REMARK  Name = 
REMARK  1 active torsions:
REMARK  status: ('A' for Active; 'I' for Inactive)
REMARK    1  A    between atoms: C_4  and  C_5
REMARK                            x       y       z     vdW  Elec       q    Type
REMARK                         _______ _______ _______ _____ _____    ______ ____
ROOT
ATOM      1  C   UNL     1       3.866   5.148  18.631  0.00  0.00    +0.000 A 
ATOM      2  C   UNL     1       3.656   4.011  19.473  0.00  0.00    +0.000 A 
ATOM      3  C   UNL     1       2.776   4.107  20.563  0.00  0.00    +0.000 A 
ATOM      4  N   UNL     1       2.043   5.199  20.857  0.00  0.00    +0.000 NA
ATOM      5  C   UNL     1       2.215   6.282  20.063  0.00  0.00    +0.000 A 
ATOM      6  N   UNL     1       1.467   7.424  20.271  0.00  0.00    +0.000 NA
ATOM      7  C   UNL     1       1.734   8.321  19.351  0.00  0.00    +0.000 A 
ATOM      8  N   UNL     1       1.077   9.510  19.187  0.00  0.00    +0.000 N 
ATOM      9  C   UNL     1       0.101   9.946  20.186  0.00  0.00    +0.000 C 
ATOM     10  C   UNL     1      -1.140  10.314  19.374  0.00  0.00    +0.000 C 
ATOM     11  C   UNL     1      -0.557  10.813  18.066  0.00  0.00    +0.000 C 
ATOM     12  C   UNL     1       0.625   9.878  17.839  0.00  0.00    +0.000 C 
ATOM     13  S   UNL     1       3.064   7.899  18.338  0.00  0.00    +0.000 S 
ATOM     14  C   UNL     1       3.107   6.299  18.993  0.00  0.00    +0.000 A 
ATOM     15  C   UNL     1       2.510   2.931  21.478  0.00  0.00    +0.000 C 
ATOM     16  C   UNL     1       3.573   1.846  21.425  0.00  0.00    +0.000 C 
ATOM     17  C   UNL     1       3.857   1.494  19.977  0.00  0.00    +0.000 C 
ATOM     18  C   UNL     1       4.421   2.715  19.259  0.00  0.00    +0.000 C 
ENDROOT
BRANCH   1  22
ATOM     19  C   UNL     1       6.461   5.242  15.149  0.00  0.00    +0.000 A 
ATOM     20  C   UNL     1       6.843   5.871  16.326  0.00  0.00    +0.000 A 
ATOM     21  C   UNL     1       5.983   5.872  17.430  0.00  0.00    +0.000 A 
ATOM     22  C   UNL     1       4.758   5.175  17.431  0.00  0.00    +0.000 A 
ATOM     23  C   UNL     1       4.429   4.513  16.234  0.00  0.00    +0.000 A 
ATOM     24  C   UNL     1       5.243   4.579  15.096  0.00  0.00    +0.000 A 
ENDBRANCH   1  22
TORSDOF 1
ENDMDL
MODEL 5
REMARK VINA RESULT:      -6.4      4.422      6.605
REMARK  Name = 
REMARK  1 active torsions:
REMARK  status: ('A' for Active; 'I' for Inactive)
REMARK    1  A    between atoms: C_4  and  C_5
REMARK                            x       y       z     vdW  Elec       q    Type
REMARK                         _______ _______ _______ _____ _____    ______ ____
ROOT
ATOM      1  C   UNL     1       6.537   5.363  16.595  0.00  0.00    +0.000 A 
ATOM      2  C   UNL     1       6.734   5.032  15.217  0.00  0.00    +0.000 A 
ATOM      3  C   UNL     1       5.997   3.986  14.642  0.00  0.00    +0.000 A 
ATOM      4  N   UNL     1       5.044   3.281  15.284  0.00  0.00    +0.000 NA
ATOM      5  C   UNL     1       4.830   3.588  16.585  0.00  0.00    +0.000 A 
ATOM      6  N   UNL     1       3.840   2.944  17.300  0.00  0.00    +0.000 NA
ATOM      7  C   UNL     1       3.750   3.441  18.512  0.00  0.00    +0.000 A 
ATOM      8  N   UNL     1       2.790   3.120  19.432  0.00  0.00    +0.000 N 
ATOM      9  C   UNL     1       1.862   2.023  19.163  0.00  0.00    +0.000 C 
ATOM     10  C   UNL     1       0.479   2.616  19.433  0.00  0.00    +0.000 C 
ATOM     11  C   UNL     1       0.750   3.629  20.529  0.00  0.00    +0.000 C 
ATOM     12  C   UNL     1       2.100   4.213  20.130  0.00  0.00    +0.000 C 
ATOM     13  S   UNL     1       5.013   4.549  18.900  0.00  0.00    +0.000 S 
ATOM     14  C   UNL     1       5.551   4.574  17.257  0.00  0.00    +0.000 A 
ATOM     15  C   UNL     1       6.159   3.602  13.187  0.00  0.00    +0.000 C 
ATOM     16  C   UNL     1       7.455   4.084  12.556  0.00  0.00    +0.000 C 
ATOM     17  C   UNL     1       7.646   5.556  12.867  0.00  0.00    +0.000 C 
ATOM     18  C   UNL     1       7.780   5.744  14.374  0.00  0.00    +0.000 C 
ENDROOT
BRANCH   1  22
ATOM     19  C   UNL     1       8.575   8.554  18.725  0.00  0.00    +0.000 A 
ATOM     20  C   UNL     1       8.622   7.250  19.201  0.00  0.00    +0.000 A 
ATOM     21  C   UNL     1       7.928   6.236  18.532  0.00  0.00    +0.000 A 
ATOM     22  C   UNL     1       7.240   6.465  17.322  0.00  0.00    +0.000 A 
ATOM     23  C   UNL     1       7.255   7.790  16.850  0.00  0.00    +0.000 A 
ATOM     24  C   UNL     1       7.874   8.827  17.559  0.00  0.00    +0.000 A 
ENDBRANCH   1  22
TORSDOF 1
ENDMDL
MODEL 6
REMARK VINA RESULT:      -6.1      3.878      6.913
REMARK  Name = 
REMARK  1 active torsions:
REMARK  status: ('A' for Active; 'I' for Inactive)
REMARK    1  A    between atoms: C_4  and  C_5
REMARK                            x       y       z     vdW  Elec       q    Type
REMARK                         _______ _______ _______ _____ _____    ______ ____
ROOT
ATOM      1  C   UNL     1      -0.130  10.852  19.152  0.00  0.00    +0.000 A 
ATOM      2  C   UNL     1      -1.472  10.846  18.656  0.00  0.00    +0.000 A 
ATOM      3  C   UNL     1      -2.277  11.985  18.815  0.00  0.00    +0.000 A 
ATOM      4  N   UNL     1      -1.859  13.143  19.364  0.00  0.00    +0.000 NA
ATOM      5  C   UNL     1      -0.587  13.176  19.826  0.00  0.00    +0.000 A 
ATOM      6  N   UNL     1      -0.069  14.339  20.361  0.00  0.00    +0.000 NA
ATOM      7  C   UNL     1       1.194  14.177  20.678  0.00  0.00    +0.000 A 
ATOM      8  N   UNL     1       2.038  15.164  21.107  0.00  0.00    +0.000 N 
ATOM      9  C   UNL     1       1.508  16.492  21.415  0.00  0.00    +0.000 C 
ATOM     10  C   UNL     1       2.414  17.454  20.649  0.00  0.00    +0.000 C 
ATOM     11  C   UNL     1       3.752  16.739  20.652  0.00  0.00    +0.000 C 
ATOM     12  C   UNL     1       3.359  15.277  20.476  0.00  0.00    +0.000 C 
ATOM     13  S   UNL     1       1.735  12.545  20.551  0.00  0.00    +0.000 S 
ATOM     14  C   UNL     1       0.268  12.078  19.762  0.00  0.00    +0.000 A 
ATOM     15  C   UNL     1      -3.698  12.035  18.298  0.00  0.00    +0.000 C 
ATOM     16  C   UNL     1      -4.316  10.671  18.041  0.00  0.00    +0.000 C 
ATOM     17  C   UNL     1      -3.355   9.832  17.223  0.00  0.00    +0.000 C 
ATOM     18  C   UNL     1      -2.074   9.605  18.017  0.00  0.00    +0.000 C 
ENDROOT
BRANCH   1  22
ATOM     19  C   UNL     1       2.673   7.555  18.778  0.00  0.00    +0.000 A 
ATOM     20  C   UNL     1       2.504   8.454  17.735  0.00  0.00    +0.000 A 
ATOM     21  C   UNL     1       1.568   9.489  17.847  0.00  0.00    +0.000 A 
ATOM     22  C   UNL     1       0.836   9.717  19.030  0.00  0.00    +0.000 A 
ATOM     23  C   UNL     1       1.070   8.811  20.080  0.00  0.00    +0.000 A 
ATOM     24  C   UNL     1       1.940   7.722  19.945  0.00  0.00    +0.000 A 
ENDBRANCH   1  22
TORSDOF 1
ENDMDL
MODEL 7
REMARK VINA RESULT:      -6.1      4.278      9.119
REMARK  Name = 
REMARK  1 active torsions:
REMARK  status: ('A' for Active; 'I' for Inactive)
REMARK    1  A    between atoms: C_4  and  C_5
REMARK                            x       y       z     vdW  Elec       q    Type
REMARK                         _______ _______ _______ _____ _____    ______ ____
ROOT
ATOM      1  C   UNL     1      -2.795  12.249  20.023  0.00  0.00    +0.000 A 
ATOM      2  C   UNL     1      -3.937  12.294  19.163  0.00  0.00    +0.000 A 
ATOM      3  C   UNL     1      -3.899  11.640  17.922  0.00  0.00    +0.000 A 
ATOM      4  N   UNL     1      -2.862  10.899  17.482  0.00  0.00    +0.000 NA
ATOM      5  C   UNL     1      -1.776  10.831  18.286  0.00  0.00    +0.000 A 
ATOM      6  N   UNL     1      -0.691  10.055  17.928  0.00  0.00    +0.000 NA
ATOM      7  C   UNL     1       0.216  10.068  18.876  0.00  0.00    +0.000 A 
ATOM      8  N   UNL     1       1.351   9.304  18.899  0.00  0.00    +0.000 N 
ATOM      9  C   UNL     1       1.721   8.514  17.725  0.00  0.00    +0.000 C 
ATOM     10  C   UNL     1       1.989   7.114  18.275  0.00  0.00    +0.000 C 
ATOM     11  C   UNL     1       2.519   7.389  19.669  0.00  0.00    +0.000 C 
ATOM     12  C   UNL     1       1.674   8.571  20.129  0.00  0.00    +0.000 C 
ATOM     13  S   UNL     1      -0.113  11.201  20.133  0.00  0.00    +0.000 S 
ATOM     14  C   UNL     1      -1.700  11.491  19.511  0.00  0.00    +0.000 A 
ATOM     15  C   UNL     1      -5.084  11.647  16.981  0.00  0.00    +0.000 C 
ATOM     16  C   UNL     1      -6.086  12.758  17.249  0.00  0.00    +0.000 C 
ATOM     17  C   UNL     1      -6.428  12.778  18.726  0.00  0.00    +0.000 C 
ATOM     18  C   UNL     1      -5.175  13.096  19.533  0.00  0.00    +0.000 C 
ENDROOT
BRANCH   1  22
ATOM     19  C   UNL     1      -2.535  14.097  23.945  0.00  0.00    +0.000 A 
ATOM     20  C   UNL     1      -2.033  14.749  22.828  0.00  0.00    +0.000 A 
ATOM     21  C   UNL     1      -2.082  14.128  21.574  0.00  0.00    +0.000 A 
ATOM     22  C   UNL     1      -2.711  12.882  21.375  0.00  0.00    +0.000 A 
ATOM     23  C   UNL     1      -3.248  12.276  22.525  0.00  0.00    +0.000 A 
ATOM     24  C   UNL     1      -3.126  12.850  23.797  0.00  0.00    +0.000 A 
ENDBRANCH   1  22
TORSDOF 1
ENDMDL
MODEL 8
REMARK VINA RESULT:      -6.0      5.067      9.842
REMARK  Name = 
REMARK  1 active torsions:
REMARK  status: ('A' for Active; 'I' for Inactive)
REMARK    1  A    between atoms: C_4  and  C_5
REMARK                            x       y       z     vdW  Elec       q    Type
REMARK                         _______ _______ _______ _____ _____    ______ ____
ROOT
ATOM      1  C   UNL     1      -3.761  12.698  20.449  0.00  0.00    +0.000 A 
ATOM      2  C   UNL     1      -4.918  12.692  19.608  0.00  0.00    +0.000 A 
ATOM      3  C   UNL     1      -4.844  12.121  18.328  0.00  0.00    +0.000 A 
ATOM      4  N   UNL     1      -3.753  11.506  17.829  0.00  0.00    +0.000 NA
ATOM      5  C   UNL     1      -2.651  11.487  18.614  0.00  0.00    +0.000 A 
ATOM      6  N   UNL     1      -1.507  10.836  18.195  0.00  0.00    +0.000 NA
ATOM      7  C   UNL     1      -0.588  10.873  19.131  0.00  0.00    +0.000 A 
ATOM      8  N   UNL     1       0.611  10.216  19.092  0.00  0.00    +0.000 N 
ATOM      9  C   UNL     1       1.029   9.536  17.867  0.00  0.00    +0.000 C 
ATOM     10  C   UNL     1       1.432   8.134  18.324  0.00  0.00    +0.000 C 
ATOM     11  C   UNL     1       1.960   8.371  19.726  0.00  0.00    +0.000 C 
ATOM     12  C   UNL     1       1.021   9.440  20.270  0.00  0.00    +0.000 C 
ATOM     13  S   UNL     1      -0.995  11.892  20.461  0.00  0.00    +0.000 S 
ATOM     14  C   UNL     1      -2.613  12.075  19.877  0.00  0.00    +0.000 A 
ATOM     15  C   UNL     1      -6.042  12.079  17.403  0.00  0.00    +0.000 C 
ATOM     16  C   UNL     1      -7.135  13.075  17.752  0.00  0.00    +0.000 C 
ATOM     17  C   UNL     1      -7.450  12.973  19.232  0.00  0.00    +0.000 C 
ATOM     18  C   UNL     1      -6.216  13.354  20.042  0.00  0.00    +0.000 C 
ENDROOT
BRANCH   1  22
ATOM     19  C   UNL     1      -3.601  14.320  24.475  0.00  0.00    +0.000 A 
ATOM     20  C   UNL     1      -3.368  15.139  23.379  0.00  0.00    +0.000 A 
ATOM     21  C   UNL     1      -3.380  14.599  22.087  0.00  0.00    +0.000 A 
ATOM     22  C   UNL     1      -3.711  13.252  21.836  0.00  0.00    +0.000 A 
ATOM     23  C   UNL     1      -3.986  12.468  22.971  0.00  0.00    +0.000 A 
ATOM     24  C   UNL     1      -3.891  12.978  24.272  0.00  0.00    +0.000 A 
ENDBRANCH   1  22
TORSDOF 1
ENDMDL
MODEL 9
REMARK VINA RESULT:      -6.0      8.168     10.469
REMARK  Name = 
REMARK  1 active torsions:
REMARK  status: ('A' for Active; 'I' for Inactive)
REMARK    1  A    between atoms: C_4  and  C_5
REMARK                            x       y       z     vdW  Elec       q    Type
REMARK                         _______ _______ _______ _____ _____    ______ ____
ROOT
ATOM      1  C   UNL     1       8.563  15.172  18.724  0.00  0.00    +0.000 A 
ATOM      2  C   UNL     1       9.532  16.179  18.419  0.00  0.00    +0.000 A 
ATOM      3  C   UNL     1       9.121  17.512  18.256  0.00  0.00    +0.000 A 
ATOM      4  N   UNL     1       7.856  17.946  18.426  0.00  0.00    +0.000 NA
ATOM      5  C   UNL     1       6.925  17.012  18.730  0.00  0.00    +0.000 A 
ATOM      6  N   UNL     1       5.616  17.382  18.964  0.00  0.00    +0.000 NA
ATOM      7  C   UNL     1       4.898  16.340  19.314  0.00  0.00    +0.000 A 
ATOM      8  N   UNL     1       3.599  16.378  19.740  0.00  0.00    +0.000 N 
ATOM      9  C   UNL     1       2.845  17.628  19.665  0.00  0.00    +0.000 C 
ATOM     10  C   UNL     1       2.240  17.795  21.059  0.00  0.00    +0.000 C 
ATOM     11  C   UNL     1       2.021  16.364  21.510  0.00  0.00    +0.000 C 
ATOM     12  C   UNL     1       3.243  15.640  20.959  0.00  0.00    +0.000 C 
ATOM     13  S   UNL     1       5.732  14.840  19.149  0.00  0.00    +0.000 S 
ATOM     14  C   UNL     1       7.228  15.657  18.857  0.00  0.00    +0.000 A 
ATOM     15  C   UNL     1      10.107  18.617  17.945  0.00  0.00    +0.000 C 
ATOM     16  C   UNL     1      11.428  18.131  17.374  0.00  0.00    +0.000 C 
ATOM     17  C   UNL     1      11.963  17.005  18.237  0.00  0.00    +0.000 C 
ATOM     18  C   UNL     1      10.994  15.830  18.197  0.00  0.00    +0.000 C 
ENDROOT
BRANCH   1  22
ATOM     19  C   UNL     1       9.438  10.963  19.344  0.00  0.00    +0.000 A 
ATOM     20  C   UNL     1       9.185  11.447  18.068  0.00  0.00    +0.000 A 
ATOM     21  C   UNL     1       8.862  12.796  17.882  0.00  0.00    +0.000 A 
ATOM     22  C   UNL     1       8.868  13.725  18.942  0.00  0.00    +0.000 A 
ATOM     23  C   UNL     1       9.174  13.203  20.212  0.00  0.00    +0.000 A 
ATOM     24  C   UNL     1       9.413  11.839  20.420  0.00  0.00    +0.000 A 
ENDBRANCH   1  22
TORSDOF 1
ENDMDL
