MODEL 1
REMARK VINA RESULT:      -5.5      0.000      0.000
REMARK  Name = 
REMARK  1 active torsions:
REMARK  status: ('A' for Active; 'I' for Inactive)
REMARK    1  A    between atoms: N_4  and  C_5
REMARK                            x       y       z     vdW  Elec       q    Type
REMARK                         _______ _______ _______ _____ _____    ______ ____
ROOT
ATOM      1  N   UNL     1       6.994   4.300  17.913  0.00  0.00    +0.000 NA
ATOM      2  C   UNL     1       6.611   4.501  16.702  0.00  0.00    +0.000 C 
ATOM      3  N   UNL     1       7.580   4.769  15.700  0.00  0.00    +0.000 N 
ATOM      4  N   UNL     1       5.232   4.376  16.337  0.00  0.00    +0.000 N 
ATOM      5  H   UNL     1       7.986   4.345  18.186  0.00  0.00    +0.000 HD
ATOM      6  H   UNL     1       8.582   4.812  15.936  0.00  0.00    +0.000 HD
ATOM      7  H   UNL     1       7.293   4.925  14.724  0.00  0.00    +0.000 HD
ATOM      8  H   UNL     1       5.024   4.292  15.330  0.00  0.00    +0.000 HD
ENDROOT
BRANCH   4   9
ATOM      9  C   UNL     1       4.140   4.248  17.255  0.00  0.00    +0.000 A 
ATOM     10  C   UNL     1       3.414   5.357  17.735  0.00  0.00    +0.000 A 
ATOM     11  C   UNL     1       2.365   5.177  18.634  0.00  0.00    +0.000 A 
ATOM     12  C   UNL     1       2.038   3.889  19.056  0.00  0.00    +0.000 A 
ATOM     13 CL   UNL     1       0.740   3.645  20.206  0.00  0.00    +0.000 Cl
ATOM     14  N   UNL     1       2.727   2.823  18.573  0.00  0.00    +0.000 NA
ATOM     15  C   UNL     1       3.750   2.969  17.687  0.00  0.00    +0.000 A 
ENDBRANCH   4   9
TORSDOF 1
ENDMDL
MODEL 2
REMARK VINA RESULT:      -5.4      1.309      1.675
REMARK  Name = 
REMARK  1 active torsions:
REMARK  status: ('A' for Active; 'I' for Inactive)
REMARK    1  A    between atoms: N_4  and  C_5
REMARK                            x       y       z     vdW  Elec       q    Type
REMARK                         _______ _______ _______ _____ _____    ______ ____
ROOT
ATOM      1  N   UNL     1       5.604   6.338  15.822  0.00  0.00    +0.000 NA
ATOM      2  C   UNL     1       6.320   5.275  15.920  0.00  0.00    +0.000 C 
ATOM      3  N   UNL     1       7.493   5.149  15.130  0.00  0.00    +0.000 N 
ATOM      4  N   UNL     1       5.996   4.255  16.871  0.00  0.00    +0.000 N 
ATOM      5  H   UNL     1       5.845   7.099  15.172  0.00  0.00    +0.000 HD
ATOM      6  H   UNL     1       7.769   5.897  14.477  0.00  0.00    +0.000 HD
ATOM      7  H   UNL     1       8.083   4.308  15.200  0.00  0.00    +0.000 HD
ATOM      8  H   UNL     1       6.733   3.566  17.083  0.00  0.00    +0.000 HD
ENDROOT
BRANCH   4   9
ATOM      9  C   UNL     1       4.781   4.182  17.627  0.00  0.00    +0.000 A 
ATOM     10  C   UNL     1       3.578   3.683  17.089  0.00  0.00    +0.000 A 
ATOM     11  C   UNL     1       2.421   3.642  17.865  0.00  0.00    +0.000 A 
ATOM     12  C   UNL     1       2.464   4.101  19.181  0.00  0.00    +0.000 A 
ATOM     13 CL   UNL     1       1.015   4.082  20.165  0.00  0.00    +0.000 Cl
ATOM     14  N   UNL     1       3.632   4.561  19.701  0.00  0.00    +0.000 NA
ATOM     15  C   UNL     1       4.778   4.603  18.968  0.00  0.00    +0.000 A 
ENDBRANCH   4   9
TORSDOF 1
ENDMDL
MODEL 3
REMARK VINA RESULT:      -5.4      3.450      5.078
REMARK  Name = 
REMARK  1 active torsions:
REMARK  status: ('A' for Active; 'I' for Inactive)
REMARK    1  A    between atoms: N_4  and  C_5
REMARK                            x       y       z     vdW  Elec       q    Type
REMARK                         _______ _______ _______ _____ _____    ______ ____
ROOT
ATOM      1  N   UNL     1       3.735   4.074  18.864  0.00  0.00    +0.000 NA
ATOM      2  C   UNL     1       4.353   3.249  18.096  0.00  0.00    +0.000 C 
ATOM      3  N   UNL     1       3.851   1.930  17.941  0.00  0.00    +0.000 N 
ATOM      4  N   UNL     1       5.490   3.666  17.332  0.00  0.00    +0.000 N 
ATOM      5  H   UNL     1       2.892   3.803  19.389  0.00  0.00    +0.000 HD
ATOM      6  H   UNL     1       3.003   1.628  18.444  0.00  0.00    +0.000 HD
ATOM      7  H   UNL     1       4.328   1.258  17.324  0.00  0.00    +0.000 HD
ATOM      8  H   UNL     1       5.779   3.052  16.555  0.00  0.00    +0.000 HD
ENDROOT
BRANCH   4   9
ATOM      9  C   UNL     1       6.184   4.909  17.490  0.00  0.00    +0.000 A 
ATOM     10  C   UNL     1       7.157   5.118  18.488  0.00  0.00    +0.000 A 
ATOM     11  C   UNL     1       7.797   6.350  18.604  0.00  0.00    +0.000 A 
ATOM     12  C   UNL     1       7.464   7.379  17.722  0.00  0.00    +0.000 A 
ATOM     13 CL   UNL     1       8.238   8.943  17.867  0.00  0.00    +0.000 Cl
ATOM     14  N   UNL     1       6.542   7.165  16.748  0.00  0.00    +0.000 NA
ATOM     15  C   UNL     1       5.909   5.968  16.607  0.00  0.00    +0.000 A 
ENDBRANCH   4   9
TORSDOF 1
ENDMDL
MODEL 4
REMARK VINA RESULT:      -5.4      1.379      1.670
REMARK  Name = 
REMARK  1 active torsions:
REMARK  status: ('A' for Active; 'I' for Inactive)
REMARK    1  A    between atoms: N_4  and  C_5
REMARK                            x       y       z     vdW  Elec       q    Type
REMARK                         _______ _______ _______ _____ _____    ______ ____
ROOT
ATOM      1  N   UNL     1       5.476   4.664  16.250  0.00  0.00    +0.000 NA
ATOM      2  C   UNL     1       6.471   4.473  17.041  0.00  0.00    +0.000 C 
ATOM      3  N   UNL     1       7.793   4.529  16.525  0.00  0.00    +0.000 N 
ATOM      4  N   UNL     1       6.269   4.287  18.446  0.00  0.00    +0.000 N 
ATOM      5  H   UNL     1       5.606   4.840  15.244  0.00  0.00    +0.000 HD
ATOM      6  H   UNL     1       7.959   4.713  15.525  0.00  0.00    +0.000 HD
ATOM      7  H   UNL     1       8.603   4.386  17.145  0.00  0.00    +0.000 HD
ATOM      8  H   UNL     1       7.095   4.397  19.053  0.00  0.00    +0.000 HD
ENDROOT
BRANCH   4   9
ATOM      9  C   UNL     1       5.002   4.071  19.079  0.00  0.00    +0.000 A 
ATOM     10  C   UNL     1       4.166   5.128  19.492  0.00  0.00    +0.000 A 
ATOM     11  C   UNL     1       2.946   4.862  20.111  0.00  0.00    +0.000 A 
ATOM     12  C   UNL     1       2.559   3.539  20.320  0.00  0.00    +0.000 A 
ATOM     13 CL   UNL     1       1.041   3.184  21.119  0.00  0.00    +0.000 Cl
ATOM     14  N   UNL     1       3.358   2.524  19.899  0.00  0.00    +0.000 NA
ATOM     15  C   UNL     1       4.550   2.756  19.284  0.00  0.00    +0.000 A 
ENDBRANCH   4   9
TORSDOF 1
ENDMDL
MODEL 5
REMARK VINA RESULT:      -5.4      1.096      1.666
REMARK  Name = 
REMARK  1 active torsions:
REMARK  status: ('A' for Active; 'I' for Inactive)
REMARK    1  A    between atoms: N_4  and  C_5
REMARK                            x       y       z     vdW  Elec       q    Type
REMARK                         _______ _______ _______ _____ _____    ______ ____
ROOT
ATOM      1  N   UNL     1       7.158   4.304  18.234  0.00  0.00    +0.000 NA
ATOM      2  C   UNL     1       6.657   4.358  17.051  0.00  0.00    +0.000 C 
ATOM      3  N   UNL     1       7.477   4.763  15.965  0.00  0.00    +0.000 N 
ATOM      4  N   UNL     1       5.311   3.936  16.802  0.00  0.00    +0.000 N 
ATOM      5  H   UNL     1       8.135   4.565  18.425  0.00  0.00    +0.000 HD
ATOM      6  H   UNL     1       8.462   5.021  16.118  0.00  0.00    +0.000 HD
ATOM      7  H   UNL     1       7.095   4.804  15.009  0.00  0.00    +0.000 HD
ATOM      8  H   UNL     1       5.054   3.758  15.820  0.00  0.00    +0.000 HD
ENDROOT
BRANCH   4   9
ATOM      9  C   UNL     1       4.336   3.640  17.809  0.00  0.00    +0.000 A 
ATOM     10  C   UNL     1       3.770   2.358  17.968  0.00  0.00    +0.000 A 
ATOM     11  C   UNL     1       2.819   2.126  18.959  0.00  0.00    +0.000 A 
ATOM     12  C   UNL     1       2.429   3.173  19.793  0.00  0.00    +0.000 A 
ATOM     13 CL   UNL     1       1.216   2.907  21.028  0.00  0.00    +0.000 Cl
ATOM     14  N   UNL     1       2.995   4.400  19.650  0.00  0.00    +0.000 NA
ATOM     15  C   UNL     1       3.933   4.652  18.696  0.00  0.00    +0.000 A 
ENDBRANCH   4   9
TORSDOF 1
ENDMDL
MODEL 6
REMARK VINA RESULT:      -5.3      1.218      1.524
REMARK  Name = 
REMARK  1 active torsions:
REMARK  status: ('A' for Active; 'I' for Inactive)
REMARK    1  A    between atoms: N_4  and  C_5
REMARK                            x       y       z     vdW  Elec       q    Type
REMARK                         _______ _______ _______ _____ _____    ______ ____
ROOT
ATOM      1  N   UNL     1       6.956   4.248  17.699  0.00  0.00    +0.000 NA
ATOM      2  C   UNL     1       6.529   5.205  16.954  0.00  0.00    +0.000 C 
ATOM      3  N   UNL     1       7.443   5.896  16.116  0.00  0.00    +0.000 N 
ATOM      4  N   UNL     1       5.135   5.526  16.897  0.00  0.00    +0.000 N 
ATOM      5  H   UNL     1       7.948   3.976  17.723  0.00  0.00    +0.000 HD
ATOM      6  H   UNL     1       8.441   5.644  16.107  0.00  0.00    +0.000 HD
ATOM      7  H   UNL     1       7.118   6.660  15.507  0.00  0.00    +0.000 HD
ATOM      8  H   UNL     1       4.825   6.112  16.107  0.00  0.00    +0.000 HD
ENDROOT
BRANCH   4   9
ATOM      9  C   UNL     1       4.129   5.013  17.778  0.00  0.00    +0.000 A 
ATOM     10  C   UNL     1       3.228   3.997  17.398  0.00  0.00    +0.000 A 
ATOM     11  C   UNL     1       2.262   3.539  18.292  0.00  0.00    +0.000 A 
ATOM     12  C   UNL     1       2.194   4.096  19.569  0.00  0.00    +0.000 A 
ATOM     13 CL   UNL     1       0.971   3.552  20.699  0.00  0.00    +0.000 Cl
ATOM     14  N   UNL     1       3.079   5.058  19.937  0.00  0.00    +0.000 NA
ATOM     15  C   UNL     1       4.037   5.517  19.087  0.00  0.00    +0.000 A 
ENDBRANCH   4   9
TORSDOF 1
ENDMDL
MODEL 7
REMARK VINA RESULT:      -5.3      2.978      5.146
REMARK  Name = 
REMARK  1 active torsions:
REMARK  status: ('A' for Active; 'I' for Inactive)
REMARK    1  A    between atoms: N_4  and  C_5
REMARK                            x       y       z     vdW  Elec       q    Type
REMARK                         _______ _______ _______ _____ _____    ______ ____
ROOT
ATOM      1  N   UNL     1       0.758   3.674  20.293  0.00  0.00    +0.000 NA
ATOM      2  C   UNL     1       1.709   3.141  20.974  0.00  0.00    +0.000 C 
ATOM      3  N   UNL     1       1.408   2.490  22.200  0.00  0.00    +0.000 N 
ATOM      4  N   UNL     1       3.050   3.120  20.475  0.00  0.00    +0.000 N 
ATOM      5  H   UNL     1      -0.219   3.662  20.618  0.00  0.00    +0.000 HD
ATOM      6  H   UNL     1       0.440   2.451  22.550  0.00  0.00    +0.000 HD
ATOM      7  H   UNL     1       2.155   2.050  22.756  0.00  0.00    +0.000 HD
ATOM      8  H   UNL     1       3.706   2.466  20.928  0.00  0.00    +0.000 HD
ENDROOT
BRANCH   4   9
ATOM      9  C   UNL     1       3.521   3.849  19.334  0.00  0.00    +0.000 A 
ATOM     10  C   UNL     1       3.596   3.282  18.046  0.00  0.00    +0.000 A 
ATOM     11  C   UNL     1       4.070   4.032  16.971  0.00  0.00    +0.000 A 
ATOM     12  C   UNL     1       4.470   5.351  17.182  0.00  0.00    +0.000 A 
ATOM     13 CL   UNL     1       5.091   6.303  15.849  0.00  0.00    +0.000 Cl
ATOM     14  N   UNL     1       4.373   5.899  18.421  0.00  0.00    +0.000 NA
ATOM     15  C   UNL     1       3.906   5.191  19.486  0.00  0.00    +0.000 A 
ENDBRANCH   4   9
TORSDOF 1
ENDMDL
MODEL 8
REMARK VINA RESULT:      -5.3      1.049      1.049
REMARK  Name = 
REMARK  1 active torsions:
REMARK  status: ('A' for Active; 'I' for Inactive)
REMARK    1  A    between atoms: N_4  and  C_5
REMARK                            x       y       z     vdW  Elec       q    Type
REMARK                         _______ _______ _______ _____ _____    ______ ____
ROOT
ATOM      1  N   UNL     1       7.379   4.378  17.986  0.00  0.00    +0.000 NA
ATOM      2  C   UNL     1       6.737   4.869  16.985  0.00  0.00    +0.000 C 
ATOM      3  N   UNL     1       7.462   5.397  15.884  0.00  0.00    +0.000 N 
ATOM      4  N   UNL     1       5.308   4.814  16.929  0.00  0.00    +0.000 N 
ATOM      5  H   UNL     1       8.407   4.372  18.024  0.00  0.00    +0.000 HD
ATOM      6  H   UNL     1       8.492   5.397  15.885  0.00  0.00    +0.000 HD
ATOM      7  H   UNL     1       6.966   5.787  15.070  0.00  0.00    +0.000 HD
ATOM      8  H   UNL     1       4.872   4.981  16.010  0.00  0.00    +0.000 HD
ENDROOT
BRANCH   4   9
ATOM      9  C   UNL     1       4.450   4.441  18.015  0.00  0.00    +0.000 A 
ATOM     10  C   UNL     1       4.000   5.363  18.982  0.00  0.00    +0.000 A 
ATOM     11  C   UNL     1       3.173   4.945  20.022  0.00  0.00    +0.000 A 
ATOM     12  C   UNL     1       2.794   3.606  20.100  0.00  0.00    +0.000 A 
ATOM     13 CL   UNL     1       1.775   3.057  21.415  0.00  0.00    +0.000 Cl
ATOM     14  N   UNL     1       3.212   2.727  19.152  0.00  0.00    +0.000 NA
ATOM     15  C   UNL     1       4.013   3.110  18.120  0.00  0.00    +0.000 A 
ENDBRANCH   4   9
TORSDOF 1
ENDMDL
MODEL 9
REMARK VINA RESULT:      -5.3      1.464      1.802
REMARK  Name = 
REMARK  1 active torsions:
REMARK  status: ('A' for Active; 'I' for Inactive)
REMARK    1  A    between atoms: N_4  and  C_5
REMARK                            x       y       z     vdW  Elec       q    Type
REMARK                         _______ _______ _______ _____ _____    ______ ____
ROOT
ATOM      1  N   UNL     1       7.570   4.347  17.017  0.00  0.00    +0.000 NA
ATOM      2  C   UNL     1       6.887   4.883  16.068  0.00  0.00    +0.000 C 
ATOM      3  N   UNL     1       7.546   5.283  14.875  0.00  0.00    +0.000 N 
ATOM      4  N   UNL     1       5.464   5.004  16.163  0.00  0.00    +0.000 N 
ATOM      5  H   UNL     1       8.588   4.215  16.948  0.00  0.00    +0.000 HD
ATOM      6  H   UNL     1       8.563   5.156  14.769  0.00  0.00    +0.000 HD
ATOM      7  H   UNL     1       7.015   5.706  14.102  0.00  0.00    +0.000 HD
ATOM      8  H   UNL     1       4.954   5.196  15.288  0.00  0.00    +0.000 HD
ENDROOT
BRANCH   4   9
ATOM      9  C   UNL     1       4.690   4.774  17.347  0.00  0.00    +0.000 A 
ATOM     10  C   UNL     1       4.015   3.561  17.593  0.00  0.00    +0.000 A 
ATOM     11  C   UNL     1       3.269   3.392  18.758  0.00  0.00    +0.000 A 
ATOM     12  C   UNL     1       3.195   4.435  19.680  0.00  0.00    +0.000 A 
ATOM     13 CL   UNL     1       2.242   4.252  21.138  0.00  0.00    +0.000 Cl
ATOM     14  N   UNL     1       3.867   5.594  19.448  0.00  0.00    +0.000 NA
ATOM     15  C   UNL     1       4.610   5.781  18.324  0.00  0.00    +0.000 A 
ENDBRANCH   4   9
TORSDOF 1
ENDMDL
