MODEL 1
REMARK VINA RESULT:      -7.0      0.000      0.000
REMARK  Name = 
REMARK  3 active torsions:
REMARK  status: ('A' for Active; 'I' for Inactive)
REMARK    1  A    between atoms: C_1  and  C_2
REMARK    2  A    between atoms: C_2  and  N_3
REMARK    3  A    between atoms: N_12  and  C_13
REMARK                            x       y       z     vdW  Elec       q    Type
REMARK                         _______ _______ _______ _____ _____    ______ ____
ROOT
ATOM      1  N   UNL     1       1.072   9.168  20.435  0.00  0.00    +0.000 N 
ATOM      2  C   UNL     1       0.623  10.388  19.974  0.00  0.00    +0.000 A 
ATOM      3  O   UNL     1      -0.020  11.201  20.639  0.00  0.00    +0.000 OA
ATOM      4  C   UNL     1       0.977  10.761  18.576  0.00  0.00    +0.000 A 
ATOM      5  C   UNL     1       1.761   9.980  17.829  0.00  0.00    +0.000 A 
ATOM      6  C   UNL     1       2.209   8.705  18.364  0.00  0.00    +0.000 A 
ATOM      7  C   UNL     1       3.034   7.844  17.684  0.00  0.00    +0.000 A 
ATOM      8  N   UNL     1       3.408   6.634  18.149  0.00  0.00    +0.000 NA
ATOM      9  C   UNL     1       2.934   6.265  19.345  0.00  0.00    +0.000 A 
ATOM     10  N   UNL     1       3.294   4.998  19.742  0.00  0.00    +0.000 N 
ATOM     11  N   UNL     1       2.176   7.057  20.119  0.00  0.00    +0.000 NA
ATOM     12  C   UNL     1       1.834   8.273  19.626  0.00  0.00    +0.000 A 
ATOM     13  H   UNL     1       3.795   4.532  18.998  0.00  0.00    +0.000 HD
ENDROOT
BRANCH  10  14
ATOM     14  C   UNL     1       2.457   4.191  20.624  0.00  0.00    +0.000 C 
ATOM     15  C   UNL     1       0.996   4.062  20.171  0.00  0.00    +0.000 C 
ATOM     16  C   UNL     1       0.795   3.202  18.923  0.00  0.00    +0.000 C 
ATOM     17  C   UNL     1       1.476   1.841  19.007  0.00  0.00    +0.000 C 
ATOM     18  C   UNL     1       2.906   1.900  19.532  0.00  0.00    +0.000 C 
ATOM     19  C   UNL     1       3.076   2.788  20.769  0.00  0.00    +0.000 C 
ENDBRANCH  10  14
BRANCH   1  21
ATOM     20  C   UNL     1      -0.435   8.527  22.259  0.00  0.00    +0.000 C 
ATOM     21  C   UNL     1       0.994   8.896  21.866  0.00  0.00    +0.000 C 
ENDBRANCH   1  21
TORSDOF 2
ENDMDL
MODEL 2
REMARK VINA RESULT:      -6.9      2.532      4.240
REMARK  Name = 
REMARK  3 active torsions:
REMARK  status: ('A' for Active; 'I' for Inactive)
REMARK    1  A    between atoms: C_1  and  C_2
REMARK    2  A    between atoms: C_2  and  N_3
REMARK    3  A    between atoms: N_12  and  C_13
REMARK                            x       y       z     vdW  Elec       q    Type
REMARK                         _______ _______ _______ _____ _____    ______ ____
ROOT
ATOM      1  N   UNL     1       1.373   9.154  19.215  0.00  0.00    +0.000 N 
ATOM      2  C   UNL     1       0.475   9.736  20.084  0.00  0.00    +0.000 A 
ATOM      3  O   UNL     1      -0.071  10.827  19.910  0.00  0.00    +0.000 OA
ATOM      4  C   UNL     1       0.113   8.966  21.307  0.00  0.00    +0.000 A 
ATOM      5  C   UNL     1       0.581   7.733  21.512  0.00  0.00    +0.000 A 
ATOM      6  C   UNL     1       1.524   7.165  20.562  0.00  0.00    +0.000 A 
ATOM      7  C   UNL     1       2.043   5.899  20.672  0.00  0.00    +0.000 A 
ATOM      8  N   UNL     1       2.961   5.385  19.828  0.00  0.00    +0.000 NA
ATOM      9  C   UNL     1       3.384   6.172  18.832  0.00  0.00    +0.000 A 
ATOM     10  N   UNL     1       4.366   5.623  18.041  0.00  0.00    +0.000 N 
ATOM     11  N   UNL     1       2.894   7.400  18.597  0.00  0.00    +0.000 NA
ATOM     12  C   UNL     1       1.959   7.876  19.456  0.00  0.00    +0.000 A 
ATOM     13  H   UNL     1       4.658   4.732  18.420  0.00  0.00    +0.000 HD
ENDROOT
BRANCH  10  14
ATOM     14  C   UNL     1       5.361   6.441  17.353  0.00  0.00    +0.000 C 
ATOM     15  C   UNL     1       6.816   6.079  17.682  0.00  0.00    +0.000 C 
ATOM     16  C   UNL     1       7.280   4.741  17.107  0.00  0.00    +0.000 C 
ATOM     17  C   UNL     1       6.988   4.583  15.619  0.00  0.00    +0.000 C 
ATOM     18  C   UNL     1       5.578   5.008  15.222  0.00  0.00    +0.000 C 
ATOM     19  C   UNL     1       5.138   6.342  15.833  0.00  0.00    +0.000 C 
ENDBRANCH  10  14
BRANCH   1  21
ATOM     20  C   UNL     1       2.351  11.025  17.967  0.00  0.00    +0.000 C 
ATOM     21  C   UNL     1       1.532   9.738  17.887  0.00  0.00    +0.000 C 
ENDBRANCH   1  21
TORSDOF 2
ENDMDL
MODEL 3
REMARK VINA RESULT:      -6.8      3.898      5.884
REMARK  Name = 
REMARK  3 active torsions:
REMARK  status: ('A' for Active; 'I' for Inactive)
REMARK    1  A    between atoms: C_1  and  C_2
REMARK    2  A    between atoms: C_2  and  N_3
REMARK    3  A    between atoms: N_12  and  C_13
REMARK                            x       y       z     vdW  Elec       q    Type
REMARK                         _______ _______ _______ _____ _____    ______ ____
ROOT
ATOM      1  N   UNL     1       5.935   4.685  16.264  0.00  0.00    +0.000 N 
ATOM      2  C   UNL     1       7.119   5.367  16.076  0.00  0.00    +0.000 A 
ATOM      3  O   UNL     1       8.087   4.941  15.445  0.00  0.00    +0.000 OA
ATOM      4  C   UNL     1       7.214   6.738  16.651  0.00  0.00    +0.000 A 
ATOM      5  C   UNL     1       6.170   7.309  17.255  0.00  0.00    +0.000 A 
ATOM      6  C   UNL     1       4.944   6.546  17.424  0.00  0.00    +0.000 A 
ATOM      7  C   UNL     1       3.810   7.052  18.010  0.00  0.00    +0.000 A 
ATOM      8  N   UNL     1       2.688   6.335  18.223  0.00  0.00    +0.000 NA
ATOM      9  C   UNL     1       2.699   5.053  17.837  0.00  0.00    +0.000 A 
ATOM     10  N   UNL     1       1.554   4.351  18.136  0.00  0.00    +0.000 N 
ATOM     11  N   UNL     1       3.730   4.479  17.197  0.00  0.00    +0.000 NA
ATOM     12  C   UNL     1       4.835   5.237  16.986  0.00  0.00    +0.000 A 
ATOM     13  H   UNL     1       0.929   4.926  18.684  0.00  0.00    +0.000 HD
ENDROOT
BRANCH  10  14
ATOM     14  C   UNL     1       1.564   2.912  18.381  0.00  0.00    +0.000 C 
ATOM     15  C   UNL     1       2.931   2.348  18.795  0.00  0.00    +0.000 C 
ATOM     16  C   UNL     1       3.383   2.755  20.197  0.00  0.00    +0.000 C 
ATOM     17  C   UNL     1       2.330   2.512  21.272  0.00  0.00    +0.000 C 
ATOM     18  C   UNL     1       0.932   2.979  20.879  0.00  0.00    +0.000 C 
ATOM     19  C   UNL     1       0.519   2.572  19.460  0.00  0.00    +0.000 C 
ENDBRANCH  10  14
BRANCH   1  21
ATOM     20  C   UNL     1       5.491   3.822  14.012  0.00  0.00    +0.000 C 
ATOM     21  C   UNL     1       5.700   3.474  15.484  0.00  0.00    +0.000 C 
ENDBRANCH   1  21
TORSDOF 2
ENDMDL
MODEL 4
REMARK VINA RESULT:      -6.8      2.958      6.785
REMARK  Name = 
REMARK  3 active torsions:
REMARK  status: ('A' for Active; 'I' for Inactive)
REMARK    1  A    between atoms: C_1  and  C_2
REMARK    2  A    between atoms: C_2  and  N_3
REMARK    3  A    between atoms: N_12  and  C_13
REMARK                            x       y       z     vdW  Elec       q    Type
REMARK                         _______ _______ _______ _____ _____    ______ ____
ROOT
ATOM      1  N   UNL     1       4.215   5.496  17.160  0.00  0.00    +0.000 N 
ATOM      2  C   UNL     1       4.618   4.187  17.000  0.00  0.00    +0.000 A 
ATOM      3  O   UNL     1       5.380   3.785  16.120  0.00  0.00    +0.000 OA
ATOM      4  C   UNL     1       4.120   3.195  17.994  0.00  0.00    +0.000 A 
ATOM      5  C   UNL     1       3.378   3.573  19.037  0.00  0.00    +0.000 A 
ATOM      6  C   UNL     1       2.983   4.967  19.159  0.00  0.00    +0.000 A 
ATOM      7  C   UNL     1       2.242   5.457  20.206  0.00  0.00    +0.000 A 
ATOM      8  N   UNL     1       1.823   6.736  20.297  0.00  0.00    +0.000 NA
ATOM      9  C   UNL     1       2.155   7.562  19.298  0.00  0.00    +0.000 A 
ATOM     10  N   UNL     1       1.648   8.835  19.410  0.00  0.00    +0.000 N 
ATOM     11  N   UNL     1       2.930   7.201  18.263  0.00  0.00    +0.000 NA
ATOM     12  C   UNL     1       3.347   5.911  18.213  0.00  0.00    +0.000 A 
ATOM     13  H   UNL     1       1.029   8.892  20.207  0.00  0.00    +0.000 HD
ENDROOT
BRANCH  10  14
ATOM     14  C   UNL     1       1.352   9.662  18.244  0.00  0.00    +0.000 C 
ATOM     15  C   UNL     1      -0.128   9.673  17.834  0.00  0.00    +0.000 C 
ATOM     16  C   UNL     1      -1.046  10.419  18.800  0.00  0.00    +0.000 C 
ATOM     17  C   UNL     1      -0.554  11.819  19.149  0.00  0.00    +0.000 C 
ATOM     18  C   UNL     1       0.933  11.881  19.486  0.00  0.00    +0.000 C 
ATOM     19  C   UNL     1       1.822  11.104  18.509  0.00  0.00    +0.000 C 
ENDBRANCH  10  14
BRANCH   1  21
ATOM     20  C   UNL     1       6.193   6.944  17.089  0.00  0.00    +0.000 C 
ATOM     21  C   UNL     1       4.899   6.531  16.391  0.00  0.00    +0.000 C 
ENDBRANCH   1  21
TORSDOF 2
ENDMDL
MODEL 5
REMARK VINA RESULT:      -6.6      3.583      6.565
REMARK  Name = 
REMARK  3 active torsions:
REMARK  status: ('A' for Active; 'I' for Inactive)
REMARK    1  A    between atoms: C_1  and  C_2
REMARK    2  A    between atoms: C_2  and  N_3
REMARK    3  A    between atoms: N_12  and  C_13
REMARK                            x       y       z     vdW  Elec       q    Type
REMARK                         _______ _______ _______ _____ _____    ______ ____
ROOT
ATOM      1  N   UNL     1       5.772   6.248  16.763  0.00  0.00    +0.000 N 
ATOM      2  C   UNL     1       6.414   5.352  15.933  0.00  0.00    +0.000 A 
ATOM      3  O   UNL     1       7.529   5.521  15.438  0.00  0.00    +0.000 OA
ATOM      4  C   UNL     1       5.715   4.067  15.648  0.00  0.00    +0.000 A 
ATOM      5  C   UNL     1       4.553   3.766  16.233  0.00  0.00    +0.000 A 
ATOM      6  C   UNL     1       3.922   4.747  17.101  0.00  0.00    +0.000 A 
ATOM      7  C   UNL     1       2.741   4.523  17.765  0.00  0.00    +0.000 A 
ATOM      8  N   UNL     1       2.119   5.446  18.527  0.00  0.00    +0.000 NA
ATOM      9  C   UNL     1       2.699   6.649  18.627  0.00  0.00    +0.000 A 
ATOM     10  N   UNL     1       1.991   7.571  19.361  0.00  0.00    +0.000 N 
ATOM     11  N   UNL     1       3.884   6.949  18.072  0.00  0.00    +0.000 NA
ATOM     12  C   UNL     1       4.488   5.990  17.328  0.00  0.00    +0.000 A 
ATOM     13  H   UNL     1       1.094   7.186  19.628  0.00  0.00    +0.000 HD
ENDROOT
BRANCH  10  14
ATOM     14  C   UNL     1       2.079   9.005  19.105  0.00  0.00    +0.000 C 
ATOM     15  C   UNL     1       1.432   9.455  17.787  0.00  0.00    +0.000 C 
ATOM     16  C   UNL     1      -0.094   9.381  17.775  0.00  0.00    +0.000 C 
ATOM     17  C   UNL     1      -0.746  10.057  18.977  0.00  0.00    +0.000 C 
ATOM     18  C   UNL     1      -0.088   9.710  20.308  0.00  0.00    +0.000 C 
ATOM     19  C   UNL     1       1.442   9.772  20.278  0.00  0.00    +0.000 C 
ENDBRANCH  10  14
BRANCH   1  21
ATOM     20  C   UNL     1       7.621   6.882  18.244  0.00  0.00    +0.000 C 
ATOM     21  C   UNL     1       6.536   7.375  17.289  0.00  0.00    +0.000 C 
ENDBRANCH   1  21
TORSDOF 2
ENDMDL
MODEL 6
REMARK VINA RESULT:      -6.4      2.954      6.305
REMARK  Name = 
REMARK  3 active torsions:
REMARK  status: ('A' for Active; 'I' for Inactive)
REMARK    1  A    between atoms: C_1  and  C_2
REMARK    2  A    between atoms: C_2  and  N_3
REMARK    3  A    between atoms: N_12  and  C_13
REMARK                            x       y       z     vdW  Elec       q    Type
REMARK                         _______ _______ _______ _____ _____    ______ ____
ROOT
ATOM      1  N   UNL     1       4.179   5.023  17.951  0.00  0.00    +0.000 N 
ATOM      2  C   UNL     1       4.408   4.043  17.007  0.00  0.00    +0.000 A 
ATOM      3  O   UNL     1       5.388   3.993  16.263  0.00  0.00    +0.000 OA
ATOM      4  C   UNL     1       3.406   2.944  16.911  0.00  0.00    +0.000 A 
ATOM      5  C   UNL     1       2.374   2.872  17.754  0.00  0.00    +0.000 A 
ATOM      6  C   UNL     1       2.182   3.931  18.732  0.00  0.00    +0.000 A 
ATOM      7  C   UNL     1       1.166   3.935  19.656  0.00  0.00    +0.000 A 
ATOM      8  N   UNL     1       0.947   4.940  20.528  0.00  0.00    +0.000 NA
ATOM      9  C   UNL     1       1.775   5.990  20.473  0.00  0.00    +0.000 A 
ATOM     10  N   UNL     1       1.467   7.013  21.340  0.00  0.00    +0.000 N 
ATOM     11  N   UNL     1       2.836   6.056  19.654  0.00  0.00    +0.000 NA
ATOM     12  C   UNL     1       3.035   5.019  18.803  0.00  0.00    +0.000 A 
ATOM     13  H   UNL     1       0.596   6.815  21.813  0.00  0.00    +0.000 HD
ENDROOT
BRANCH  10  14
ATOM     14  C   UNL     1       1.795   8.406  21.050  0.00  0.00    +0.000 C 
ATOM     15  C   UNL     1       0.879   9.071  20.013  0.00  0.00    +0.000 C 
ATOM     16  C   UNL     1      -0.543   9.338  20.506  0.00  0.00    +0.000 C 
ATOM     17  C   UNL     1      -0.596  10.064  21.846  0.00  0.00    +0.000 C 
ATOM     18  C   UNL     1       0.358   9.495  22.890  0.00  0.00    +0.000 C 
ATOM     19  C   UNL     1       1.767   9.218  22.357  0.00  0.00    +0.000 C 
ENDBRANCH  10  14
BRANCH   1  21
ATOM     20  C   UNL     1       6.243   5.299  19.247  0.00  0.00    +0.000 C 
ATOM     21  C   UNL     1       5.265   5.946  18.269  0.00  0.00    +0.000 C 
ENDBRANCH   1  21
TORSDOF 2
ENDMDL
MODEL 7
REMARK VINA RESULT:      -6.4      1.463      1.946
REMARK  Name = 
REMARK  3 active torsions:
REMARK  status: ('A' for Active; 'I' for Inactive)
REMARK    1  A    between atoms: C_1  and  C_2
REMARK    2  A    between atoms: C_2  and  N_3
REMARK    3  A    between atoms: N_12  and  C_13
REMARK                            x       y       z     vdW  Elec       q    Type
REMARK                         _______ _______ _______ _____ _____    ______ ____
ROOT
ATOM      1  N   UNL     1       0.067   9.705  20.815  0.00  0.00    +0.000 N 
ATOM      2  C   UNL     1      -0.572  10.926  20.847  0.00  0.00    +0.000 A 
ATOM      3  O   UNL     1      -1.306  11.317  21.756  0.00  0.00    +0.000 OA
ATOM      4  C   UNL     1      -0.324  11.855  19.709  0.00  0.00    +0.000 A 
ATOM      5  C   UNL     1       0.542  11.546  18.740  0.00  0.00    +0.000 A 
ATOM      6  C   UNL     1       1.191  10.245  18.757  0.00  0.00    +0.000 A 
ATOM      7  C   UNL     1       2.111   9.845  17.820  0.00  0.00    +0.000 A 
ATOM      8  N   UNL     1       2.675   8.620  17.796  0.00  0.00    +0.000 NA
ATOM      9  C   UNL     1       2.301   7.754  18.745  0.00  0.00    +0.000 A 
ATOM     10  N   UNL     1       2.857   6.501  18.635  0.00  0.00    +0.000 N 
ATOM     11  N   UNL     1       1.459   8.066  19.743  0.00  0.00    +0.000 NA
ATOM     12  C   UNL     1       0.925   9.313  19.746  0.00  0.00    +0.000 A 
ATOM     13  H   UNL     1       3.396   6.436  17.782  0.00  0.00    +0.000 HD
ENDROOT
BRANCH  10  14
ATOM     14  C   UNL     1       2.178   5.302  19.117  0.00  0.00    +0.000 C 
ATOM     15  C   UNL     1       1.678   4.366  18.007  0.00  0.00    +0.000 C 
ATOM     16  C   UNL     1       2.785   3.634  17.251  0.00  0.00    +0.000 C 
ATOM     17  C   UNL     1       3.784   2.932  18.165  0.00  0.00    +0.000 C 
ATOM     18  C   UNL     1       4.253   3.789  19.335  0.00  0.00    +0.000 C 
ATOM     19  C   UNL     1       3.120   4.526  20.057  0.00  0.00    +0.000 C 
ENDBRANCH  10  14
BRANCH   1  21
ATOM     20  C   UNL     1       1.222   9.324  22.944  0.00  0.00    +0.000 C 
ATOM     21  C   UNL     1       0.077   8.896  22.030  0.00  0.00    +0.000 C 
ENDBRANCH   1  21
TORSDOF 2
ENDMDL
MODEL 8
REMARK VINA RESULT:      -6.3      2.583      6.251
REMARK  Name = 
REMARK  3 active torsions:
REMARK  status: ('A' for Active; 'I' for Inactive)
REMARK    1  A    between atoms: C_1  and  C_2
REMARK    2  A    between atoms: C_2  and  N_3
REMARK    3  A    between atoms: N_12  and  C_13
REMARK                            x       y       z     vdW  Elec       q    Type
REMARK                         _______ _______ _______ _____ _____    ______ ____
ROOT
ATOM      1  N   UNL     1       2.976   5.005  19.909  0.00  0.00    +0.000 N 
ATOM      2  C   UNL     1       3.865   3.951  19.856  0.00  0.00    +0.000 A 
ATOM      3  O   UNL     1       3.818   2.950  20.572  0.00  0.00    +0.000 OA
ATOM      4  C   UNL     1       4.939   4.018  18.825  0.00  0.00    +0.000 A 
ATOM      5  C   UNL     1       4.991   5.018  17.943  0.00  0.00    +0.000 A 
ATOM      6  C   UNL     1       4.028   6.102  18.043  0.00  0.00    +0.000 A 
ATOM      7  C   UNL     1       3.985   7.162  17.171  0.00  0.00    +0.000 A 
ATOM      8  N   UNL     1       3.133   8.200  17.290  0.00  0.00    +0.000 NA
ATOM      9  C   UNL     1       2.288   8.184  18.328  0.00  0.00    +0.000 A 
ATOM     10  N   UNL     1       1.487   9.296  18.437  0.00  0.00    +0.000 N 
ATOM     11  N   UNL     1       2.203   7.166  19.199  0.00  0.00    +0.000 NA
ATOM     12  C   UNL     1       3.065   6.131  19.038  0.00  0.00    +0.000 A 
ATOM     13  H   UNL     1       1.750   9.982  17.742  0.00  0.00    +0.000 HD
ENDROOT
BRANCH  10  14
ATOM     14  C   UNL     1       0.985   9.772  19.723  0.00  0.00    +0.000 C 
ATOM     15  C   UNL     1       1.332  11.235  20.037  0.00  0.00    +0.000 C 
ATOM     16  C   UNL     1       0.586  12.258  19.182  0.00  0.00    +0.000 C 
ATOM     17  C   UNL     1      -0.922  12.037  19.146  0.00  0.00    +0.000 C 
ATOM     18  C   UNL     1      -1.325  10.584  18.919  0.00  0.00    +0.000 C 
ATOM     19  C   UNL     1      -0.542   9.583  19.776  0.00  0.00    +0.000 C 
ENDBRANCH  10  14
BRANCH   1  21
ATOM     20  C   UNL     1       0.820   3.844  20.030  0.00  0.00    +0.000 C 
ATOM     21  C   UNL     1       1.759   4.845  20.698  0.00  0.00    +0.000 C 
ENDBRANCH   1  21
TORSDOF 2
ENDMDL
MODEL 9
REMARK VINA RESULT:      -6.3      3.804      8.082
REMARK  Name = 
REMARK  3 active torsions:
REMARK  status: ('A' for Active; 'I' for Inactive)
REMARK    1  A    between atoms: C_1  and  C_2
REMARK    2  A    between atoms: C_2  and  N_3
REMARK    3  A    between atoms: N_12  and  C_13
REMARK                            x       y       z     vdW  Elec       q    Type
REMARK                         _______ _______ _______ _____ _____    ______ ____
ROOT
ATOM      1  N   UNL     1       0.867  10.367  19.262  0.00  0.00    +0.000 N 
ATOM      2  C   UNL     1       1.543   9.367  18.596  0.00  0.00    +0.000 A 
ATOM      3  O   UNL     1       1.909   9.423  17.421  0.00  0.00    +0.000 OA
ATOM      4  C   UNL     1       1.887   8.143  19.372  0.00  0.00    +0.000 A 
ATOM      5  C   UNL     1       1.619   8.052  20.677  0.00  0.00    +0.000 A 
ATOM      6  C   UNL     1       0.906   9.137  21.331  0.00  0.00    +0.000 A 
ATOM      7  C   UNL     1       0.605   9.148  22.671  0.00  0.00    +0.000 A 
ATOM      8  N   UNL     1      -0.106  10.123  23.274  0.00  0.00    +0.000 NA
ATOM      9  C   UNL     1      -0.539  11.131  22.506  0.00  0.00    +0.000 A 
ATOM     10  N   UNL     1      -1.311  12.062  23.159  0.00  0.00    +0.000 N 
ATOM     11  N   UNL     1      -0.244  11.249  21.202  0.00  0.00    +0.000 NA
ATOM     12  C   UNL     1       0.487  10.258  20.633  0.00  0.00    +0.000 A 
ATOM     13  H   UNL     1      -1.487  11.762  24.108  0.00  0.00    +0.000 HD
ENDROOT
BRANCH  10  14
ATOM     14  C   UNL     1      -2.345  12.835  22.476  0.00  0.00    +0.000 C 
ATOM     15  C   UNL     1      -3.765  12.609  23.013  0.00  0.00    +0.000 C 
ATOM     16  C   UNL     1      -4.016  13.195  24.402  0.00  0.00    +0.000 C 
ATOM     17  C   UNL     1      -3.595  14.655  24.532  0.00  0.00    +0.000 C 
ATOM     18  C   UNL     1      -2.222  14.953  23.938  0.00  0.00    +0.000 C 
ATOM     19  C   UNL     1      -1.997  14.333  22.555  0.00  0.00    +0.000 C 
ENDBRANCH  10  14
BRANCH   1  21
ATOM     20  C   UNL     1       2.060  12.465  18.829  0.00  0.00    +0.000 C 
ATOM     21  C   UNL     1       0.767  11.678  18.628  0.00  0.00    +0.000 C 
ENDBRANCH   1  21
TORSDOF 2
ENDMDL
