MODEL 1
REMARK VINA RESULT:      -8.3      0.000      0.000
REMARK  Name = 
REMARK  2 active torsions:
REMARK  status: ('A' for Active; 'I' for Inactive)
REMARK    1  A    between atoms: C_1  and  C_2
REMARK    2  A    between atoms: N_10  and  C_11
REMARK                            x       y       z     vdW  Elec       q    Type
REMARK                         _______ _______ _______ _____ _____    ______ ____
ROOT
ATOM      1  C   UNL     1      -1.327  11.308  22.948  0.00  0.00    +0.000 C 
ATOM      2  C   UNL     1      -1.313  11.392  21.443  0.00  0.00    +0.000 C 
ATOM      3  O   UNL     1      -1.857  12.334  20.875  0.00  0.00    +0.000 OA
ATOM      4  N   UNL     1      -0.620  10.404  20.766  0.00  0.00    +0.000 N 
ATOM      5  C   UNL     1      -0.431  10.537  19.312  0.00  0.00    +0.000 C 
ATOM      6  C   UNL     1       1.053  10.390  18.956  0.00  0.00    +0.000 C 
ATOM      7  N   UNL     1       1.596   9.135  19.508  0.00  0.00    +0.000 N 
ATOM      8  C   UNL     1       2.087   8.189  18.625  0.00  0.00    +0.000 C 
ATOM      9  O   UNL     1       2.112   8.400  17.412  0.00  0.00    +0.000 OA
ATOM     10  N   UNL     1       2.515   7.003  19.190  0.00  0.00    +0.000 N 
ATOM     11  C   UNL     1       1.430   9.017  20.962  0.00  0.00    +0.000 C 
ATOM     12  C   UNL     1      -0.050   9.186  21.348  0.00  0.00    +0.000 C 
ATOM     13  H   UNL     1       1.973   6.691  19.976  0.00  0.00    +0.000 HD
ENDROOT
BRANCH  10  14
ATOM     14  C   UNL     1       3.068   5.972  18.388  0.00  0.00    +0.000 A 
ATOM     15  C   UNL     1       4.109   6.283  17.502  0.00  0.00    +0.000 A 
ATOM     16  C   UNL     1       4.704   5.289  16.734  0.00  0.00    +0.000 A 
ATOM     17  C   UNL     1       4.262   3.975  16.833  0.00  0.00    +0.000 A 
ATOM     18  C   UNL     1       3.216   3.635  17.711  0.00  0.00    +0.000 A 
ATOM     19  C   UNL     1       2.603   4.643  18.494  0.00  0.00    +0.000 A 
ATOM     20  C   UNL     1       1.442   4.292  19.400  0.00  0.00    +0.000 C 
ATOM     21  C   UNL     1       0.783   2.952  19.070  0.00  0.00    +0.000 C 
ATOM     22  C   UNL     1       1.845   1.877  18.910  0.00  0.00    +0.000 C 
ATOM     23  C   UNL     1       2.733   2.206  17.717  0.00  0.00    +0.000 C 
ENDBRANCH  10  14
TORSDOF 1
ENDMDL
MODEL 2
REMARK VINA RESULT:      -7.8      1.048      1.103
REMARK  Name = 
REMARK  2 active torsions:
REMARK  status: ('A' for Active; 'I' for Inactive)
REMARK    1  A    between atoms: C_1  and  C_2
REMARK    2  A    between atoms: N_10  and  C_11
REMARK                            x       y       z     vdW  Elec       q    Type
REMARK                         _______ _______ _______ _____ _____    ______ ____
ROOT
ATOM      1  C   UNL     1      -1.633  12.445  23.021  0.00  0.00    +0.000 C 
ATOM      2  C   UNL     1      -1.743  12.300  21.525  0.00  0.00    +0.000 C 
ATOM      3  O   UNL     1      -2.385  13.120  20.875  0.00  0.00    +0.000 OA
ATOM      4  N   UNL     1      -1.050  11.254  20.943  0.00  0.00    +0.000 N 
ATOM      5  C   UNL     1      -0.985  11.174  19.474  0.00  0.00    +0.000 C 
ATOM      6  C   UNL     1       0.472  11.043  19.014  0.00  0.00    +0.000 C 
ATOM      7  N   UNL     1       1.129   9.913  19.695  0.00  0.00    +0.000 N 
ATOM      8  C   UNL     1       1.603   8.867  18.921  0.00  0.00    +0.000 C 
ATOM      9  O   UNL     1       1.519   8.894  17.693  0.00  0.00    +0.000 OA
ATOM     10  N   UNL     1       2.143   7.802  19.615  0.00  0.00    +0.000 N 
ATOM     11  C   UNL     1       1.087  10.008  21.160  0.00  0.00    +0.000 C 
ATOM     12  C   UNL     1      -0.365  10.165  21.645  0.00  0.00    +0.000 C 
ATOM     13  H   UNL     1       1.685   7.588  20.483  0.00  0.00    +0.000 HD
ENDROOT
BRANCH  10  14
ATOM     14  C   UNL     1       2.690   6.688  18.928  0.00  0.00    +0.000 A 
ATOM     15  C   UNL     1       3.550   6.912  17.843  0.00  0.00    +0.000 A 
ATOM     16  C   UNL     1       4.138   5.844  17.175  0.00  0.00    +0.000 A 
ATOM     17  C   UNL     1       3.870   4.540  17.576  0.00  0.00    +0.000 A 
ATOM     18  C   UNL     1       3.008   4.286  18.658  0.00  0.00    +0.000 A 
ATOM     19  C   UNL     1       2.402   5.369  19.340  0.00  0.00    +0.000 A 
ATOM     20  C   UNL     1       1.432   5.099  20.471  0.00  0.00    +0.000 C 
ATOM     21  C   UNL     1       0.892   3.669  20.494  0.00  0.00    +0.000 C 
ATOM     22  C   UNL     1       2.037   2.679  20.356  0.00  0.00    +0.000 C 
ATOM     23  C   UNL     1       2.700   2.848  18.994  0.00  0.00    +0.000 C 
ENDBRANCH  10  14
TORSDOF 1
ENDMDL
MODEL 3
REMARK VINA RESULT:      -7.6      1.341      1.380
REMARK  Name = 
REMARK  2 active torsions:
REMARK  status: ('A' for Active; 'I' for Inactive)
REMARK    1  A    between atoms: C_1  and  C_2
REMARK    2  A    between atoms: N_10  and  C_11
REMARK                            x       y       z     vdW  Elec       q    Type
REMARK                         _______ _______ _______ _____ _____    ______ ____
ROOT
ATOM      1  C   UNL     1      -1.897  11.905  21.153  0.00  0.00    +0.000 C 
ATOM      2  C   UNL     1      -1.561  11.511  19.737  0.00  0.00    +0.000 C 
ATOM      3  O   UNL     1      -1.961  12.193  18.799  0.00  0.00    +0.000 OA
ATOM      4  N   UNL     1      -0.749  10.403  19.570  0.00  0.00    +0.000 N 
ATOM      5  C   UNL     1      -0.252  10.083  18.222  0.00  0.00    +0.000 C 
ATOM      6  C   UNL     1       1.273   9.919  18.244  0.00  0.00    +0.000 C 
ATOM      7  N   UNL     1       1.672   8.937  19.268  0.00  0.00    +0.000 N 
ATOM      8  C   UNL     1       2.331   7.791  18.856  0.00  0.00    +0.000 C 
ATOM      9  O   UNL     1       2.617   7.612  17.672  0.00  0.00    +0.000 OA
ATOM     10  N   UNL     1       2.616   6.872  19.846  0.00  0.00    +0.000 N 
ATOM     11  C   UNL     1       1.198   9.272  20.617  0.00  0.00    +0.000 C 
ATOM     12  C   UNL     1      -0.328   9.466  20.615  0.00  0.00    +0.000 C 
ATOM     13  H   UNL     1       1.916   6.791  20.562  0.00  0.00    +0.000 HD
ENDROOT
BRANCH  10  14
ATOM     14  C   UNL     1       3.318   5.675  19.548  0.00  0.00    +0.000 A 
ATOM     15  C   UNL     1       4.700   5.735  19.322  0.00  0.00    +0.000 A 
ATOM     16  C   UNL     1       5.426   4.575  19.072  0.00  0.00    +0.000 A 
ATOM     17  C   UNL     1       4.780   3.345  19.035  0.00  0.00    +0.000 A 
ATOM     18  C   UNL     1       3.393   3.256  19.255  0.00  0.00    +0.000 A 
ATOM     19  C   UNL     1       2.647   4.433  19.506  0.00  0.00    +0.000 A 
ATOM     20  C   UNL     1       1.147   4.349  19.690  0.00  0.00    +0.000 C 
ATOM     21  C   UNL     1       0.533   3.045  19.178  0.00  0.00    +0.000 C 
ATOM     22  C   UNL     1       1.329   1.859  19.696  0.00  0.00    +0.000 C 
ATOM     23  C   UNL     1       2.742   1.901  19.127  0.00  0.00    +0.000 C 
ENDBRANCH  10  14
TORSDOF 1
ENDMDL
MODEL 4
REMARK VINA RESULT:      -7.5      0.992      2.686
REMARK  Name = 
REMARK  2 active torsions:
REMARK  status: ('A' for Active; 'I' for Inactive)
REMARK    1  A    between atoms: C_1  and  C_2
REMARK    2  A    between atoms: N_10  and  C_11
REMARK                            x       y       z     vdW  Elec       q    Type
REMARK                         _______ _______ _______ _____ _____    ______ ____
ROOT
ATOM      1  C   UNL     1      -1.045  10.954  23.057  0.00  0.00    +0.000 C 
ATOM      2  C   UNL     1      -1.068  11.044  21.553  0.00  0.00    +0.000 C 
ATOM      3  O   UNL     1      -1.580  12.015  21.004  0.00  0.00    +0.000 OA
ATOM      4  N   UNL     1      -0.441  10.028  20.853  0.00  0.00    +0.000 N 
ATOM      5  C   UNL     1      -0.285  10.160  19.395  0.00  0.00    +0.000 C 
ATOM      6  C   UNL     1       1.180   9.943  18.998  0.00  0.00    +0.000 C 
ATOM      7  N   UNL     1       1.675   8.660  19.530  0.00  0.00    +0.000 N 
ATOM      8  C   UNL     1       2.096   7.696  18.630  0.00  0.00    +0.000 C 
ATOM      9  O   UNL     1       2.099   7.913  17.419  0.00  0.00    +0.000 OA
ATOM     10  N   UNL     1       2.481   6.488  19.179  0.00  0.00    +0.000 N 
ATOM     11  C   UNL     1       1.543   8.542  20.988  0.00  0.00    +0.000 C 
ATOM     12  C   UNL     1       0.084   8.780  21.414  0.00  0.00    +0.000 C 
ATOM     13  H   UNL     1       1.946   6.198  19.978  0.00  0.00    +0.000 HD
ENDROOT
BRANCH  10  14
ATOM     14  C   UNL     1       2.962   5.436  18.358  0.00  0.00    +0.000 A 
ATOM     15  C   UNL     1       2.110   4.363  18.060  0.00  0.00    +0.000 A 
ATOM     16  C   UNL     1       2.534   3.337  17.222  0.00  0.00    +0.000 A 
ATOM     17  C   UNL     1       3.813   3.365  16.679  0.00  0.00    +0.000 A 
ATOM     18  C   UNL     1       4.689   4.428  16.965  0.00  0.00    +0.000 A 
ATOM     19  C   UNL     1       4.267   5.474  17.821  0.00  0.00    +0.000 A 
ATOM     20  C   UNL     1       5.224   6.593  18.173  0.00  0.00    +0.000 C 
ATOM     21  C   UNL     1       6.691   6.262  17.893  0.00  0.00    +0.000 C 
ATOM     22  C   UNL     1       6.834   5.687  16.494  0.00  0.00    +0.000 C 
ATOM     23  C   UNL     1       6.089   4.361  16.405  0.00  0.00    +0.000 C 
ENDBRANCH  10  14
TORSDOF 1
ENDMDL
MODEL 5
REMARK VINA RESULT:      -7.1      2.367      7.639
REMARK  Name = 
REMARK  2 active torsions:
REMARK  status: ('A' for Active; 'I' for Inactive)
REMARK    1  A    between atoms: C_1  and  C_2
REMARK    2  A    between atoms: N_10  and  C_11
REMARK                            x       y       z     vdW  Elec       q    Type
REMARK                         _______ _______ _______ _____ _____    ______ ____
ROOT
ATOM      1  C   UNL     1       3.911   2.920  17.441  0.00  0.00    +0.000 C 
ATOM      2  C   UNL     1       2.938   3.006  18.589  0.00  0.00    +0.000 C 
ATOM      3  O   UNL     1       2.714   2.017  19.280  0.00  0.00    +0.000 OA
ATOM      4  N   UNL     1       2.378   4.246  18.844  0.00  0.00    +0.000 N 
ATOM      5  C   UNL     1       1.560   4.420  20.056  0.00  0.00    +0.000 C 
ATOM      6  C   UNL     1       2.061   5.622  20.865  0.00  0.00    +0.000 C 
ATOM      7  N   UNL     1       2.122   6.826  20.017  0.00  0.00    +0.000 N 
ATOM      8  C   UNL     1       1.331   7.910  20.360  0.00  0.00    +0.000 C 
ATOM      9  O   UNL     1       0.625   7.890  21.368  0.00  0.00    +0.000 OA
ATOM     10  N   UNL     1       1.372   8.983  19.491  0.00  0.00    +0.000 N 
ATOM     11  C   UNL     1       2.960   6.659  18.823  0.00  0.00    +0.000 C 
ATOM     12  C   UNL     1       2.492   5.442  18.006  0.00  0.00    +0.000 C 
ATOM     13  H   UNL     1       1.455   8.737  18.521  0.00  0.00    +0.000 HD
ENDROOT
BRANCH  10  14
ATOM     14  C   UNL     1       0.628  10.162  19.755  0.00  0.00    +0.000 A 
ATOM     15  C   UNL     1       1.012  10.983  20.825  0.00  0.00    +0.000 A 
ATOM     16  C   UNL     1       0.333  12.168  21.084  0.00  0.00    +0.000 A 
ATOM     17  C   UNL     1      -0.742  12.544  20.286  0.00  0.00    +0.000 A 
ATOM     18  C   UNL     1      -1.150  11.737  19.209  0.00  0.00    +0.000 A 
ATOM     19  C   UNL     1      -0.466  10.526  18.941  0.00  0.00    +0.000 A 
ATOM     20  C   UNL     1      -0.936   9.628  17.816  0.00  0.00    +0.000 C 
ATOM     21  C   UNL     1      -2.359   9.925  17.341  0.00  0.00    +0.000 C 
ATOM     22  C   UNL     1      -2.528  11.417  17.109  0.00  0.00    +0.000 C 
ATOM     23  C   UNL     1      -2.369  12.163  18.429  0.00  0.00    +0.000 C 
ENDBRANCH  10  14
TORSDOF 1
ENDMDL
MODEL 6
REMARK VINA RESULT:      -7.1      1.540      2.027
REMARK  Name = 
REMARK  2 active torsions:
REMARK  status: ('A' for Active; 'I' for Inactive)
REMARK    1  A    between atoms: C_1  and  C_2
REMARK    2  A    between atoms: N_10  and  C_11
REMARK                            x       y       z     vdW  Elec       q    Type
REMARK                         _______ _______ _______ _____ _____    ______ ____
ROOT
ATOM      1  C   UNL     1      -0.609  13.426  19.032  0.00  0.00    +0.000 C 
ATOM      2  C   UNL     1      -0.067  12.616  20.182  0.00  0.00    +0.000 C 
ATOM      3  O   UNL     1      -0.360  12.915  21.336  0.00  0.00    +0.000 OA
ATOM      4  N   UNL     1       0.708  11.514  19.864  0.00  0.00    +0.000 N 
ATOM      5  C   UNL     1       1.114  10.596  20.941  0.00  0.00    +0.000 C 
ATOM      6  C   UNL     1       0.741   9.154  20.576  0.00  0.00    +0.000 C 
ATOM      7  N   UNL     1       1.293   8.796  19.257  0.00  0.00    +0.000 N 
ATOM      8  C   UNL     1       2.205   7.757  19.188  0.00  0.00    +0.000 C 
ATOM      9  O   UNL     1       2.519   7.117  20.191  0.00  0.00    +0.000 OA
ATOM     10  N   UNL     1       2.745   7.511  17.940  0.00  0.00    +0.000 N 
ATOM     11  C   UNL     1       0.865   9.697  18.179  0.00  0.00    +0.000 C 
ATOM     12  C   UNL     1       1.206  11.155  18.534  0.00  0.00    +0.000 C 
ATOM     13  H   UNL     1       2.907   8.331  17.383  0.00  0.00    +0.000 HD
ENDROOT
BRANCH  10  14
ATOM     14  C   UNL     1       3.666   6.451  17.741  0.00  0.00    +0.000 A 
ATOM     15  C   UNL     1       5.007   6.756  17.469  0.00  0.00    +0.000 A 
ATOM     16  C   UNL     1       5.944   5.741  17.313  0.00  0.00    +0.000 A 
ATOM     17  C   UNL     1       5.554   4.411  17.417  0.00  0.00    +0.000 A 
ATOM     18  C   UNL     1       4.215   4.076  17.686  0.00  0.00    +0.000 A 
ATOM     19  C   UNL     1       3.253   5.104  17.842  0.00  0.00    +0.000 A 
ATOM     20  C   UNL     1       1.801   4.748  18.078  0.00  0.00    +0.000 C 
ATOM     21  C   UNL     1       1.452   3.304  17.716  0.00  0.00    +0.000 C 
ATOM     22  C   UNL     1       2.472   2.356  18.324  0.00  0.00    +0.000 C 
ATOM     23  C   UNL     1       3.843   2.615  17.712  0.00  0.00    +0.000 C 
ENDBRANCH  10  14
TORSDOF 1
ENDMDL
MODEL 7
REMARK VINA RESULT:      -7.1      1.756      3.405
REMARK  Name = 
REMARK  2 active torsions:
REMARK  status: ('A' for Active; 'I' for Inactive)
REMARK    1  A    between atoms: C_1  and  C_2
REMARK    2  A    between atoms: N_10  and  C_11
REMARK                            x       y       z     vdW  Elec       q    Type
REMARK                         _______ _______ _______ _____ _____    ______ ____
ROOT
ATOM      1  C   UNL     1       0.322  13.599  19.371  0.00  0.00    +0.000 C 
ATOM      2  C   UNL     1       0.701  12.660  20.488  0.00  0.00    +0.000 C 
ATOM      3  O   UNL     1       0.508  12.985  21.656  0.00  0.00    +0.000 OA
ATOM      4  N   UNL     1       1.209  11.425  20.125  0.00  0.00    +0.000 N 
ATOM      5  C   UNL     1       1.430  10.412  21.170  0.00  0.00    +0.000 C 
ATOM      6  C   UNL     1       0.743   9.096  20.786  0.00  0.00    +0.000 C 
ATOM      7  N   UNL     1       1.172   8.662  19.444  0.00  0.00    +0.000 N 
ATOM      8  C   UNL     1       1.834   7.451  19.327  0.00  0.00    +0.000 C 
ATOM      9  O   UNL     1       2.024   6.732  20.308  0.00  0.00    +0.000 OA
ATOM     10  N   UNL     1       2.277   7.128  18.060  0.00  0.00    +0.000 N 
ATOM     11  C   UNL     1       0.926   9.663  18.399  0.00  0.00    +0.000 C 
ATOM     12  C   UNL     1       1.585  11.002  18.773  0.00  0.00    +0.000 C 
ATOM     13  H   UNL     1       2.601   7.907  17.515  0.00  0.00    +0.000 HD
ENDROOT
BRANCH  10  14
ATOM     14  C   UNL     1       2.939   5.898  17.812  0.00  0.00    +0.000 A 
ATOM     15  C   UNL     1       2.212   4.703  17.906  0.00  0.00    +0.000 A 
ATOM     16  C   UNL     1       2.819   3.483  17.627  0.00  0.00    +0.000 A 
ATOM     17  C   UNL     1       4.158   3.441  17.258  0.00  0.00    +0.000 A 
ATOM     18  C   UNL     1       4.912   4.624  17.159  0.00  0.00    +0.000 A 
ATOM     19  C   UNL     1       4.303   5.870  17.447  0.00  0.00    +0.000 A 
ATOM     20  C   UNL     1       5.123   7.141  17.393  0.00  0.00    +0.000 C 
ATOM     21  C   UNL     1       6.633   6.903  17.431  0.00  0.00    +0.000 C 
ATOM     22  C   UNL     1       7.015   5.828  16.427  0.00  0.00    +0.000 C 
ATOM     23  C   UNL     1       6.379   4.503  16.828  0.00  0.00    +0.000 C 
ENDBRANCH  10  14
TORSDOF 1
ENDMDL
MODEL 8
REMARK VINA RESULT:      -6.7      1.386      2.659
REMARK  Name = 
REMARK  2 active torsions:
REMARK  status: ('A' for Active; 'I' for Inactive)
REMARK    1  A    between atoms: C_1  and  C_2
REMARK    2  A    between atoms: N_10  and  C_11
REMARK                            x       y       z     vdW  Elec       q    Type
REMARK                         _______ _______ _______ _____ _____    ______ ____
ROOT
ATOM      1  C   UNL     1      -0.801  12.547  22.553  0.00  0.00    +0.000 C 
ATOM      2  C   UNL     1      -0.789  12.117  21.108  0.00  0.00    +0.000 C 
ATOM      3  O   UNL     1      -1.089  12.917  20.227  0.00  0.00    +0.000 OA
ATOM      4  N   UNL     1      -0.374  10.824  20.841  0.00  0.00    +0.000 N 
ATOM      5  C   UNL     1      -0.179  10.415  19.440  0.00  0.00    +0.000 C 
ATOM      6  C   UNL     1       1.216   9.806  19.255  0.00  0.00    +0.000 C 
ATOM      7  N   UNL     1       1.437   8.717  20.223  0.00  0.00    +0.000 N 
ATOM      8  C   UNL     1       1.664   7.441  19.735  0.00  0.00    +0.000 C 
ATOM      9  O   UNL     1       1.723   7.224  18.525  0.00  0.00    +0.000 OA
ATOM     10  N   UNL     1       1.792   6.447  20.685  0.00  0.00    +0.000 N 
ATOM     11  C   UNL     1       1.269   9.134  21.621  0.00  0.00    +0.000 C 
ATOM     12  C   UNL     1      -0.117   9.771  21.827  0.00  0.00    +0.000 C 
ATOM     13  H   UNL     1       1.201   6.555  21.490  0.00  0.00    +0.000 HD
ENDROOT
BRANCH  10  14
ATOM     14  C   UNL     1       2.058   5.107  20.304  0.00  0.00    +0.000 A 
ATOM     15  C   UNL     1       1.078   4.129  20.524  0.00  0.00    +0.000 A 
ATOM     16  C   UNL     1       1.289   2.814  20.123  0.00  0.00    +0.000 A 
ATOM     17  C   UNL     1       2.482   2.458  19.505  0.00  0.00    +0.000 A 
ATOM     18  C   UNL     1       3.484   3.418  19.275  0.00  0.00    +0.000 A 
ATOM     19  C   UNL     1       3.279   4.758  19.685  0.00  0.00    +0.000 A 
ATOM     20  C   UNL     1       4.375   5.783  19.488  0.00  0.00    +0.000 C 
ATOM     21  C   UNL     1       5.754   5.173  19.235  0.00  0.00    +0.000 C 
ATOM     22  C   UNL     1       5.656   4.096  18.167  0.00  0.00    +0.000 C 
ATOM     23  C   UNL     1       4.785   2.952  18.669  0.00  0.00    +0.000 C 
ENDBRANCH  10  14
TORSDOF 1
ENDMDL
MODEL 9
REMARK VINA RESULT:      -6.6      1.997      3.442
REMARK  Name = 
REMARK  2 active torsions:
REMARK  status: ('A' for Active; 'I' for Inactive)
REMARK    1  A    between atoms: C_1  and  C_2
REMARK    2  A    between atoms: N_10  and  C_11
REMARK                            x       y       z     vdW  Elec       q    Type
REMARK                         _______ _______ _______ _____ _____    ______ ____
ROOT
ATOM      1  C   UNL     1       0.004  14.334  18.559  0.00  0.00    +0.000 C 
ATOM      2  C   UNL     1       0.334  13.741  19.905  0.00  0.00    +0.000 C 
ATOM      3  O   UNL     1       0.115  14.382  20.929  0.00  0.00    +0.000 OA
ATOM      4  N   UNL     1       0.827  12.448  19.918  0.00  0.00    +0.000 N 
ATOM      5  C   UNL     1       1.000  11.766  21.211  0.00  0.00    +0.000 C 
ATOM      6  C   UNL     1       0.297  10.403  21.188  0.00  0.00    +0.000 C 
ATOM      7  N   UNL     1       0.754   9.605  20.036  0.00  0.00    +0.000 N 
ATOM      8  C   UNL     1       1.395   8.403  20.283  0.00  0.00    +0.000 C 
ATOM      9  O   UNL     1       1.544   7.985  21.431  0.00  0.00    +0.000 OA
ATOM     10  N   UNL     1       1.866   7.733  19.171  0.00  0.00    +0.000 N 
ATOM     11  C   UNL     1       0.557  10.277  18.745  0.00  0.00    +0.000 C 
ATOM     12  C   UNL     1       1.232  11.659  18.752  0.00  0.00    +0.000 C 
ATOM     13  H   UNL     1       2.221   8.325  18.441  0.00  0.00    +0.000 HD
ENDROOT
BRANCH  10  14
ATOM     14  C   UNL     1       2.511   6.475  19.298  0.00  0.00    +0.000 A 
ATOM     15  C   UNL     1       2.071   5.582  20.285  0.00  0.00    +0.000 A 
ATOM     16  C   UNL     1       2.651   4.324  20.408  0.00  0.00    +0.000 A 
ATOM     17  C   UNL     1       3.680   3.946  19.554  0.00  0.00    +0.000 A 
ATOM     18  C   UNL     1       4.143   4.824  18.557  0.00  0.00    +0.000 A 
ATOM     19  C   UNL     1       3.561   6.108  18.429  0.00  0.00    +0.000 A 
ATOM     20  C   UNL     1       4.092   7.076  17.393  0.00  0.00    +0.000 C 
ATOM     21  C   UNL     1       5.479   6.713  16.862  0.00  0.00    +0.000 C 
ATOM     22  C   UNL     1       5.519   5.244  16.475  0.00  0.00    +0.000 C 
ATOM     23  C   UNL     1       5.313   4.381  17.713  0.00  0.00    +0.000 C 
ENDBRANCH  10  14
TORSDOF 1
ENDMDL
