MODEL 1
REMARK VINA RESULT:      -7.3      0.000      0.000
REMARK  Name = 
REMARK  4 active torsions:
REMARK  status: ('A' for Active; 'I' for Inactive)
REMARK    1  A    between atoms: C_1  and  C_2
REMARK    2  A    between atoms: C_8  and  N_9
REMARK    3  A    between atoms: C_12  and  C_13
REMARK    4  A    between atoms: C_21  and  C_22
REMARK                            x       y       z     vdW  Elec       q    Type
REMARK                         _______ _______ _______ _____ _____    ______ ____
ROOT
ATOM      1  N   UNL     1       0.061  11.308  21.679  0.00  0.00    +0.000 N 
ATOM      2  N   UNL     1       0.354  10.460  22.697  0.00  0.00    +0.000 NA
ATOM      3  C   UNL     1       0.974   9.430  22.163  0.00  0.00    +0.000 A 
ATOM      4  C   UNL     1       0.971   9.466  20.768  0.00  0.00    +0.000 A 
ATOM      5  C   UNL     1       0.321  10.671  20.425  0.00  0.00    +0.000 A 
ENDROOT
BRANCH   4   6
ATOM      6  C   UNL     1       1.587   8.430  19.951  0.00  0.00    +0.000 C 
ATOM      7  O   UNL     1       1.949   8.676  18.806  0.00  0.00    +0.000 OA
ATOM      8  N   UNL     1       1.738   7.229  20.609  0.00  0.00    +0.000 N 
ATOM      9  C   UNL     1       2.079   6.088  19.936  0.00  0.00    +0.000 A 
ATOM     10  N   UNL     1       2.290   5.917  18.657  0.00  0.00    +0.000 NA
ATOM     11  C   UNL     1       2.523   4.582  18.401  0.00  0.00    +0.000 A 
ATOM     12  C   UNL     1       2.501   3.756  19.504  0.00  0.00    +0.000 A 
ATOM     13  S   UNL     1       2.177   4.688  20.912  0.00  0.00    +0.000 S 
ATOM     14  H   UNL     1       1.490   7.126  21.580  0.00  0.00    +0.000 HD
ENDBRANCH   4   6
BRANCH   1  22
ATOM     15  C   UNL     1      -2.522  11.828  23.169  0.00  0.00    +0.000 C 
ATOM     16  C   UNL     1      -1.479  12.893  22.895  0.00  0.00    +0.000 A 
ATOM     17  C   UNL     1      -1.655  14.173  23.475  0.00  0.00    +0.000 A 
ATOM     18 CL   UNL     1      -2.930  14.532  24.595  0.00  0.00    +0.000 Cl
ATOM     19  C   UNL     1      -0.784  15.221  23.187  0.00  0.00    +0.000 A 
ATOM     20  C   UNL     1       0.271  15.016  22.311  0.00  0.00    +0.000 A 
ATOM     21  C   UNL     1       0.504  13.749  21.768  0.00  0.00    +0.000 A 
ATOM     22  C   UNL     1      -0.326  12.657  22.068  0.00  0.00    +0.000 A 
ENDBRANCH   1  22
BRANCH   5  23
ATOM     23  C   UNL     1      -0.065  11.254  19.056  0.00  0.00    +0.000 C 
ATOM     24  C   UNL     1      -1.032  12.451  19.144  0.00  0.00    +0.000 C 
ATOM     25  C   UNL     1      -2.492  12.027  19.324  0.00  0.00    +0.000 C 
ATOM     26  N   UNL     1      -2.947  11.098  18.290  0.00  0.00    +0.000 NA
ATOM     27  C   UNL     1      -2.089   9.914  18.225  0.00  0.00    +0.000 C 
ATOM     28  C   UNL     1      -0.628  10.294  17.995  0.00  0.00    +0.000 C 
ATOM     29  H   UNL     1      -2.944  11.560  17.381  0.00  0.00    +0.000 HD
ENDBRANCH   5  23
TORSDOF 3
ENDMDL
MODEL 2
REMARK VINA RESULT:      -7.2      4.539      7.764
REMARK  Name = 
REMARK  4 active torsions:
REMARK  status: ('A' for Active; 'I' for Inactive)
REMARK    1  A    between atoms: C_1  and  C_2
REMARK    2  A    between atoms: C_8  and  N_9
REMARK    3  A    between atoms: C_12  and  C_13
REMARK    4  A    between atoms: C_21  and  C_22
REMARK                            x       y       z     vdW  Elec       q    Type
REMARK                         _______ _______ _______ _____ _____    ______ ____
ROOT
ATOM      1  N   UNL     1      -0.813  11.457  19.690  0.00  0.00    +0.000 N 
ATOM      2  N   UNL     1      -0.486  12.573  20.390  0.00  0.00    +0.000 NA
ATOM      3  C   UNL     1      -1.617  13.104  20.802  0.00  0.00    +0.000 A 
ATOM      4  C   UNL     1      -2.736  12.472  20.259  0.00  0.00    +0.000 A 
ATOM      5  C   UNL     1      -2.227  11.415  19.475  0.00  0.00    +0.000 A 
ENDROOT
BRANCH   4   6
ATOM      6  C   UNL     1      -4.099  12.889  20.558  0.00  0.00    +0.000 C 
ATOM      7  O   UNL     1      -4.818  12.197  21.270  0.00  0.00    +0.000 OA
ATOM      8  N   UNL     1      -4.435  14.106  20.006  0.00  0.00    +0.000 N 
ATOM      9  C   UNL     1      -5.732  14.543  19.984  0.00  0.00    +0.000 A 
ATOM     10  N   UNL     1      -6.809  13.946  20.421  0.00  0.00    +0.000 NA
ATOM     11  C   UNL     1      -7.916  14.710  20.116  0.00  0.00    +0.000 A 
ATOM     12  C   UNL     1      -7.655  15.894  19.461  0.00  0.00    +0.000 A 
ATOM     13  S   UNL     1      -5.961  16.054  19.220  0.00  0.00    +0.000 S 
ATOM     14  H   UNL     1      -3.762  14.657  19.498  0.00  0.00    +0.000 HD
ENDBRANCH   4   6
BRANCH   1  22
ATOM     15  C   UNL     1      -0.154   9.220  21.618  0.00  0.00    +0.000 C 
ATOM     16  C   UNL     1       0.506   9.386  20.265  0.00  0.00    +0.000 A 
ATOM     17  C   UNL     1       1.388   8.372  19.816  0.00  0.00    +0.000 A 
ATOM     18 CL   UNL     1       1.633   6.888  20.680  0.00  0.00    +0.000 Cl
ATOM     19  C   UNL     1       2.098   8.509  18.626  0.00  0.00    +0.000 A 
ATOM     20  C   UNL     1       1.950   9.660  17.866  0.00  0.00    +0.000 A 
ATOM     21  C   UNL     1       1.045  10.651  18.254  0.00  0.00    +0.000 A 
ATOM     22  C   UNL     1       0.278  10.531  19.424  0.00  0.00    +0.000 A 
ENDBRANCH   1  22
BRANCH   5  23
ATOM     23  C   UNL     1      -2.939  10.401  18.566  0.00  0.00    +0.000 C 
ATOM     24  C   UNL     1      -2.177  10.098  17.260  0.00  0.00    +0.000 C 
ATOM     25  C   UNL     1      -2.403  11.157  16.179  0.00  0.00    +0.000 C 
ATOM     26  N   UNL     1      -3.818  11.380  15.885  0.00  0.00    +0.000 NA
ATOM     27  C   UNL     1      -4.562  11.736  17.094  0.00  0.00    +0.000 C 
ATOM     28  C   UNL     1      -4.403  10.677  18.182  0.00  0.00    +0.000 C 
ATOM     29  H   UNL     1      -4.226  10.537  15.481  0.00  0.00    +0.000 HD
ENDBRANCH   5  23
TORSDOF 3
ENDMDL
MODEL 3
REMARK VINA RESULT:      -7.0      4.329      9.123
REMARK  Name = 
REMARK  4 active torsions:
REMARK  status: ('A' for Active; 'I' for Inactive)
REMARK    1  A    between atoms: C_1  and  C_2
REMARK    2  A    between atoms: C_8  and  N_9
REMARK    3  A    between atoms: C_12  and  C_13
REMARK    4  A    between atoms: C_21  and  C_22
REMARK                            x       y       z     vdW  Elec       q    Type
REMARK                         _______ _______ _______ _____ _____    ______ ____
ROOT
ATOM      1  N   UNL     1       3.642   6.425  17.918  0.00  0.00    +0.000 N 
ATOM      2  N   UNL     1       3.182   7.570  17.351  0.00  0.00    +0.000 NA
ATOM      3  C   UNL     1       2.486   8.194  18.276  0.00  0.00    +0.000 A 
ATOM      4  C   UNL     1       2.310   7.425  19.427  0.00  0.00    +0.000 A 
ATOM      5  C   UNL     1       3.019   6.228  19.190  0.00  0.00    +0.000 A 
ENDROOT
BRANCH   4   6
ATOM      6  C   UNL     1       1.564   7.897  20.585  0.00  0.00    +0.000 C 
ATOM      7  O   UNL     1       1.204   7.112  21.454  0.00  0.00    +0.000 OA
ATOM      8  N   UNL     1       1.370   9.262  20.594  0.00  0.00    +0.000 N 
ATOM      9  C   UNL     1       0.500   9.850  21.471  0.00  0.00    +0.000 A 
ATOM     10  N   UNL     1      -0.261   9.292  22.375  0.00  0.00    +0.000 NA
ATOM     11  C   UNL     1      -1.046  10.254  22.976  0.00  0.00    +0.000 A 
ATOM     12  C   UNL     1      -0.852  11.541  22.526  0.00  0.00    +0.000 A 
ATOM     13  S   UNL     1       0.358  11.545  21.304  0.00  0.00    +0.000 S 
ATOM     14  H   UNL     1       1.768   9.855  19.884  0.00  0.00    +0.000 HD
ENDBRANCH   4   6
BRANCH   1  22
ATOM     15  C   UNL     1       6.446   6.263  19.042  0.00  0.00    +0.000 C 
ATOM     16  C   UNL     1       6.000   5.541  17.786  0.00  0.00    +0.000 A 
ATOM     17  C   UNL     1       6.902   4.638  17.171  0.00  0.00    +0.000 A 
ATOM     18 CL   UNL     1       8.433   4.216  17.867  0.00  0.00    +0.000 Cl
ATOM     19  C   UNL     1       6.589   4.016  15.965  0.00  0.00    +0.000 A 
ATOM     20  C   UNL     1       5.378   4.287  15.347  0.00  0.00    +0.000 A 
ATOM     21  C   UNL     1       4.444   5.129  15.958  0.00  0.00    +0.000 A 
ATOM     22  C   UNL     1       4.704   5.741  17.194  0.00  0.00    +0.000 A 
ENDBRANCH   1  22
BRANCH   5  23
ATOM     23  C   UNL     1       3.152   4.951  20.035  0.00  0.00    +0.000 C 
ATOM     24  C   UNL     1       3.602   3.717  19.227  0.00  0.00    +0.000 C 
ATOM     25  C   UNL     1       2.451   3.045  18.475  0.00  0.00    +0.000 C 
ATOM     26  N   UNL     1       1.334   2.684  19.347  0.00  0.00    +0.000 NA
ATOM     27  C   UNL     1       0.836   3.848  20.082  0.00  0.00    +0.000 C 
ATOM     28  C   UNL     1       1.946   4.519  20.887  0.00  0.00    +0.000 C 
ATOM     29  H   UNL     1       1.629   1.973  20.015  0.00  0.00    +0.000 HD
ENDBRANCH   5  23
TORSDOF 3
ENDMDL
MODEL 4
REMARK VINA RESULT:      -7.0      4.222      7.423
REMARK  Name = 
REMARK  4 active torsions:
REMARK  status: ('A' for Active; 'I' for Inactive)
REMARK    1  A    between atoms: C_1  and  C_2
REMARK    2  A    between atoms: C_8  and  N_9
REMARK    3  A    between atoms: C_12  and  C_13
REMARK    4  A    between atoms: C_21  and  C_22
REMARK                            x       y       z     vdW  Elec       q    Type
REMARK                         _______ _______ _______ _____ _____    ______ ____
ROOT
ATOM      1  N   UNL     1      -0.599  11.288  19.620  0.00  0.00    +0.000 N 
ATOM      2  N   UNL     1      -0.232  12.405  20.298  0.00  0.00    +0.000 NA
ATOM      3  C   UNL     1      -1.343  12.978  20.707  0.00  0.00    +0.000 A 
ATOM      4  C   UNL     1      -2.486  12.372  20.183  0.00  0.00    +0.000 A 
ATOM      5  C   UNL     1      -2.014  11.286  19.415  0.00  0.00    +0.000 A 
ENDROOT
BRANCH   4   6
ATOM      6  C   UNL     1      -3.833  12.836  20.482  0.00  0.00    +0.000 C 
ATOM      7  O   UNL     1      -4.523  13.343  19.606  0.00  0.00    +0.000 OA
ATOM      8  N   UNL     1      -4.217  12.603  21.785  0.00  0.00    +0.000 N 
ATOM      9  C   UNL     1      -5.347  13.173  22.305  0.00  0.00    +0.000 A 
ATOM     10  N   UNL     1      -6.195  13.988  21.736  0.00  0.00    +0.000 NA
ATOM     11  C   UNL     1      -7.142  14.387  22.656  0.00  0.00    +0.000 A 
ATOM     12  C   UNL     1      -7.004  13.848  23.917  0.00  0.00    +0.000 A 
ATOM     13  S   UNL     1      -5.638  12.805  23.948  0.00  0.00    +0.000 S 
ATOM     14  H   UNL     1      -3.623  12.105  22.428  0.00  0.00    +0.000 HD
ENDBRANCH   4   6
BRANCH   1  22
ATOM     15  C   UNL     1      -0.016   9.048  21.570  0.00  0.00    +0.000 C 
ATOM     16  C   UNL     1       0.651   9.180  20.216  0.00  0.00    +0.000 A 
ATOM     17  C   UNL     1       1.499   8.133  19.778  0.00  0.00    +0.000 A 
ATOM     18 CL   UNL     1       1.694   6.650  20.655  0.00  0.00    +0.000 Cl
ATOM     19  C   UNL     1       2.215   8.235  18.587  0.00  0.00    +0.000 A 
ATOM     20  C   UNL     1       2.105   9.383  17.817  0.00  0.00    +0.000 A 
ATOM     21  C   UNL     1       1.233  10.408  18.194  0.00  0.00    +0.000 A 
ATOM     22  C   UNL     1       0.462  10.324  19.364  0.00  0.00    +0.000 A 
ENDBRANCH   1  22
BRANCH   5  23
ATOM     23  C   UNL     1      -2.763  10.278  18.528  0.00  0.00    +0.000 C 
ATOM     24  C   UNL     1      -2.023   9.934  17.220  0.00  0.00    +0.000 C 
ATOM     25  C   UNL     1      -2.228  10.982  16.124  0.00  0.00    +0.000 C 
ATOM     26  N   UNL     1      -3.639  11.240  15.840  0.00  0.00    +0.000 NA
ATOM     27  C   UNL     1      -4.361  11.637  17.050  0.00  0.00    +0.000 C 
ATOM     28  C   UNL     1      -4.222  10.590  18.153  0.00  0.00    +0.000 C 
ATOM     29  H   UNL     1      -4.075  10.403  15.453  0.00  0.00    +0.000 HD
ENDBRANCH   5  23
TORSDOF 3
ENDMDL
MODEL 5
REMARK VINA RESULT:      -6.9      4.471      9.304
REMARK  Name = 
REMARK  4 active torsions:
REMARK  status: ('A' for Active; 'I' for Inactive)
REMARK    1  A    between atoms: C_1  and  C_2
REMARK    2  A    between atoms: C_8  and  N_9
REMARK    3  A    between atoms: C_12  and  C_13
REMARK    4  A    between atoms: C_21  and  C_22
REMARK                            x       y       z     vdW  Elec       q    Type
REMARK                         _______ _______ _______ _____ _____    ______ ____
ROOT
ATOM      1  N   UNL     1       3.965   6.093  18.306  0.00  0.00    +0.000 N 
ATOM      2  N   UNL     1       3.555   7.185  17.611  0.00  0.00    +0.000 NA
ATOM      3  C   UNL     1       2.734   7.846  18.399  0.00  0.00    +0.000 A 
ATOM      4  C   UNL     1       2.432   7.147  19.568  0.00  0.00    +0.000 A 
ATOM      5  C   UNL     1       3.191   5.959  19.501  0.00  0.00    +0.000 A 
ENDROOT
BRANCH   4   6
ATOM      6  C   UNL     1       1.536   7.670  20.590  0.00  0.00    +0.000 C 
ATOM      7  O   UNL     1       0.902   6.906  21.309  0.00  0.00    +0.000 OA
ATOM      8  N   UNL     1       1.532   9.046  20.665  0.00  0.00    +0.000 N 
ATOM      9  C   UNL     1       0.589   9.714  21.397  0.00  0.00    +0.000 A 
ATOM     10  N   UNL     1      -0.410   9.233  22.089  0.00  0.00    +0.000 NA
ATOM     11  C   UNL     1      -1.163  10.272  22.597  0.00  0.00    +0.000 A 
ATOM     12  C   UNL     1      -0.707  11.536  22.293  0.00  0.00    +0.000 A 
ATOM     13  S   UNL     1       0.716  11.417  21.336  0.00  0.00    +0.000 S 
ATOM     14  H   UNL     1       2.144   9.606  20.094  0.00  0.00    +0.000 HD
ENDBRANCH   4   6
BRANCH   1  22
ATOM     15  C   UNL     1       3.717   4.257  15.913  0.00  0.00    +0.000 C 
ATOM     16  C   UNL     1       5.039   4.635  16.551  0.00  0.00    +0.000 A 
ATOM     17  C   UNL     1       6.235   4.214  15.920  0.00  0.00    +0.000 A 
ATOM     18 CL   UNL     1       6.257   3.411  14.383  0.00  0.00    +0.000 Cl
ATOM     19  C   UNL     1       7.478   4.447  16.503  0.00  0.00    +0.000 A 
ATOM     20  C   UNL     1       7.551   5.097  17.727  0.00  0.00    +0.000 A 
ATOM     21  C   UNL     1       6.392   5.574  18.344  0.00  0.00    +0.000 A 
ATOM     22  C   UNL     1       5.125   5.397  17.768  0.00  0.00    +0.000 A 
ENDBRANCH   1  22
BRANCH   5  23
ATOM     23  C   UNL     1       3.244   4.743  20.440  0.00  0.00    +0.000 C 
ATOM     24  C   UNL     1       3.811   3.472  19.776  0.00  0.00    +0.000 C 
ATOM     25  C   UNL     1       2.771   2.723  18.939  0.00  0.00    +0.000 C 
ATOM     26  N   UNL     1       1.564   2.390  19.694  0.00  0.00    +0.000 NA
ATOM     27  C   UNL     1       0.960   3.586  20.284  0.00  0.00    +0.000 C 
ATOM     28  C   UNL     1       1.953   4.335  21.169  0.00  0.00    +0.000 C 
ATOM     29  H   UNL     1       1.790   1.731  20.439  0.00  0.00    +0.000 HD
ENDBRANCH   5  23
TORSDOF 3
ENDMDL
MODEL 6
REMARK VINA RESULT:      -6.9      1.088      1.716
REMARK  Name = 
REMARK  4 active torsions:
REMARK  status: ('A' for Active; 'I' for Inactive)
REMARK    1  A    between atoms: C_1  and  C_2
REMARK    2  A    between atoms: C_8  and  N_9
REMARK    3  A    between atoms: C_12  and  C_13
REMARK    4  A    between atoms: C_21  and  C_22
REMARK                            x       y       z     vdW  Elec       q    Type
REMARK                         _______ _______ _______ _____ _____    ______ ____
ROOT
ATOM      1  N   UNL     1       0.023  11.275  21.643  0.00  0.00    +0.000 N 
ATOM      2  N   UNL     1       0.316  10.429  22.663  0.00  0.00    +0.000 NA
ATOM      3  C   UNL     1       0.958   9.410  22.134  0.00  0.00    +0.000 A 
ATOM      4  C   UNL     1       0.971   9.449  20.739  0.00  0.00    +0.000 A 
ATOM      5  C   UNL     1       0.309  10.645  20.391  0.00  0.00    +0.000 A 
ENDROOT
BRANCH   4   6
ATOM      6  C   UNL     1       1.612   8.424  19.928  0.00  0.00    +0.000 C 
ATOM      7  O   UNL     1       1.995   8.680  18.793  0.00  0.00    +0.000 OA
ATOM      8  N   UNL     1       1.761   7.219  20.581  0.00  0.00    +0.000 N 
ATOM      9  C   UNL     1       2.125   6.086  19.907  0.00  0.00    +0.000 A 
ATOM     10  N   UNL     1       2.363   5.926  18.632  0.00  0.00    +0.000 NA
ATOM     11  C   UNL     1       2.612   4.595  18.371  0.00  0.00    +0.000 A 
ATOM     12  C   UNL     1       2.575   3.761  19.468  0.00  0.00    +0.000 A 
ATOM     13  S   UNL     1       2.215   4.680  20.875  0.00  0.00    +0.000 S 
ATOM     14  H   UNL     1       1.494   7.108  21.546  0.00  0.00    +0.000 HD
ENDBRANCH   4   6
BRANCH   1  22
ATOM     15  C   UNL     1       1.800  13.667  21.119  0.00  0.00    +0.000 C 
ATOM     16  C   UNL     1       0.388  13.770  21.659  0.00  0.00    +0.000 A 
ATOM     17  C   UNL     1      -0.184  15.057  21.809  0.00  0.00    +0.000 A 
ATOM     18 CL   UNL     1       0.603  16.506  21.269  0.00  0.00    +0.000 Cl
ATOM     19  C   UNL     1      -1.439  15.226  22.387  0.00  0.00    +0.000 A 
ATOM     20  C   UNL     1      -2.144  14.118  22.833  0.00  0.00    +0.000 A 
ATOM     21  C   UNL     1      -1.630  12.831  22.647  0.00  0.00    +0.000 A 
ATOM     22  C   UNL     1      -0.388  12.617  22.030  0.00  0.00    +0.000 A 
ENDBRANCH   1  22
BRANCH   5  23
ATOM     23  C   UNL     1      -0.069  11.226  19.019  0.00  0.00    +0.000 C 
ATOM     24  C   UNL     1      -1.068  12.398  19.096  0.00  0.00    +0.000 C 
ATOM     25  C   UNL     1      -2.519  11.936  19.249  0.00  0.00    +0.000 C 
ATOM     26  N   UNL     1      -2.933  11.001  18.203  0.00  0.00    +0.000 NA
ATOM     27  C   UNL     1      -2.044   9.840  18.146  0.00  0.00    +0.000 C 
ATOM     28  C   UNL     1      -0.590  10.258  17.943  0.00  0.00    +0.000 C 
ATOM     29  H   UNL     1      -2.926  11.468  17.296  0.00  0.00    +0.000 HD
ENDBRANCH   5  23
TORSDOF 3
ENDMDL
MODEL 7
REMARK VINA RESULT:      -6.7      3.665      7.506
REMARK  Name = 
REMARK  4 active torsions:
REMARK  status: ('A' for Active; 'I' for Inactive)
REMARK    1  A    between atoms: C_1  and  C_2
REMARK    2  A    between atoms: C_8  and  N_9
REMARK    3  A    between atoms: C_12  and  C_13
REMARK    4  A    between atoms: C_21  and  C_22
REMARK                            x       y       z     vdW  Elec       q    Type
REMARK                         _______ _______ _______ _____ _____    ______ ____
ROOT
ATOM      1  N   UNL     1       1.579   8.066  20.552  0.00  0.00    +0.000 N 
ATOM      2  N   UNL     1       1.914   8.109  21.867  0.00  0.00    +0.000 NA
ATOM      3  C   UNL     1       1.446   9.244  22.338  0.00  0.00    +0.000 A 
ATOM      4  C   UNL     1       0.936  10.072  21.337  0.00  0.00    +0.000 A 
ATOM      5  C   UNL     1       1.066   9.336  20.140  0.00  0.00    +0.000 A 
ENDROOT
BRANCH   4   6
ATOM      6  C   UNL     1       0.372  11.386  21.611  0.00  0.00    +0.000 C 
ATOM      7  O   UNL     1       0.993  12.401  21.320  0.00  0.00    +0.000 OA
ATOM      8  N   UNL     1      -0.890  11.337  22.164  0.00  0.00    +0.000 N 
ATOM      9  C   UNL     1      -1.474  12.454  22.698  0.00  0.00    +0.000 A 
ATOM     10  N   UNL     1      -0.996  13.665  22.801  0.00  0.00    +0.000 NA
ATOM     11  C   UNL     1      -1.891  14.459  23.488  0.00  0.00    +0.000 A 
ATOM     12  C   UNL     1      -3.053  13.833  23.885  0.00  0.00    +0.000 A 
ATOM     13  S   UNL     1      -3.021  12.191  23.377  0.00  0.00    +0.000 S 
ATOM     14  H   UNL     1      -1.372  10.464  22.299  0.00  0.00    +0.000 HD
ENDBRANCH   4   6
BRANCH   1  22
ATOM     15  C   UNL     1       3.210   7.714  18.028  0.00  0.00    +0.000 C 
ATOM     16  C   UNL     1       2.582   6.565  18.792  0.00  0.00    +0.000 A 
ATOM     17  C   UNL     1       2.878   5.242  18.381  0.00  0.00    +0.000 A 
ATOM     18 CL   UNL     1       4.032   4.877  17.139  0.00  0.00    +0.000 Cl
ATOM     19  C   UNL     1       2.261   4.147  18.980  0.00  0.00    +0.000 A 
ATOM     20  C   UNL     1       1.334   4.349  19.991  0.00  0.00    +0.000 A 
ATOM     21  C   UNL     1       1.065   5.639  20.457  0.00  0.00    +0.000 A 
ATOM     22  C   UNL     1       1.698   6.766  19.909  0.00  0.00    +0.000 A 
ENDBRANCH   1  22
BRANCH   5  23
ATOM     23  C   UNL     1       0.759   9.719  18.683  0.00  0.00    +0.000 C 
ATOM     24  C   UNL     1       1.760  10.726  18.083  0.00  0.00    +0.000 C 
ATOM     25  C   UNL     1       1.460  12.173  18.479  0.00  0.00    +0.000 C 
ATOM     26  N   UNL     1       0.093  12.581  18.153  0.00  0.00    +0.000 NA
ATOM     27  C   UNL     1      -0.888  11.684  18.764  0.00  0.00    +0.000 C 
ATOM     28  C   UNL     1      -0.653  10.233  18.353  0.00  0.00    +0.000 C 
ATOM     29  H   UNL     1      -0.039  12.578  17.142  0.00  0.00    +0.000 HD
ENDBRANCH   5  23
TORSDOF 3
ENDMDL
MODEL 8
REMARK VINA RESULT:      -6.6      3.900      7.211
REMARK  Name = 
REMARK  4 active torsions:
REMARK  status: ('A' for Active; 'I' for Inactive)
REMARK    1  A    between atoms: C_1  and  C_2
REMARK    2  A    between atoms: C_8  and  N_9
REMARK    3  A    between atoms: C_12  and  C_13
REMARK    4  A    between atoms: C_21  and  C_22
REMARK                            x       y       z     vdW  Elec       q    Type
REMARK                         _______ _______ _______ _____ _____    ______ ____
ROOT
ATOM      1  N   UNL     1       0.636  10.816  19.418  0.00  0.00    +0.000 N 
ATOM      2  N   UNL     1       1.357  11.873  19.870  0.00  0.00    +0.000 NA
ATOM      3  C   UNL     1       0.493  12.740  20.351  0.00  0.00    +0.000 A 
ATOM      4  C   UNL     1      -0.830  12.381  20.090  0.00  0.00    +0.000 A 
ATOM      5  C   UNL     1      -0.757  11.139  19.423  0.00  0.00    +0.000 A 
ENDROOT
BRANCH   4   6
ATOM      6  C   UNL     1      -1.965  13.190  20.513  0.00  0.00    +0.000 C 
ATOM      7  O   UNL     1      -2.299  14.177  19.869  0.00  0.00    +0.000 OA
ATOM      8  N   UNL     1      -2.598  12.702  21.636  0.00  0.00    +0.000 N 
ATOM      9  C   UNL     1      -3.528  13.448  22.308  0.00  0.00    +0.000 A 
ATOM     10  N   UNL     1      -3.948  14.660  22.058  0.00  0.00    +0.000 NA
ATOM     11  C   UNL     1      -4.827  15.057  23.044  0.00  0.00    +0.000 A 
ATOM     12  C   UNL     1      -5.075  14.122  24.026  0.00  0.00    +0.000 A 
ATOM     13  S   UNL     1      -4.172  12.696  23.701  0.00  0.00    +0.000 S 
ATOM     14  H   UNL     1      -2.315  11.836  22.065  0.00  0.00    +0.000 HD
ENDBRANCH   4   6
BRANCH   1  22
ATOM     15  C   UNL     1       0.913   8.651  21.514  0.00  0.00    +0.000 C 
ATOM     16  C   UNL     1       1.410   8.511  20.089  0.00  0.00    +0.000 A 
ATOM     17  C   UNL     1       1.916   7.256  19.673  0.00  0.00    +0.000 A 
ATOM     18 CL   UNL     1       1.862   5.840  20.673  0.00  0.00    +0.000 Cl
ATOM     19  C   UNL     1       2.473   7.087  18.408  0.00  0.00    +0.000 A 
ATOM     20  C   UNL     1       2.543   8.166  17.539  0.00  0.00    +0.000 A 
ATOM     21  C   UNL     1       1.999   9.401  17.900  0.00  0.00    +0.000 A 
ATOM     22  C   UNL     1       1.391   9.600  19.150  0.00  0.00    +0.000 A 
ENDBRANCH   1  22
BRANCH   5  23
ATOM     23  C   UNL     1      -1.857  10.260  18.807  0.00  0.00    +0.000 C 
ATOM     24  C   UNL     1      -1.624   9.927  17.320  0.00  0.00    +0.000 C 
ATOM     25  C   UNL     1      -2.061  11.054  16.381  0.00  0.00    +0.000 C 
ATOM     26  N   UNL     1      -3.452  11.457  16.584  0.00  0.00    +0.000 NA
ATOM     27  C   UNL     1      -3.694  11.846  17.974  0.00  0.00    +0.000 C 
ATOM     28  C   UNL     1      -3.317  10.727  18.942  0.00  0.00    +0.000 C 
ATOM     29  H   UNL     1      -4.076  10.689  16.341  0.00  0.00    +0.000 HD
ENDBRANCH   5  23
TORSDOF 3
ENDMDL
MODEL 9
REMARK VINA RESULT:      -6.5      4.502      5.900
REMARK  Name = 
REMARK  4 active torsions:
REMARK  status: ('A' for Active; 'I' for Inactive)
REMARK    1  A    between atoms: C_1  and  C_2
REMARK    2  A    between atoms: C_8  and  N_9
REMARK    3  A    between atoms: C_12  and  C_13
REMARK    4  A    between atoms: C_21  and  C_22
REMARK                            x       y       z     vdW  Elec       q    Type
REMARK                         _______ _______ _______ _____ _____    ______ ____
ROOT
ATOM      1  N   UNL     1      -4.267  12.766  22.602  0.00  0.00    +0.000 N 
ATOM      2  N   UNL     1      -3.359  12.221  23.450  0.00  0.00    +0.000 NA
ATOM      3  C   UNL     1      -2.276  11.985  22.742  0.00  0.00    +0.000 A 
ATOM      4  C   UNL     1      -2.469  12.201  21.377  0.00  0.00    +0.000 A 
ATOM      5  C   UNL     1      -3.797  12.664  21.255  0.00  0.00    +0.000 A 
ENDROOT
BRANCH   4   6
ATOM      6  C   UNL     1      -1.419  11.997  20.390  0.00  0.00    +0.000 C 
ATOM      7  O   UNL     1      -1.247  10.893  19.885  0.00  0.00    +0.000 OA
ATOM      8  N   UNL     1      -0.719  13.145  20.086  0.00  0.00    +0.000 N 
ATOM      9  C   UNL     1       0.442  13.099  19.364  0.00  0.00    +0.000 A 
ATOM     10  N   UNL     1       1.071  12.060  18.880  0.00  0.00    +0.000 NA
ATOM     11  C   UNL     1       2.251  12.466  18.294  0.00  0.00    +0.000 A 
ATOM     12  C   UNL     1       2.492  13.823  18.328  0.00  0.00    +0.000 A 
ATOM     13  S   UNL     1       1.192  14.616  19.124  0.00  0.00    +0.000 S 
ATOM     14  H   UNL     1      -0.972  14.035  20.483  0.00  0.00    +0.000 HD
ENDBRANCH   4   6
BRANCH   1  22
ATOM     15  C   UNL     1      -4.440  15.779  22.821  0.00  0.00    +0.000 C 
ATOM     16  C   UNL     1      -5.565  14.841  23.209  0.00  0.00    +0.000 A 
ATOM     17  C   UNL     1      -6.814  15.402  23.574  0.00  0.00    +0.000 A 
ATOM     18 CL   UNL     1      -7.154  17.099  23.460  0.00  0.00    +0.000 Cl
ATOM     19  C   UNL     1      -7.858  14.601  24.031  0.00  0.00    +0.000 A 
ATOM     20  C   UNL     1      -7.675  13.231  24.140  0.00  0.00    +0.000 A 
ATOM     21  C   UNL     1      -6.474  12.643  23.733  0.00  0.00    +0.000 A 
ATOM     22  C   UNL     1      -5.413  13.411  23.227  0.00  0.00    +0.000 A 
ENDBRANCH   1  22
BRANCH   5  23
ATOM     23  C   UNL     1      -4.635  13.005  20.012  0.00  0.00    +0.000 C 
ATOM     24  C   UNL     1      -6.152  12.817  20.217  0.00  0.00    +0.000 C 
ATOM     25  C   UNL     1      -6.599  11.362  20.064  0.00  0.00    +0.000 C 
ATOM     26  N   UNL     1      -6.197  10.774  18.787  0.00  0.00    +0.000 NA
ATOM     27  C   UNL     1      -4.750  10.874  18.588  0.00  0.00    +0.000 C 
ATOM     28  C   UNL     1      -4.271  12.320  18.684  0.00  0.00    +0.000 C 
ATOM     29  H   UNL     1      -6.670  11.250  18.020  0.00  0.00    +0.000 HD
ENDBRANCH   5  23
TORSDOF 3
ENDMDL
