MODEL 1
REMARK VINA RESULT:      -7.8      0.000      0.000
REMARK  Name = 
REMARK  14 active torsions:
REMARK  status: ('A' for Active; 'I' for Inactive)
REMARK    1  A    between atoms: C_1  and  N_2
REMARK    2  A    between atoms: N_2  and  C_3
REMARK    3  A    between atoms: N_2  and  C_4
REMARK    4  A    between atoms: C_4  and  C_5
REMARK    5  A    between atoms: C_5  and  C_6
REMARK    6  A    between atoms: C_5  and  O_7
REMARK    7  A    between atoms: C_5  and  C_8
REMARK    8  A    between atoms: C_8  and  N_9
REMARK    9  A    between atoms: N_9  and  C_10
REMARK   10  A    between atoms: C_12  and  N_13
REMARK   11  A    between atoms: C_22  and  C_23
REMARK   12  A    between atoms: C_23  and  O_24
REMARK   13  A    between atoms: CA_25  and  C_26
REMARK   14  A    between atoms: C_32  and  C_33
REMARK                            x       y       z     vdW  Elec       q    Type
REMARK                         _______ _______ _______ _____ _____    ______ ____
ROOT
ATOM      1  C   UNL     1       2.410   7.289  19.327  0.00  0.00    +0.000 A 
ATOM      2  C   UNL     1       1.509   8.177  19.929  0.00  0.00    +0.000 A 
ATOM      3  C   UNL     1       1.134   9.335  19.267  0.00  0.00    +0.000 A 
ATOM      4  N   UNL     1       1.576   9.668  18.044  0.00  0.00    +0.000 NA
ATOM      5  C   UNL     1       2.537   8.872  17.523  0.00  0.00    +0.000 A 
ATOM      6  C   UNL     1       2.982   7.694  18.111  0.00  0.00    +0.000 A 
ENDROOT
BRANCH   3   7
ATOM      7  N   UNL     1       0.067  10.059  19.781  0.00  0.00    +0.000 N 
ATOM      8  C   UNL     1       0.229  10.936  20.831  0.00  0.00    +0.000 C 
ATOM      9  O   UNL     1       1.245  10.973  21.525  0.00  0.00    +0.000 OA
ATOM     10  N   UNL     1      -0.888  11.754  21.086  0.00  0.00    +0.000 N 
ATOM     11  C   UNL     1      -0.825  12.675  22.215  0.00  0.00    +0.000 C 
ATOM     12  C   UNL     1      -2.156  12.770  22.941  0.00  0.00    +0.000 C 
ATOM     13  C   UNL     1      -3.236  13.248  21.982  0.00  0.00    +0.000 C 
ATOM     14  C   UNL     1      -3.174  12.532  20.662  0.00  0.00    +0.000 A 
ATOM     15  C   UNL     1      -4.279  12.581  19.794  0.00  0.00    +0.000 A 
ATOM     16  C   UNL     1      -4.252  11.931  18.554  0.00  0.00    +0.000 A 
ATOM     17  CA  UNL     1      -3.076  11.269  18.232  0.00  0.00    +0.000 A 
ATOM     18  N   UNL     1      -1.992  11.228  19.042  0.00  0.00    +0.000 NA
ATOM     19  C   UNL     1      -2.040  11.834  20.248  0.00  0.00    +0.000 A 
ATOM     20  H   UNL     1      -0.448  10.529  19.048  0.00  0.00    +0.000 HD
BRANCH  17  21
ATOM     21  C   UNL     1      -2.857  10.522  16.965  0.00  0.00    +0.000 C 
ATOM     22  O   UNL     1      -2.559  11.052  15.897  0.00  0.00    +0.000 OA
ENDBRANCH  17  21
BRANCH  16  23
ATOM     23  C   UNL     1      -5.443  11.971  17.645  0.00  0.00    +0.000 C 
BRANCH  23  24
ATOM     24  O   UNL     1      -5.917  13.304  17.531  0.00  0.00    +0.000 OA
ATOM     25  H   UNL     1      -5.111  13.860  17.447  0.00  0.00    +0.000 HD
ENDBRANCH  23  24
ENDBRANCH  16  23
ENDBRANCH   3   7
BRANCH   1  26
ATOM     26  N   UNL     1       2.799   6.095  19.955  0.00  0.00    +0.000 N 
ATOM     27  H   UNL     1       3.204   5.413  19.308  0.00  0.00    +0.000 HD
BRANCH  26  28
ATOM     28  C   UNL     1       1.844   5.423  20.852  0.00  0.00    +0.000 C 
BRANCH  28  29
ATOM     29  C   UNL     1       1.966   3.889  20.736  0.00  0.00    +0.000 C 
ATOM     30  C   UNL     1       0.638   3.278  20.258  0.00  0.00    +0.000 C 
BRANCH  29  31
ATOM     31  O   UNL     1       2.231   3.346  22.043  0.00  0.00    +0.000 OA
ATOM     32  H   UNL     1       2.799   2.564  21.937  0.00  0.00    +0.000 HD
ENDBRANCH  29  31
BRANCH  29  33
ATOM     33  C   UNL     1       3.101   3.529  19.720  0.00  0.00    +0.000 C 
BRANCH  33  35
ATOM     34  C   UNL     1       2.841   3.358  17.293  0.00  0.00    +0.000 C 
ATOM     35  N   UNL     1       2.736   2.658  18.575  0.00  0.00    +0.000 NA
ATOM     36  C   UNL     1       3.592   1.465  18.549  0.00  0.00    +0.000 C 
ENDBRANCH  33  35
ENDBRANCH  29  33
ENDBRANCH  28  29
ENDBRANCH  26  28
ENDBRANCH   1  26
BRANCH   6  37
ATOM     37  C   UNL     1       3.998   6.937  17.445  0.00  0.00    +0.000 C 
ATOM     38  N   UNL     1       4.794   6.298  16.899  0.00  0.00    +0.000 NA
ENDBRANCH   6  37
TORSDOF 11
ENDMDL
MODEL 2
REMARK VINA RESULT:      -7.5      1.919      9.465
REMARK  Name = 
REMARK  14 active torsions:
REMARK  status: ('A' for Active; 'I' for Inactive)
REMARK    1  A    between atoms: C_1  and  N_2
REMARK    2  A    between atoms: N_2  and  C_3
REMARK    3  A    between atoms: N_2  and  C_4
REMARK    4  A    between atoms: C_4  and  C_5
REMARK    5  A    between atoms: C_5  and  C_6
REMARK    6  A    between atoms: C_5  and  O_7
REMARK    7  A    between atoms: C_5  and  C_8
REMARK    8  A    between atoms: C_8  and  N_9
REMARK    9  A    between atoms: N_9  and  C_10
REMARK   10  A    between atoms: C_12  and  N_13
REMARK   11  A    between atoms: C_22  and  C_23
REMARK   12  A    between atoms: C_23  and  O_24
REMARK   13  A    between atoms: CA_25  and  C_26
REMARK   14  A    between atoms: C_32  and  C_33
REMARK                            x       y       z     vdW  Elec       q    Type
REMARK                         _______ _______ _______ _____ _____    ______ ____
ROOT
ATOM      1  C   UNL     1      -0.400   9.994  19.575  0.00  0.00    +0.000 A 
ATOM      2  C   UNL     1       0.469   9.216  18.799  0.00  0.00    +0.000 A 
ATOM      3  C   UNL     1       1.479   8.490  19.409  0.00  0.00    +0.000 A 
ATOM      4  N   UNL     1       1.680   8.467  20.736  0.00  0.00    +0.000 NA
ATOM      5  C   UNL     1       0.920   9.314  21.466  0.00  0.00    +0.000 A 
ATOM      6  C   UNL     1      -0.113  10.085  20.947  0.00  0.00    +0.000 A 
ENDROOT
BRANCH   3   7
ATOM      7  N   UNL     1       2.156   7.552  18.643  0.00  0.00    +0.000 N 
ATOM      8  C   UNL     1       3.227   7.904  17.851  0.00  0.00    +0.000 C 
ATOM      9  O   UNL     1       3.513   9.071  17.587  0.00  0.00    +0.000 OA
ATOM     10  N   UNL     1       3.943   6.814  17.318  0.00  0.00    +0.000 N 
ATOM     11  C   UNL     1       5.061   7.095  16.424  0.00  0.00    +0.000 C 
ATOM     12  C   UNL     1       5.134   6.094  15.282  0.00  0.00    +0.000 C 
ATOM     13  C   UNL     1       5.294   4.686  15.836  0.00  0.00    +0.000 C 
ATOM     14  C   UNL     1       4.355   4.421  16.980  0.00  0.00    +0.000 A 
ATOM     15  C   UNL     1       4.111   3.097  17.383  0.00  0.00    +0.000 A 
ATOM     16  C   UNL     1       3.247   2.814  18.448  0.00  0.00    +0.000 A 
ATOM     17  CA  UNL     1       2.679   3.908  19.086  0.00  0.00    +0.000 A 
ATOM     18  N   UNL     1       2.917   5.192  18.729  0.00  0.00    +0.000 NA
ATOM     19  C   UNL     1       3.729   5.451  17.682  0.00  0.00    +0.000 A 
ATOM     20  H   UNL     1       2.417   6.744  19.193  0.00  0.00    +0.000 HD
BRANCH  17  21
ATOM     21  C   UNL     1       1.739   3.811  20.233  0.00  0.00    +0.000 C 
ATOM     22  O   UNL     1       1.982   4.235  21.361  0.00  0.00    +0.000 OA
ENDBRANCH  17  21
BRANCH  16  23
ATOM     23  C   UNL     1       2.977   1.398  18.857  0.00  0.00    +0.000 C 
BRANCH  23  24
ATOM     24  O   UNL     1       4.080   0.577  18.507  0.00  0.00    +0.000 OA
ATOM     25  H   UNL     1       4.313   0.089  19.327  0.00  0.00    +0.000 HD
ENDBRANCH  23  24
ENDBRANCH  16  23
ENDBRANCH   3   7
BRANCH   1  26
ATOM     26  N   UNL     1      -1.448  10.728  18.998  0.00  0.00    +0.000 N 
ATOM     27  H   UNL     1      -2.032  11.207  19.689  0.00  0.00    +0.000 HD
BRANCH  26  28
ATOM     28  C   UNL     1      -2.303  10.070  17.995  0.00  0.00    +0.000 C 
BRANCH  28  29
ATOM     29  C   UNL     1      -2.737  11.070  16.902  0.00  0.00    +0.000 C 
ATOM     30  C   UNL     1      -2.668  10.414  15.514  0.00  0.00    +0.000 C 
BRANCH  29  31
ATOM     31  O   UNL     1      -1.812  12.174  16.891  0.00  0.00    +0.000 OA
ATOM     32  H   UNL     1      -2.002  12.721  16.110  0.00  0.00    +0.000 HD
ENDBRANCH  29  31
BRANCH  29  33
ATOM     33  C   UNL     1      -4.202  11.548  17.181  0.00  0.00    +0.000 C 
BRANCH  33  35
ATOM     34  C   UNL     1      -4.701  12.421  19.411  0.00  0.00    +0.000 C 
ATOM     35  N   UNL     1      -4.767  11.259  18.522  0.00  0.00    +0.000 NA
ATOM     36  C   UNL     1      -6.161  10.816  18.403  0.00  0.00    +0.000 C 
ENDBRANCH  33  35
ENDBRANCH  29  33
ENDBRANCH  28  29
ENDBRANCH  26  28
ENDBRANCH   1  26
BRANCH   6  37
ATOM     37  C   UNL     1      -0.850  10.932  21.835  0.00  0.00    +0.000 C 
ATOM     38  N   UNL     1      -1.476  11.613  22.531  0.00  0.00    +0.000 NA
ENDBRANCH   6  37
TORSDOF 11
ENDMDL
MODEL 3
REMARK VINA RESULT:      -7.4      1.017      1.080
REMARK  Name = 
REMARK  14 active torsions:
REMARK  status: ('A' for Active; 'I' for Inactive)
REMARK    1  A    between atoms: C_1  and  N_2
REMARK    2  A    between atoms: N_2  and  C_3
REMARK    3  A    between atoms: N_2  and  C_4
REMARK    4  A    between atoms: C_4  and  C_5
REMARK    5  A    between atoms: C_5  and  C_6
REMARK    6  A    between atoms: C_5  and  O_7
REMARK    7  A    between atoms: C_5  and  C_8
REMARK    8  A    between atoms: C_8  and  N_9
REMARK    9  A    between atoms: N_9  and  C_10
REMARK   10  A    between atoms: C_12  and  N_13
REMARK   11  A    between atoms: C_22  and  C_23
REMARK   12  A    between atoms: C_23  and  O_24
REMARK   13  A    between atoms: CA_25  and  C_26
REMARK   14  A    between atoms: C_32  and  C_33
REMARK                            x       y       z     vdW  Elec       q    Type
REMARK                         _______ _______ _______ _____ _____    ______ ____
ROOT
ATOM      1  C   UNL     1       2.052   7.656  19.625  0.00  0.00    +0.000 A 
ATOM      2  C   UNL     1       1.246   8.620  20.244  0.00  0.00    +0.000 A 
ATOM      3  C   UNL     1       0.893   9.771  19.557  0.00  0.00    +0.000 A 
ATOM      4  N   UNL     1       1.268  10.027  18.294  0.00  0.00    +0.000 NA
ATOM      5  C   UNL     1       2.144   9.154  17.747  0.00  0.00    +0.000 A 
ATOM      6  C   UNL     1       2.561   7.977  18.356  0.00  0.00    +0.000 A 
ENDROOT
BRANCH   3   7
ATOM      7  N   UNL     1      -0.093  10.577  20.109  0.00  0.00    +0.000 N 
ATOM      8  C   UNL     1       0.212  11.587  20.994  0.00  0.00    +0.000 C 
ATOM      9  O   UNL     1       1.314  11.702  21.530  0.00  0.00    +0.000 OA
ATOM     10  N   UNL     1      -0.861  12.452  21.285  0.00  0.00    +0.000 N 
ATOM     11  C   UNL     1      -0.642  13.519  22.256  0.00  0.00    +0.000 C 
ATOM     12  C   UNL     1      -1.860  13.736  23.138  0.00  0.00    +0.000 C 
ATOM     13  C   UNL     1      -3.064  14.097  22.280  0.00  0.00    +0.000 C 
ATOM     14  C   UNL     1      -3.185  13.205  21.075  0.00  0.00    +0.000 A 
ATOM     15  C   UNL     1      -4.399  13.154  20.370  0.00  0.00    +0.000 A 
ATOM     16  C   UNL     1      -4.544  12.339  19.241  0.00  0.00    +0.000 A 
ATOM     17  CA  UNL     1      -3.423  11.618  18.854  0.00  0.00    +0.000 A 
ATOM     18  N   UNL     1      -2.237  11.670  19.505  0.00  0.00    +0.000 NA
ATOM     19  C   UNL     1      -2.117  12.437  20.610  0.00  0.00    +0.000 A 
ATOM     20  H   UNL     1      -0.706  10.951  19.395  0.00  0.00    +0.000 HD
BRANCH  17  21
ATOM     21  C   UNL     1      -3.381  10.701  17.685  0.00  0.00    +0.000 C 
ATOM     22  O   UNL     1      -2.612   9.747  17.586  0.00  0.00    +0.000 OA
ENDBRANCH  17  21
BRANCH  16  23
ATOM     23  C   UNL     1      -5.850  12.275  18.508  0.00  0.00    +0.000 C 
BRANCH  23  24
ATOM     24  O   UNL     1      -6.009  13.435  17.706  0.00  0.00    +0.000 OA
ATOM     25  H   UNL     1      -5.198  13.969  17.856  0.00  0.00    +0.000 HD
ENDBRANCH  23  24
ENDBRANCH  16  23
ENDBRANCH   3   7
BRANCH   1  26
ATOM     26  N   UNL     1       2.415   6.468  20.278  0.00  0.00    +0.000 N 
ATOM     27  H   UNL     1       3.179   5.970  19.812  0.00  0.00    +0.000 HD
BRANCH  26  28
ATOM     28  C   UNL     1       1.357   5.515  20.654  0.00  0.00    +0.000 C 
BRANCH  28  29
ATOM     29  C   UNL     1       1.598   4.139  19.999  0.00  0.00    +0.000 C 
ATOM     30  C   UNL     1       1.350   4.213  18.483  0.00  0.00    +0.000 C 
BRANCH  29  31
ATOM     31  O   UNL     1       0.646   3.199  20.533  0.00  0.00    +0.000 OA
ATOM     32  H   UNL     1       0.895   3.006  21.454  0.00  0.00    +0.000 HD
ENDBRANCH  29  31
BRANCH  29  33
ATOM     33  C   UNL     1       3.072   3.682  20.265  0.00  0.00    +0.000 C 
BRANCH  33  35
ATOM     34  C   UNL     1       5.186   3.876  19.049  0.00  0.00    +0.000 C 
ATOM     35  N   UNL     1       3.868   3.241  19.093  0.00  0.00    +0.000 NA
ATOM     36  C   UNL     1       4.031   1.782  19.108  0.00  0.00    +0.000 C 
ENDBRANCH  33  35
ENDBRANCH  29  33
ENDBRANCH  28  29
ENDBRANCH  26  28
ENDBRANCH   1  26
BRANCH   6  37
ATOM     37  C   UNL     1       3.484   7.134  17.659  0.00  0.00    +0.000 C 
ATOM     38  N   UNL     1       4.259   6.477  17.102  0.00  0.00    +0.000 NA
ENDBRANCH   6  37
TORSDOF 11
ENDMDL
MODEL 4
REMARK VINA RESULT:      -7.3      1.236      1.430
REMARK  Name = 
REMARK  14 active torsions:
REMARK  status: ('A' for Active; 'I' for Inactive)
REMARK    1  A    between atoms: C_1  and  N_2
REMARK    2  A    between atoms: N_2  and  C_3
REMARK    3  A    between atoms: N_2  and  C_4
REMARK    4  A    between atoms: C_4  and  C_5
REMARK    5  A    between atoms: C_5  and  C_6
REMARK    6  A    between atoms: C_5  and  O_7
REMARK    7  A    between atoms: C_5  and  C_8
REMARK    8  A    between atoms: C_8  and  N_9
REMARK    9  A    between atoms: N_9  and  C_10
REMARK   10  A    between atoms: C_12  and  N_13
REMARK   11  A    between atoms: C_22  and  C_23
REMARK   12  A    between atoms: C_23  and  O_24
REMARK   13  A    between atoms: CA_25  and  C_26
REMARK   14  A    between atoms: C_32  and  C_33
REMARK                            x       y       z     vdW  Elec       q    Type
REMARK                         _______ _______ _______ _____ _____    ______ ____
ROOT
ATOM      1  C   UNL     1       1.695   8.005  19.882  0.00  0.00    +0.000 A 
ATOM      2  C   UNL     1       0.789   8.956  20.367  0.00  0.00    +0.000 A 
ATOM      3  C   UNL     1       0.363   9.987  19.546  0.00  0.00    +0.000 A 
ATOM      4  N   UNL     1       0.758  10.134  18.271  0.00  0.00    +0.000 NA
ATOM      5  C   UNL     1       1.724   9.287  17.849  0.00  0.00    +0.000 A 
ATOM      6  C   UNL     1       2.219   8.227  18.598  0.00  0.00    +0.000 A 
ENDROOT
BRANCH   3   7
ATOM      7  N   UNL     1      -0.707  10.759  19.977  0.00  0.00    +0.000 N 
ATOM      8  C   UNL     1      -0.529  11.833  20.821  0.00  0.00    +0.000 C 
ATOM      9  O   UNL     1       0.521  12.047  21.425  0.00  0.00    +0.000 OA
ATOM     10  N   UNL     1      -1.670  12.643  20.983  0.00  0.00    +0.000 N 
ATOM     11  C   UNL     1      -1.587  13.774  21.901  0.00  0.00    +0.000 C 
ATOM     12  C   UNL     1      -2.877  13.962  22.681  0.00  0.00    +0.000 C 
ATOM     13  C   UNL     1      -4.034  14.198  21.720  0.00  0.00    +0.000 C 
ATOM     14  C   UNL     1      -4.012  13.235  20.566  0.00  0.00    +0.000 A 
ATOM     15  C   UNL     1      -5.166  13.069  19.781  0.00  0.00    +0.000 A 
ATOM     16  C   UNL     1      -5.179  12.185  18.695  0.00  0.00    +0.000 A 
ATOM     17  CA  UNL     1      -3.992  11.516  18.432  0.00  0.00    +0.000 A 
ATOM     18  N   UNL     1      -2.862  11.679  19.161  0.00  0.00    +0.000 NA
ATOM     19  C   UNL     1      -2.870  12.512  20.223  0.00  0.00    +0.000 A 
ATOM     20  H   UNL     1      -1.287  11.053  19.202  0.00  0.00    +0.000 HD
BRANCH  17  21
ATOM     21  C   UNL     1      -3.809  10.540  17.326  0.00  0.00    +0.000 C 
ATOM     22  O   UNL     1      -2.980   9.633  17.338  0.00  0.00    +0.000 OA
ENDBRANCH  17  21
BRANCH  16  23
ATOM     23  C   UNL     1      -6.421  11.998  17.877  0.00  0.00    +0.000 C 
BRANCH  23  24
ATOM     24  O   UNL     1      -7.198  10.940  18.417  0.00  0.00    +0.000 OA
ATOM     25  H   UNL     1      -7.166  10.224  17.745  0.00  0.00    +0.000 HD
ENDBRANCH  23  24
ENDBRANCH  16  23
ENDBRANCH   3   7
BRANCH   1  26
ATOM     26  N   UNL     1       2.136   6.934  20.675  0.00  0.00    +0.000 N 
ATOM     27  H   UNL     1       3.141   6.755  20.587  0.00  0.00    +0.000 HD
BRANCH  26  28
ATOM     28  C   UNL     1       1.398   5.661  20.618  0.00  0.00    +0.000 C 
BRANCH  28  29
ATOM     29  C   UNL     1       2.366   4.470  20.460  0.00  0.00    +0.000 C 
ATOM     30  C   UNL     1       2.322   3.571  21.706  0.00  0.00    +0.000 C 
BRANCH  29  31
ATOM     31  O   UNL     1       3.711   4.977  20.356  0.00  0.00    +0.000 OA
ATOM     32  H   UNL     1       3.686   5.935  20.521  0.00  0.00    +0.000 HD
ENDBRANCH  29  31
BRANCH  29  33
ATOM     33  C   UNL     1       1.966   3.632  19.199  0.00  0.00    +0.000 C 
BRANCH  33  35
ATOM     34  C   UNL     1       3.290   1.703  18.483  0.00  0.00    +0.000 C 
ATOM     35  N   UNL     1       3.066   3.142  18.332  0.00  0.00    +0.000 NA
ATOM     36  C   UNL     1       2.779   3.445  16.924  0.00  0.00    +0.000 C 
ENDBRANCH  33  35
ENDBRANCH  29  33
ENDBRANCH  28  29
ENDBRANCH  26  28
ENDBRANCH   1  26
BRANCH   6  37
ATOM     37  C   UNL     1       3.234   7.397  18.024  0.00  0.00    +0.000 C 
ATOM     38  N   UNL     1       4.045   6.738  17.525  0.00  0.00    +0.000 NA
ENDBRANCH   6  37
TORSDOF 11
ENDMDL
MODEL 5
REMARK VINA RESULT:      -7.3      2.536      9.530
REMARK  Name = 
REMARK  14 active torsions:
REMARK  status: ('A' for Active; 'I' for Inactive)
REMARK    1  A    between atoms: C_1  and  N_2
REMARK    2  A    between atoms: N_2  and  C_3
REMARK    3  A    between atoms: N_2  and  C_4
REMARK    4  A    between atoms: C_4  and  C_5
REMARK    5  A    between atoms: C_5  and  C_6
REMARK    6  A    between atoms: C_5  and  O_7
REMARK    7  A    between atoms: C_5  and  C_8
REMARK    8  A    between atoms: C_8  and  N_9
REMARK    9  A    between atoms: N_9  and  C_10
REMARK   10  A    between atoms: C_12  and  N_13
REMARK   11  A    between atoms: C_22  and  C_23
REMARK   12  A    between atoms: C_23  and  O_24
REMARK   13  A    between atoms: CA_25  and  C_26
REMARK   14  A    between atoms: C_32  and  C_33
REMARK                            x       y       z     vdW  Elec       q    Type
REMARK                         _______ _______ _______ _____ _____    ______ ____
ROOT
ATOM      1  C   UNL     1       0.633   9.734  19.763  0.00  0.00    +0.000 A 
ATOM      2  C   UNL     1       1.324   8.606  19.303  0.00  0.00    +0.000 A 
ATOM      3  C   UNL     1       1.965   7.773  20.205  0.00  0.00    +0.000 A 
ATOM      4  N   UNL     1       1.956   7.968  21.534  0.00  0.00    +0.000 NA
ATOM      5  C   UNL     1       1.394   9.122  21.959  0.00  0.00    +0.000 A 
ATOM      6  C   UNL     1       0.733  10.023  21.133  0.00  0.00    +0.000 A 
ENDROOT
BRANCH   3   7
ATOM      7  N   UNL     1       2.425   6.548  19.742  0.00  0.00    +0.000 N 
ATOM      8  C   UNL     1       1.661   5.406  19.837  0.00  0.00    +0.000 C 
ATOM      9  O   UNL     1       0.643   5.334  20.525  0.00  0.00    +0.000 OA
ATOM     10  N   UNL     1       2.168   4.303  19.124  0.00  0.00    +0.000 N 
ATOM     11  C   UNL     1       1.450   3.036  19.213  0.00  0.00    +0.000 C 
ATOM     12  C   UNL     1       2.401   1.852  19.266  0.00  0.00    +0.000 C 
ATOM     13  C   UNL     1       3.274   1.831  18.020  0.00  0.00    +0.000 C 
ATOM     14  C   UNL     1       3.821   3.193  17.693  0.00  0.00    +0.000 A 
ATOM     15  C   UNL     1       4.905   3.310  16.806  0.00  0.00    +0.000 A 
ATOM     16  C   UNL     1       5.436   4.562  16.476  0.00  0.00    +0.000 A 
ATOM     17  CA  UNL     1       4.815   5.663  17.049  0.00  0.00    +0.000 A 
ATOM     18  N   UNL     1       3.756   5.576  17.887  0.00  0.00    +0.000 NA
ATOM     19  C   UNL     1       3.271   4.361  18.222  0.00  0.00    +0.000 A 
ATOM     20  H   UNL     1       2.777   6.620  18.795  0.00  0.00    +0.000 HD
BRANCH  17  21
ATOM     21  C   UNL     1       5.234   7.072  16.819  0.00  0.00    +0.000 C 
ATOM     22  O   UNL     1       6.375   7.489  17.003  0.00  0.00    +0.000 OA
ENDBRANCH  17  21
BRANCH  16  23
ATOM     23  C   UNL     1       6.606   4.675  15.546  0.00  0.00    +0.000 C 
BRANCH  23  24
ATOM     24  O   UNL     1       7.814   4.659  16.290  0.00  0.00    +0.000 OA
ATOM     25  H   UNL     1       8.320   3.889  15.949  0.00  0.00    +0.000 HD
ENDBRANCH  23  24
ENDBRANCH  16  23
ENDBRANCH   3   7
BRANCH   1  26
ATOM     26  N   UNL     1      -0.045  10.593  18.883  0.00  0.00    +0.000 N 
ATOM     27  H   UNL     1       0.417  11.499  18.769  0.00  0.00    +0.000 HD
BRANCH  26  28
ATOM     28  C   UNL     1      -1.493  10.793  19.067  0.00  0.00    +0.000 C 
BRANCH  28  29
ATOM     29  C   UNL     1      -2.211  10.897  17.705  0.00  0.00    +0.000 C 
ATOM     30  C   UNL     1      -1.758   9.764  16.770  0.00  0.00    +0.000 C 
BRANCH  29  31
ATOM     31  O   UNL     1      -1.832  12.136  17.076  0.00  0.00    +0.000 OA
ATOM     32  H   UNL     1      -0.908  12.326  17.312  0.00  0.00    +0.000 HD
ENDBRANCH  29  31
BRANCH  29  33
ATOM     33  C   UNL     1      -3.759  10.808  17.920  0.00  0.00    +0.000 C 
BRANCH  33  35
ATOM     34  C   UNL     1      -5.657  12.159  17.170  0.00  0.00    +0.000 C 
ATOM     35  N   UNL     1      -4.499  12.087  18.064  0.00  0.00    +0.000 NA
ATOM     36  C   UNL     1      -4.944  12.264  19.452  0.00  0.00    +0.000 C 
ENDBRANCH  33  35
ENDBRANCH  29  33
ENDBRANCH  28  29
ENDBRANCH  26  28
ENDBRANCH   1  26
BRANCH   6  37
ATOM     37  C   UNL     1       0.171  11.203  21.717  0.00  0.00    +0.000 C 
ATOM     38  N   UNL     1      -0.254  12.160  22.212  0.00  0.00    +0.000 NA
ENDBRANCH   6  37
TORSDOF 11
ENDMDL
MODEL 6
REMARK VINA RESULT:      -7.3      2.513      9.317
REMARK  Name = 
REMARK  14 active torsions:
REMARK  status: ('A' for Active; 'I' for Inactive)
REMARK    1  A    between atoms: C_1  and  N_2
REMARK    2  A    between atoms: N_2  and  C_3
REMARK    3  A    between atoms: N_2  and  C_4
REMARK    4  A    between atoms: C_4  and  C_5
REMARK    5  A    between atoms: C_5  and  C_6
REMARK    6  A    between atoms: C_5  and  O_7
REMARK    7  A    between atoms: C_5  and  C_8
REMARK    8  A    between atoms: C_8  and  N_9
REMARK    9  A    between atoms: N_9  and  C_10
REMARK   10  A    between atoms: C_12  and  N_13
REMARK   11  A    between atoms: C_22  and  C_23
REMARK   12  A    between atoms: C_23  and  O_24
REMARK   13  A    between atoms: CA_25  and  C_26
REMARK   14  A    between atoms: C_32  and  C_33
REMARK                            x       y       z     vdW  Elec       q    Type
REMARK                         _______ _______ _______ _____ _____    ______ ____
ROOT
ATOM      1  C   UNL     1       0.111  10.119  18.626  0.00  0.00    +0.000 A 
ATOM      2  C   UNL     1       0.926   8.981  18.676  0.00  0.00    +0.000 A 
ATOM      3  C   UNL     1       1.620   8.678  19.837  0.00  0.00    +0.000 A 
ATOM      4  N   UNL     1       1.549   9.413  20.958  0.00  0.00    +0.000 NA
ATOM      5  C   UNL     1       0.861  10.573  20.864  0.00  0.00    +0.000 A 
ATOM      6  C   UNL     1       0.138  10.967  19.745  0.00  0.00    +0.000 A 
ENDROOT
BRANCH   3   7
ATOM      7  N   UNL     1       2.216   7.428  19.928  0.00  0.00    +0.000 N 
ATOM      8  C   UNL     1       1.567   6.359  20.506  0.00  0.00    +0.000 C 
ATOM      9  O   UNL     1       0.540   6.477  21.174  0.00  0.00    +0.000 OA
ATOM     10  N   UNL     1       2.205   5.118  20.319  0.00  0.00    +0.000 N 
ATOM     11  C   UNL     1       1.615   3.939  20.944  0.00  0.00    +0.000 C 
ATOM     12  C   UNL     1       2.678   2.994  21.480  0.00  0.00    +0.000 C 
ATOM     13  C   UNL     1       3.589   2.542  20.348  0.00  0.00    +0.000 C 
ATOM     14  C   UNL     1       4.007   3.688  19.470  0.00  0.00    +0.000 A 
ATOM     15  C   UNL     1       5.102   3.534  18.602  0.00  0.00    +0.000 A 
ATOM     16  C   UNL     1       5.515   4.579  17.767  0.00  0.00    +0.000 A 
ATOM     17  CA  UNL     1       4.769   5.747  17.829  0.00  0.00    +0.000 A 
ATOM     18  N   UNL     1       3.696   5.910  18.640  0.00  0.00    +0.000 NA
ATOM     19  C   UNL     1       3.326   4.906  19.462  0.00  0.00    +0.000 A 
ATOM     20  H   UNL     1       2.589   7.131  19.035  0.00  0.00    +0.000 HD
BRANCH  17  21
ATOM     21  C   UNL     1       5.051   6.963  17.022  0.00  0.00    +0.000 C 
ATOM     22  O   UNL     1       5.039   6.991  15.793  0.00  0.00    +0.000 OA
ENDBRANCH  17  21
BRANCH  16  23
ATOM     23  C   UNL     1       6.697   4.411  16.862  0.00  0.00    +0.000 C 
BRANCH  23  24
ATOM     24  O   UNL     1       6.355   3.567  15.774  0.00  0.00    +0.000 OA
ATOM     25  H   UNL     1       7.125   3.601  15.165  0.00  0.00    +0.000 HD
ENDBRANCH  23  24
ENDBRANCH  16  23
ENDBRANCH   3   7
BRANCH   1  26
ATOM     26  N   UNL     1      -0.623  10.451  17.476  0.00  0.00    +0.000 N 
ATOM     27  H   UNL     1      -0.727  11.460  17.342  0.00  0.00    +0.000 HD
BRANCH  26  28
ATOM     28  C   UNL     1      -1.914   9.782  17.244  0.00  0.00    +0.000 C 
BRANCH  28  29
ATOM     29  C   UNL     1      -2.803  10.616  16.298  0.00  0.00    +0.000 C 
ATOM     30  C   UNL     1      -2.870   9.965  14.907  0.00  0.00    +0.000 C 
BRANCH  29  31
ATOM     31  O   UNL     1      -2.204  11.915  16.125  0.00  0.00    +0.000 OA
ATOM     32  H   UNL     1      -1.331  11.905  16.555  0.00  0.00    +0.000 HD
ENDBRANCH  29  31
BRANCH  29  33
ATOM     33  C   UNL     1      -4.248  10.722  16.894  0.00  0.00    +0.000 C 
BRANCH  33  35
ATOM     34  C   UNL     1      -6.026  12.377  17.184  0.00  0.00    +0.000 C 
ATOM     35  N   UNL     1      -4.641  12.020  17.496  0.00  0.00    +0.000 NA
ATOM     36  C   UNL     1      -4.465  11.980  18.953  0.00  0.00    +0.000 C 
ENDBRANCH  33  35
ENDBRANCH  29  33
ENDBRANCH  28  29
ENDBRANCH  26  28
ENDBRANCH   1  26
BRANCH   6  37
ATOM     37  C   UNL     1      -0.558  12.217  19.783  0.00  0.00    +0.000 C 
ATOM     38  N   UNL     1      -1.121  13.227  19.852  0.00  0.00    +0.000 NA
ENDBRANCH   6  37
TORSDOF 11
ENDMDL
MODEL 7
REMARK VINA RESULT:      -7.2      2.793      9.580
REMARK  Name = 
REMARK  14 active torsions:
REMARK  status: ('A' for Active; 'I' for Inactive)
REMARK    1  A    between atoms: C_1  and  N_2
REMARK    2  A    between atoms: N_2  and  C_3
REMARK    3  A    between atoms: N_2  and  C_4
REMARK    4  A    between atoms: C_4  and  C_5
REMARK    5  A    between atoms: C_5  and  C_6
REMARK    6  A    between atoms: C_5  and  O_7
REMARK    7  A    between atoms: C_5  and  C_8
REMARK    8  A    between atoms: C_8  and  N_9
REMARK    9  A    between atoms: N_9  and  C_10
REMARK   10  A    between atoms: C_12  and  N_13
REMARK   11  A    between atoms: C_22  and  C_23
REMARK   12  A    between atoms: C_23  and  O_24
REMARK   13  A    between atoms: CA_25  and  C_26
REMARK   14  A    between atoms: C_32  and  C_33
REMARK                            x       y       z     vdW  Elec       q    Type
REMARK                         _______ _______ _______ _____ _____    ______ ____
ROOT
ATOM      1  C   UNL     1       0.904   9.720  19.744  0.00  0.00    +0.000 A 
ATOM      2  C   UNL     1       1.611   8.596  19.300  0.00  0.00    +0.000 A 
ATOM      3  C   UNL     1       2.043   7.646  20.212  0.00  0.00    +0.000 A 
ATOM      4  N   UNL     1       1.810   7.723  21.532  0.00  0.00    +0.000 NA
ATOM      5  C   UNL     1       1.238   8.868  21.967  0.00  0.00    +0.000 A 
ATOM      6  C   UNL     1       0.775   9.879  21.134  0.00  0.00    +0.000 A 
ENDROOT
BRANCH   3   7
ATOM      7  N   UNL     1       2.519   6.441  19.715  0.00  0.00    +0.000 N 
ATOM      8  C   UNL     1       1.787   5.278  19.817  0.00  0.00    +0.000 C 
ATOM      9  O   UNL     1       0.795   5.169  20.537  0.00  0.00    +0.000 OA
ATOM     10  N   UNL     1       2.298   4.199  19.072  0.00  0.00    +0.000 N 
ATOM     11  C   UNL     1       1.616   2.912  19.165  0.00  0.00    +0.000 C 
ATOM     12  C   UNL     1       2.598   1.753  19.169  0.00  0.00    +0.000 C 
ATOM     13  C   UNL     1       3.430   1.773  17.895  0.00  0.00    +0.000 C 
ATOM     14  C   UNL     1       3.932   3.152  17.572  0.00  0.00    +0.000 A 
ATOM     15  C   UNL     1       4.983   3.310  16.652  0.00  0.00    +0.000 A 
ATOM     16  C   UNL     1       5.470   4.580  16.324  0.00  0.00    +0.000 A 
ATOM     17  CA  UNL     1       4.841   5.657  16.933  0.00  0.00    +0.000 A 
ATOM     18  N   UNL     1       3.812   5.530  17.804  0.00  0.00    +0.000 NA
ATOM     19  C   UNL     1       3.370   4.298  18.135  0.00  0.00    +0.000 A 
ATOM     20  H   UNL     1       2.837   6.535  18.759  0.00  0.00    +0.000 HD
BRANCH  17  21
ATOM     21  C   UNL     1       5.216   7.079  16.712  0.00  0.00    +0.000 C 
ATOM     22  O   UNL     1       6.317   7.550  16.985  0.00  0.00    +0.000 OA
ENDBRANCH  17  21
BRANCH  16  23
ATOM     23  C   UNL     1       6.606   4.736  15.359  0.00  0.00    +0.000 C 
BRANCH  23  24
ATOM     24  O   UNL     1       6.360   3.960  14.197  0.00  0.00    +0.000 OA
ATOM     25  H   UNL     1       5.791   3.217  14.495  0.00  0.00    +0.000 HD
ENDBRANCH  23  24
ENDBRANCH  16  23
ENDBRANCH   3   7
BRANCH   1  26
ATOM     26  N   UNL     1       0.432  10.695  18.851  0.00  0.00    +0.000 N 
ATOM     27  H   UNL     1       0.641  11.652  19.152  0.00  0.00    +0.000 HD
BRANCH  26  28
ATOM     28  C   UNL     1      -0.963  10.613  18.388  0.00  0.00    +0.000 C 
BRANCH  28  29
ATOM     29  C   UNL     1      -1.588  12.020  18.272  0.00  0.00    +0.000 C 
ATOM     30  C   UNL     1      -2.439  12.334  19.513  0.00  0.00    +0.000 C 
BRANCH  29  31
ATOM     31  O   UNL     1      -2.476  12.039  17.138  0.00  0.00    +0.000 OA
ATOM     32  H   UNL     1      -3.358  12.307  17.449  0.00  0.00    +0.000 HD
ENDBRANCH  29  31
BRANCH  29  33
ATOM     33  C   UNL     1      -0.452  13.088  18.134  0.00  0.00    +0.000 C 
BRANCH  33  35
ATOM     34  C   UNL     1       1.341  13.854  19.613  0.00  0.00    +0.000 C 
ATOM     35  N   UNL     1      -0.099  13.865  19.349  0.00  0.00    +0.000 NA
ATOM     36  C   UNL     1      -0.560  15.253  19.218  0.00  0.00    +0.000 C 
ENDBRANCH  33  35
ENDBRANCH  29  33
ENDBRANCH  28  29
ENDBRANCH  26  28
ENDBRANCH   1  26
BRANCH   6  37
ATOM     37  C   UNL     1       0.176  11.036  21.727  0.00  0.00    +0.000 C 
ATOM     38  N   UNL     1      -0.301  11.958  22.241  0.00  0.00    +0.000 NA
ENDBRANCH   6  37
TORSDOF 11
ENDMDL
MODEL 8
REMARK VINA RESULT:      -7.0      3.318      9.711
REMARK  Name = 
REMARK  14 active torsions:
REMARK  status: ('A' for Active; 'I' for Inactive)
REMARK    1  A    between atoms: C_1  and  N_2
REMARK    2  A    between atoms: N_2  and  C_3
REMARK    3  A    between atoms: N_2  and  C_4
REMARK    4  A    between atoms: C_4  and  C_5
REMARK    5  A    between atoms: C_5  and  C_6
REMARK    6  A    between atoms: C_5  and  O_7
REMARK    7  A    between atoms: C_5  and  C_8
REMARK    8  A    between atoms: C_8  and  N_9
REMARK    9  A    between atoms: N_9  and  C_10
REMARK   10  A    between atoms: C_12  and  N_13
REMARK   11  A    between atoms: C_22  and  C_23
REMARK   12  A    between atoms: C_23  and  O_24
REMARK   13  A    between atoms: CA_25  and  C_26
REMARK   14  A    between atoms: C_32  and  C_33
REMARK                            x       y       z     vdW  Elec       q    Type
REMARK                         _______ _______ _______ _____ _____    ______ ____
ROOT
ATOM      1  C   UNL     1       1.167   9.862  19.534  0.00  0.00    +0.000 A 
ATOM      2  C   UNL     1       1.847   8.695  19.165  0.00  0.00    +0.000 A 
ATOM      3  C   UNL     1       2.028   7.679  20.090  0.00  0.00    +0.000 A 
ATOM      4  N   UNL     1       1.567   7.730  21.350  0.00  0.00    +0.000 NA
ATOM      5  C   UNL     1       1.021   8.905  21.734  0.00  0.00    +0.000 A 
ATOM      6  C   UNL     1       0.802   9.983  20.884  0.00  0.00    +0.000 A 
ENDROOT
BRANCH   3   7
ATOM      7  N   UNL     1       2.486   6.454  19.625  0.00  0.00    +0.000 N 
ATOM      8  C   UNL     1       1.721   5.313  19.725  0.00  0.00    +0.000 C 
ATOM      9  O   UNL     1       0.707   5.241  20.419  0.00  0.00    +0.000 OA
ATOM     10  N   UNL     1       2.224   4.208  19.010  0.00  0.00    +0.000 N 
ATOM     11  C   UNL     1       1.506   2.942  19.104  0.00  0.00    +0.000 C 
ATOM     12  C   UNL     1       2.457   1.757  19.153  0.00  0.00    +0.000 C 
ATOM     13  C   UNL     1       3.323   1.735  17.903  0.00  0.00    +0.000 C 
ATOM     14  C   UNL     1       3.869   3.096  17.572  0.00  0.00    +0.000 A 
ATOM     15  C   UNL     1       4.949   3.212  16.680  0.00  0.00    +0.000 A 
ATOM     16  C   UNL     1       5.479   4.464  16.346  0.00  0.00    +0.000 A 
ATOM     17  CA  UNL     1       4.861   5.566  16.921  0.00  0.00    +0.000 A 
ATOM     18  N   UNL     1       3.806   5.480  17.764  0.00  0.00    +0.000 NA
ATOM     19  C   UNL     1       3.323   4.265  18.103  0.00  0.00    +0.000 A 
ATOM     20  H   UNL     1       2.832   6.525  18.677  0.00  0.00    +0.000 HD
BRANCH  17  21
ATOM     21  C   UNL     1       5.279   6.974  16.688  0.00  0.00    +0.000 C 
ATOM     22  O   UNL     1       6.427   7.385  16.842  0.00  0.00    +0.000 OA
ENDBRANCH  17  21
BRANCH  16  23
ATOM     23  C   UNL     1       6.644   4.575  15.410  0.00  0.00    +0.000 C 
BRANCH  23  24
ATOM     24  O   UNL     1       7.853   4.619  16.151  0.00  0.00    +0.000 OA
ATOM     25  H   UNL     1       7.963   5.559  16.415  0.00  0.00    +0.000 HD
ENDBRANCH  23  24
ENDBRANCH  16  23
ENDBRANCH   3   7
BRANCH   1  26
ATOM     26  N   UNL     1       0.946  10.907  18.622  0.00  0.00    +0.000 N 
ATOM     27  H   UNL     1       0.344  10.637  17.839  0.00  0.00    +0.000 HD
BRANCH  26  28
ATOM     28  C   UNL     1       2.105  11.664  18.120  0.00  0.00    +0.000 C 
BRANCH  28  29
ATOM     29  C   UNL     1       2.001  13.153  18.512  0.00  0.00    +0.000 C 
ATOM     30  C   UNL     1       0.531  13.604  18.526  0.00  0.00    +0.000 C 
BRANCH  29  31
ATOM     31  O   UNL     1       2.672  13.943  17.511  0.00  0.00    +0.000 OA
ATOM     32  H   UNL     1       2.026  14.167  16.819  0.00  0.00    +0.000 HD
ENDBRANCH  29  31
BRANCH  29  33
ATOM     33  C   UNL     1       2.625  13.367  19.931  0.00  0.00    +0.000 C 
BRANCH  33  35
ATOM     34  C   UNL     1       2.053  14.986  21.675  0.00  0.00    +0.000 C 
ATOM     35  N   UNL     1       2.759  14.766  20.410  0.00  0.00    +0.000 NA
ATOM     36  C   UNL     1       4.175  15.114  20.576  0.00  0.00    +0.000 C 
ENDBRANCH  33  35
ENDBRANCH  29  33
ENDBRANCH  28  29
ENDBRANCH  26  28
ENDBRANCH   1  26
BRANCH   6  37
ATOM     37  C   UNL     1       0.202  11.167  21.419  0.00  0.00    +0.000 C 
ATOM     38  N   UNL     1      -0.249  12.143  21.851  0.00  0.00    +0.000 NA
ENDBRANCH   6  37
TORSDOF 11
ENDMDL
MODEL 9
REMARK VINA RESULT:      -7.0      1.797      9.300
REMARK  Name = 
REMARK  14 active torsions:
REMARK  status: ('A' for Active; 'I' for Inactive)
REMARK    1  A    between atoms: C_1  and  N_2
REMARK    2  A    between atoms: N_2  and  C_3
REMARK    3  A    between atoms: N_2  and  C_4
REMARK    4  A    between atoms: C_4  and  C_5
REMARK    5  A    between atoms: C_5  and  C_6
REMARK    6  A    between atoms: C_5  and  O_7
REMARK    7  A    between atoms: C_5  and  C_8
REMARK    8  A    between atoms: C_8  and  N_9
REMARK    9  A    between atoms: N_9  and  C_10
REMARK   10  A    between atoms: C_12  and  N_13
REMARK   11  A    between atoms: C_22  and  C_23
REMARK   12  A    between atoms: C_23  and  O_24
REMARK   13  A    between atoms: CA_25  and  C_26
REMARK   14  A    between atoms: C_32  and  C_33
REMARK                            x       y       z     vdW  Elec       q    Type
REMARK                         _______ _______ _______ _____ _____    ______ ____
ROOT
ATOM      1  C   UNL     1      -0.488  10.337  20.049  0.00  0.00    +0.000 A 
ATOM      2  C   UNL     1       0.377   9.576  19.253  0.00  0.00    +0.000 A 
ATOM      3  C   UNL     1       1.293   8.724  19.848  0.00  0.00    +0.000 A 
ATOM      4  N   UNL     1       1.402   8.558  21.176  0.00  0.00    +0.000 NA
ATOM      5  C   UNL     1       0.651   9.384  21.939  0.00  0.00    +0.000 A 
ATOM      6  C   UNL     1      -0.291  10.274  21.438  0.00  0.00    +0.000 A 
ENDROOT
BRANCH   3   7
ATOM      7  N   UNL     1       1.958   7.817  19.034  0.00  0.00    +0.000 N 
ATOM      8  C   UNL     1       2.994   8.207  18.214  0.00  0.00    +0.000 C 
ATOM      9  O   UNL     1       3.251   9.386  17.970  0.00  0.00    +0.000 OA
ATOM     10  N   UNL     1       3.707   7.144  17.628  0.00  0.00    +0.000 N 
ATOM     11  C   UNL     1       4.787   7.466  16.702  0.00  0.00    +0.000 C 
ATOM     12  C   UNL     1       4.835   6.497  15.532  0.00  0.00    +0.000 C 
ATOM     13  C   UNL     1       5.037   5.078  16.043  0.00  0.00    +0.000 C 
ATOM     14  C   UNL     1       4.145   4.767  17.212  0.00  0.00    +0.000 A 
ATOM     15  C   UNL     1       3.937   3.429  17.590  0.00  0.00    +0.000 A 
ATOM     16  C   UNL     1       3.117   3.105  18.677  0.00  0.00    +0.000 A 
ATOM     17  CA  UNL     1       2.554   4.172  19.363  0.00  0.00    +0.000 A 
ATOM     18  N   UNL     1       2.759   5.469  19.031  0.00  0.00    +0.000 NA
ATOM     19  C   UNL     1       3.529   5.769  17.963  0.00  0.00    +0.000 A 
ATOM     20  H   UNL     1       2.251   7.000  19.553  0.00  0.00    +0.000 HD
BRANCH  17  21
ATOM     21  C   UNL     1       1.658   4.030  20.540  0.00  0.00    +0.000 C 
ATOM     22  O   UNL     1       1.930   3.362  21.535  0.00  0.00    +0.000 OA
ENDBRANCH  17  21
BRANCH  16  23
ATOM     23  C   UNL     1       2.884   1.674  19.058  0.00  0.00    +0.000 C 
BRANCH  23  24
ATOM     24  O   UNL     1       1.517   1.344  18.873  0.00  0.00    +0.000 OA
ATOM     25  H   UNL     1       1.130   2.100  18.379  0.00  0.00    +0.000 HD
ENDBRANCH  23  24
ENDBRANCH  16  23
ENDBRANCH   3   7
BRANCH   1  26
ATOM     26  N   UNL     1      -1.444  11.198  19.486  0.00  0.00    +0.000 N 
ATOM     27  H   UNL     1      -2.407  10.932  19.711  0.00  0.00    +0.000 HD
BRANCH  26  28
ATOM     28  C   UNL     1      -1.341  11.528  18.055  0.00  0.00    +0.000 C 
BRANCH  28  29
ATOM     29  C   UNL     1      -2.635  11.144  17.307  0.00  0.00    +0.000 C 
ATOM     30  C   UNL     1      -2.744   9.616  17.169  0.00  0.00    +0.000 C 
BRANCH  29  31
ATOM     31  O   UNL     1      -2.576  11.682  15.972  0.00  0.00    +0.000 OA
ATOM     32  H   UNL     1      -1.642  11.841  15.751  0.00  0.00    +0.000 HD
ENDBRANCH  29  31
BRANCH  29  33
ATOM     33  C   UNL     1      -3.876  11.685  18.094  0.00  0.00    +0.000 C 
BRANCH  33  35
ATOM     34  C   UNL     1      -6.049  10.671  18.580  0.00  0.00    +0.000 C 
ATOM     35  N   UNL     1      -5.219  11.332  17.571  0.00  0.00    +0.000 NA
ATOM     36  C   UNL     1      -5.908  12.533  17.085  0.00  0.00    +0.000 C 
ENDBRANCH  33  35
ENDBRANCH  29  33
ENDBRANCH  28  29
ENDBRANCH  26  28
ENDBRANCH   1  26
BRANCH   6  37
ATOM     37  C   UNL     1      -1.028  11.083  22.360  0.00  0.00    +0.000 C 
ATOM     38  N   UNL     1      -1.652  11.743  23.080  0.00  0.00    +0.000 NA
ENDBRANCH   6  37
TORSDOF 11
ENDMDL
