MODEL 1
REMARK VINA RESULT:      -7.8      0.000      0.000
REMARK  Name = 
REMARK  10 active torsions:
REMARK  status: ('A' for Active; 'I' for Inactive)
REMARK    1  A    between atoms: C_1  and  C_2
REMARK    2  A    between atoms: C_2  and  C_3
REMARK    3  A    between atoms: C_3  and  S_4
REMARK    4  A    between atoms: S_4  and  N_7
REMARK    5  A    between atoms: C_10  and  C_11
REMARK    6  A    between atoms: C_10  and  C_17
REMARK    7  A    between atoms: C_17  and  C_18
REMARK    8  A    between atoms: C_17  and  N_19
REMARK    9  A    between atoms: C_20  and  C_22
REMARK   10  A    between atoms: C_27  and  N_28
REMARK                            x       y       z     vdW  Elec       q    Type
REMARK                         _______ _______ _______ _____ _____    ______ ____
ROOT
ATOM      1  N   UNL     1       5.628   4.340  16.393  0.00  0.00    +0.000 NA
ATOM      2  C   UNL     1       5.811   5.238  17.559  0.00  0.00    +0.000 C 
ATOM      3  C   UNL     1       4.891   4.861  18.714  0.00  0.00    +0.000 C 
ATOM      4  C   UNL     1       3.377   4.903  18.353  0.00  0.00    +0.000 C 
ATOM      5  C   UNL     1       3.248   3.936  17.132  0.00  0.00    +0.000 C 
ATOM      6  C   UNL     1       4.215   4.142  15.978  0.00  0.00    +0.000 C 
ENDROOT
BRANCH   4   7
ATOM      7  C   UNL     1       2.528   4.323  19.525  0.00  0.00    +0.000 A 
ATOM      8  C   UNL     1       2.992   4.343  20.852  0.00  0.00    +0.000 A 
ATOM      9  C   UNL     1       2.301   3.686  21.873  0.00  0.00    +0.000 A 
ATOM     10  C   UNL     1       1.120   3.006  21.598  0.00  0.00    +0.000 A 
ATOM     11  C   UNL     1       0.606   3.020  20.308  0.00  0.00    +0.000 A 
ATOM     12  C   UNL     1       1.290   3.688  19.291  0.00  0.00    +0.000 A 
ENDBRANCH   4   7
BRANCH   1  13
ATOM     13  S   UNL     1       6.646   4.769  15.059  0.00  0.00    +0.000 S 
ATOM     14  O   UNL     1       8.023   4.674  15.510  0.00  0.00    +0.000 OA
ATOM     15  O   UNL     1       6.137   5.973  14.451  0.00  0.00    +0.000 OA
BRANCH  13  16
ATOM     16  C   UNL     1       6.363   3.396  13.947  0.00  0.00    +0.000 C 
BRANCH  16  18
ATOM     17  C   UNL     1       5.082   3.190  11.790  0.00  0.00    +0.000 C 
ATOM     18  C   UNL     1       6.213   3.898  12.513  0.00  0.00    +0.000 C 
ENDBRANCH  16  18
ENDBRANCH  13  16
ENDBRANCH   1  13
BRANCH   4  19
ATOM     19  C   UNL     1       2.921   6.374  17.994  0.00  0.00    +0.000 C 
ATOM     20  C   UNL     1       4.025   7.309  17.470  0.00  0.00    +0.000 C 
BRANCH  19  21
ATOM     21  N   UNL     1       2.268   7.052  19.116  0.00  0.00    +0.000 N 
ATOM     22  C   UNL     1       1.634   8.265  18.954  0.00  0.00    +0.000 C 
ATOM     23  O   UNL     1       1.496   8.789  17.850  0.00  0.00    +0.000 OA
ATOM     24  H   UNL     1       2.465   6.703  20.046  0.00  0.00    +0.000 HD
BRANCH  22  25
ATOM     25  C   UNL     1       1.090   8.939  20.171  0.00  0.00    +0.000 A 
ATOM     26  C   UNL     1       1.364   8.443  21.457  0.00  0.00    +0.000 A 
ATOM     27  C   UNL     1       0.760   9.018  22.576  0.00  0.00    +0.000 A 
ATOM     28  C   UNL     1      -0.122  10.084  22.419  0.00  0.00    +0.000 A 
ATOM     29  C   UNL     1      -0.382  10.597  21.147  0.00  0.00    +0.000 A 
ATOM     30  C   UNL     1       0.194  10.021  20.008  0.00  0.00    +0.000 A 
BRANCH  30  31
ATOM     31  N   UNL     1       0.042  10.688  18.773  0.00  0.00    +0.000 N 
ATOM     32  H   UNL     1       0.047  11.700  18.846  0.00  0.00    +0.000 HD
ATOM     33  H   UNL     1      -0.797  10.356  18.279  0.00  0.00    +0.000 HD
ENDBRANCH  30  31
ENDBRANCH  22  25
ENDBRANCH  19  21
ENDBRANCH   4  19
TORSDOF 8
ENDMDL
MODEL 2
REMARK VINA RESULT:      -7.6      6.211     10.172
REMARK  Name = 
REMARK  10 active torsions:
REMARK  status: ('A' for Active; 'I' for Inactive)
REMARK    1  A    between atoms: C_1  and  C_2
REMARK    2  A    between atoms: C_2  and  C_3
REMARK    3  A    between atoms: C_3  and  S_4
REMARK    4  A    between atoms: S_4  and  N_7
REMARK    5  A    between atoms: C_10  and  C_11
REMARK    6  A    between atoms: C_10  and  C_17
REMARK    7  A    between atoms: C_17  and  C_18
REMARK    8  A    between atoms: C_17  and  N_19
REMARK    9  A    between atoms: C_20  and  C_22
REMARK   10  A    between atoms: C_27  and  N_28
REMARK                            x       y       z     vdW  Elec       q    Type
REMARK                         _______ _______ _______ _____ _____    ______ ____
ROOT
ATOM      1  N   UNL     1      -0.621  13.307  22.440  0.00  0.00    +0.000 NA
ATOM      2  C   UNL     1      -1.585  12.343  21.856  0.00  0.00    +0.000 C 
ATOM      3  C   UNL     1      -0.879  11.160  21.205  0.00  0.00    +0.000 C 
ATOM      4  C   UNL     1       0.097  11.561  20.061  0.00  0.00    +0.000 C 
ATOM      5  C   UNL     1       1.088  12.564  20.737  0.00  0.00    +0.000 C 
ATOM      6  C   UNL     1       0.481  13.710  21.529  0.00  0.00    +0.000 C 
ENDROOT
BRANCH   4   7
ATOM      7  C   UNL     1       0.911  10.319  19.587  0.00  0.00    +0.000 A 
ATOM      8  C   UNL     1       1.424  10.227  18.282  0.00  0.00    +0.000 A 
ATOM      9  C   UNL     1       2.017   9.052  17.814  0.00  0.00    +0.000 A 
ATOM     10  C   UNL     1       2.127   7.942  18.644  0.00  0.00    +0.000 A 
ATOM     11  C   UNL     1       1.683   8.022  19.958  0.00  0.00    +0.000 A 
ATOM     12  C   UNL     1       1.104   9.202  20.428  0.00  0.00    +0.000 A 
ENDBRANCH   4   7
BRANCH   1  13
ATOM     13  S   UNL     1      -1.404  14.673  23.162  0.00  0.00    +0.000 S 
ATOM     14  O   UNL     1      -1.148  15.824  22.314  0.00  0.00    +0.000 OA
ATOM     15  O   UNL     1      -1.097  14.697  24.570  0.00  0.00    +0.000 OA
BRANCH  13  16
ATOM     16  C   UNL     1      -3.127  14.241  22.953  0.00  0.00    +0.000 C 
BRANCH  16  18
ATOM     17  C   UNL     1      -4.142  12.549  24.517  0.00  0.00    +0.000 C 
ATOM     18  C   UNL     1      -3.784  14.010  24.312  0.00  0.00    +0.000 C 
ENDBRANCH  16  18
ENDBRANCH  13  16
ENDBRANCH   1  13
BRANCH   4  19
ATOM     19  C   UNL     1      -0.684  12.222  18.855  0.00  0.00    +0.000 C 
ATOM     20  C   UNL     1      -0.153  13.585  18.379  0.00  0.00    +0.000 C 
BRANCH  19  21
ATOM     21  N   UNL     1      -2.114  12.380  19.130  0.00  0.00    +0.000 N 
ATOM     22  C   UNL     1      -3.054  11.560  18.543  0.00  0.00    +0.000 C 
ATOM     23  O   UNL     1      -2.739  10.598  17.844  0.00  0.00    +0.000 OA
ATOM     24  H   UNL     1      -2.405  13.226  19.603  0.00  0.00    +0.000 HD
BRANCH  22  25
ATOM     25  C   UNL     1      -4.496  11.858  18.791  0.00  0.00    +0.000 A 
ATOM     26  C   UNL     1      -4.935  12.317  20.044  0.00  0.00    +0.000 A 
ATOM     27  C   UNL     1      -6.298  12.487  20.293  0.00  0.00    +0.000 A 
ATOM     28  C   UNL     1      -7.227  12.196  19.298  0.00  0.00    +0.000 A 
ATOM     29  C   UNL     1      -6.798  11.761  18.043  0.00  0.00    +0.000 A 
ATOM     30  C   UNL     1      -5.438  11.561  17.778  0.00  0.00    +0.000 A 
BRANCH  30  31
ATOM     31  N   UNL     1      -5.048  11.299  16.447  0.00  0.00    +0.000 N 
ATOM     32  H   UNL     1      -4.965  10.313  16.226  0.00  0.00    +0.000 HD
ATOM     33  H   UNL     1      -4.183  11.805  16.213  0.00  0.00    +0.000 HD
ENDBRANCH  30  31
ENDBRANCH  22  25
ENDBRANCH  19  21
ENDBRANCH   4  19
TORSDOF 8
ENDMDL
MODEL 3
REMARK VINA RESULT:      -7.4      7.908      9.842
REMARK  Name = 
REMARK  10 active torsions:
REMARK  status: ('A' for Active; 'I' for Inactive)
REMARK    1  A    between atoms: C_1  and  C_2
REMARK    2  A    between atoms: C_2  and  C_3
REMARK    3  A    between atoms: C_3  and  S_4
REMARK    4  A    between atoms: S_4  and  N_7
REMARK    5  A    between atoms: C_10  and  C_11
REMARK    6  A    between atoms: C_10  and  C_17
REMARK    7  A    between atoms: C_17  and  C_18
REMARK    8  A    between atoms: C_17  and  N_19
REMARK    9  A    between atoms: C_20  and  C_22
REMARK   10  A    between atoms: C_27  and  N_28
REMARK                            x       y       z     vdW  Elec       q    Type
REMARK                         _______ _______ _______ _____ _____    ______ ____
ROOT
ATOM      1  N   UNL     1       1.633  14.222  20.170  0.00  0.00    +0.000 NA
ATOM      2  C   UNL     1       1.734  12.798  20.571  0.00  0.00    +0.000 C 
ATOM      3  C   UNL     1       0.765  11.920  19.790  0.00  0.00    +0.000 C 
ATOM      4  C   UNL     1      -0.729  12.325  19.959  0.00  0.00    +0.000 C 
ATOM      5  C   UNL     1      -0.772  13.823  19.515  0.00  0.00    +0.000 C 
ATOM      6  C   UNL     1       0.249  14.761  20.138  0.00  0.00    +0.000 C 
ENDROOT
BRANCH   4   7
ATOM      7  C   UNL     1      -1.624  11.503  18.983  0.00  0.00    +0.000 A 
ATOM      8  C   UNL     1      -1.120  10.400  18.272  0.00  0.00    +0.000 A 
ATOM      9  C   UNL     1      -1.877   9.763  17.286  0.00  0.00    +0.000 A 
ATOM     10  C   UNL     1      -3.164  10.201  16.996  0.00  0.00    +0.000 A 
ATOM     11  C   UNL     1      -3.712  11.250  17.724  0.00  0.00    +0.000 A 
ATOM     12  C   UNL     1      -2.959  11.877  18.719  0.00  0.00    +0.000 A 
ENDBRANCH   4   7
BRANCH   1  13
ATOM     13  S   UNL     1       2.709  15.242  21.066  0.00  0.00    +0.000 S 
ATOM     14  O   UNL     1       3.036  14.556  22.304  0.00  0.00    +0.000 OA
ATOM     15  O   UNL     1       2.185  16.585  21.070  0.00  0.00    +0.000 OA
BRANCH  13  16
ATOM     16  C   UNL     1       4.173  15.195  20.039  0.00  0.00    +0.000 C 
BRANCH  16  18
ATOM     17  C   UNL     1       3.696  15.597  17.600  0.00  0.00    +0.000 C 
ATOM     18  C   UNL     1       4.072  16.235  18.925  0.00  0.00    +0.000 C 
ENDBRANCH  16  18
ENDBRANCH  13  16
ENDBRANCH   1  13
BRANCH   4  19
ATOM     19  C   UNL     1      -1.200  12.138  21.457  0.00  0.00    +0.000 C 
ATOM     20  C   UNL     1      -0.708  10.861  22.160  0.00  0.00    +0.000 C 
BRANCH  19  21
ATOM     21  N   UNL     1      -2.656  12.185  21.600  0.00  0.00    +0.000 N 
ATOM     22  C   UNL     1      -3.260  12.956  22.571  0.00  0.00    +0.000 C 
ATOM     23  O   UNL     1      -2.620  13.716  23.296  0.00  0.00    +0.000 OA
ATOM     24  H   UNL     1      -3.194  11.488  21.100  0.00  0.00    +0.000 HD
BRANCH  22  25
ATOM     25  C   UNL     1      -4.743  12.861  22.718  0.00  0.00    +0.000 A 
ATOM     26  C   UNL     1      -5.587  12.907  21.595  0.00  0.00    +0.000 A 
ATOM     27  C   UNL     1      -6.973  12.927  21.758  0.00  0.00    +0.000 A 
ATOM     28  C   UNL     1      -7.523  12.907  23.037  0.00  0.00    +0.000 A 
ATOM     29  C   UNL     1      -6.692  12.839  24.157  0.00  0.00    +0.000 A 
ATOM     30  C   UNL     1      -5.299  12.841  24.019  0.00  0.00    +0.000 A 
BRANCH  30  31
ATOM     31  N   UNL     1      -4.515  12.588  25.165  0.00  0.00    +0.000 N 
ATOM     32  H   UNL     1      -3.527  12.783  25.042  0.00  0.00    +0.000 HD
ATOM     33  H   UNL     1      -4.664  11.628  25.504  0.00  0.00    +0.000 HD
ENDBRANCH  30  31
ENDBRANCH  22  25
ENDBRANCH  19  21
ENDBRANCH   4  19
TORSDOF 8
ENDMDL
MODEL 4
REMARK VINA RESULT:      -7.2      7.293      9.269
REMARK  Name = 
REMARK  10 active torsions:
REMARK  status: ('A' for Active; 'I' for Inactive)
REMARK    1  A    between atoms: C_1  and  C_2
REMARK    2  A    between atoms: C_2  and  C_3
REMARK    3  A    between atoms: C_3  and  S_4
REMARK    4  A    between atoms: S_4  and  N_7
REMARK    5  A    between atoms: C_10  and  C_11
REMARK    6  A    between atoms: C_10  and  C_17
REMARK    7  A    between atoms: C_17  and  C_18
REMARK    8  A    between atoms: C_17  and  N_19
REMARK    9  A    between atoms: C_20  and  C_22
REMARK   10  A    between atoms: C_27  and  N_28
REMARK                            x       y       z     vdW  Elec       q    Type
REMARK                         _______ _______ _______ _____ _____    ______ ____
ROOT
ATOM      1  N   UNL     1       2.094  13.889  18.523  0.00  0.00    +0.000 NA
ATOM      2  C   UNL     1       2.274  12.446  18.815  0.00  0.00    +0.000 C 
ATOM      3  C   UNL     1       1.063  11.627  18.385  0.00  0.00    +0.000 C 
ATOM      4  C   UNL     1      -0.266  12.058  19.073  0.00  0.00    +0.000 C 
ATOM      5  C   UNL     1      -0.403  13.575  18.722  0.00  0.00    +0.000 C 
ATOM      6  C   UNL     1       0.804  14.460  18.988  0.00  0.00    +0.000 C 
ENDROOT
BRANCH   4   7
ATOM      7  C   UNL     1      -1.472  11.302  18.437  0.00  0.00    +0.000 A 
ATOM      8  C   UNL     1      -1.286  10.176  17.615  0.00  0.00    +0.000 A 
ATOM      9  C   UNL     1      -2.353   9.597  16.924  0.00  0.00    +0.000 A 
ATOM     10  C   UNL     1      -3.636  10.117  17.049  0.00  0.00    +0.000 A 
ATOM     11  C   UNL     1      -3.861  11.191  17.900  0.00  0.00    +0.000 A 
ATOM     12  C   UNL     1      -2.796  11.760  18.601  0.00  0.00    +0.000 A 
ENDBRANCH   4   7
BRANCH   1  13
ATOM     13  S   UNL     1       3.450  14.842  19.029  0.00  0.00    +0.000 S 
ATOM     14  O   UNL     1       4.496  14.678  18.035  0.00  0.00    +0.000 OA
ATOM     15  O   UNL     1       3.698  14.595  20.428  0.00  0.00    +0.000 OA
BRANCH  13  16
ATOM     16  C   UNL     1       2.803  16.499  18.840  0.00  0.00    +0.000 C 
BRANCH  16  18
ATOM     17  C   UNL     1       1.725  17.874  17.028  0.00  0.00    +0.000 C 
ATOM     18  C   UNL     1       2.857  16.925  17.375  0.00  0.00    +0.000 C 
ENDBRANCH  16  18
ENDBRANCH  13  16
ENDBRANCH   1  13
BRANCH   4  19
ATOM     19  C   UNL     1      -0.201  11.814  20.634  0.00  0.00    +0.000 C 
ATOM     20  C   UNL     1       0.004  10.354  21.076  0.00  0.00    +0.000 C 
BRANCH  19  21
ATOM     21  N   UNL     1      -1.382  12.323  21.334  0.00  0.00    +0.000 N 
ATOM     22  C   UNL     1      -1.273  13.004  22.527  0.00  0.00    +0.000 C 
ATOM     23  O   UNL     1      -0.183  13.304  23.013  0.00  0.00    +0.000 OA
ATOM     24  H   UNL     1      -2.285  11.992  21.020  0.00  0.00    +0.000 HD
BRANCH  22  25
ATOM     25  C   UNL     1      -2.532  13.392  23.229  0.00  0.00    +0.000 A 
ATOM     26  C   UNL     1      -3.436  12.418  23.688  0.00  0.00    +0.000 A 
ATOM     27  C   UNL     1      -4.658  12.799  24.244  0.00  0.00    +0.000 A 
ATOM     28  C   UNL     1      -4.987  14.148  24.340  0.00  0.00    +0.000 A 
ATOM     29  C   UNL     1      -4.086  15.123  23.908  0.00  0.00    +0.000 A 
ATOM     30  C   UNL     1      -2.864  14.764  23.326  0.00  0.00    +0.000 A 
BRANCH  30  31
ATOM     31  N   UNL     1      -1.919  15.782  23.076  0.00  0.00    +0.000 N 
ATOM     32  H   UNL     1      -1.156  15.812  23.743  0.00  0.00    +0.000 HD
ATOM     33  H   UNL     1      -2.381  16.699  23.001  0.00  0.00    +0.000 HD
ENDBRANCH  30  31
ENDBRANCH  22  25
ENDBRANCH  19  21
ENDBRANCH   4  19
TORSDOF 8
ENDMDL
MODEL 5
REMARK VINA RESULT:      -7.1      5.980      9.969
REMARK  Name = 
REMARK  10 active torsions:
REMARK  status: ('A' for Active; 'I' for Inactive)
REMARK    1  A    between atoms: C_1  and  C_2
REMARK    2  A    between atoms: C_2  and  C_3
REMARK    3  A    between atoms: C_3  and  S_4
REMARK    4  A    between atoms: S_4  and  N_7
REMARK    5  A    between atoms: C_10  and  C_11
REMARK    6  A    between atoms: C_10  and  C_17
REMARK    7  A    between atoms: C_17  and  C_18
REMARK    8  A    between atoms: C_17  and  N_19
REMARK    9  A    between atoms: C_20  and  C_22
REMARK   10  A    between atoms: C_27  and  N_28
REMARK                            x       y       z     vdW  Elec       q    Type
REMARK                         _______ _______ _______ _____ _____    ______ ____
ROOT
ATOM      1  N   UNL     1      -0.499  12.754  22.319  0.00  0.00    +0.000 NA
ATOM      2  C   UNL     1      -1.407  11.674  21.864  0.00  0.00    +0.000 C 
ATOM      3  C   UNL     1      -0.643  10.526  21.217  0.00  0.00    +0.000 C 
ATOM      4  C   UNL     1       0.200  10.949  19.979  0.00  0.00    +0.000 C 
ATOM      5  C   UNL     1       1.139  12.075  20.522  0.00  0.00    +0.000 C 
ATOM      6  C   UNL     1       0.488  13.204  21.303  0.00  0.00    +0.000 C 
ENDROOT
BRANCH   4   7
ATOM      7  C   UNL     1       1.091   9.762  19.502  0.00  0.00    +0.000 A 
ATOM      8  C   UNL     1       1.595   9.697  18.191  0.00  0.00    +0.000 A 
ATOM      9  C   UNL     1       2.260   8.561  17.723  0.00  0.00    +0.000 A 
ATOM     10  C   UNL     1       2.454   7.467  18.558  0.00  0.00    +0.000 A 
ATOM     11  C   UNL     1       2.020   7.525  19.877  0.00  0.00    +0.000 A 
ATOM     12  C   UNL     1       1.368   8.666  20.347  0.00  0.00    +0.000 A 
ENDBRANCH   4   7
BRANCH   1  13
ATOM     13  S   UNL     1      -1.352  14.081  23.034  0.00  0.00    +0.000 S 
ATOM     14  O   UNL     1      -1.767  14.966  21.960  0.00  0.00    +0.000 OA
ATOM     15  O   UNL     1      -0.594  14.572  24.158  0.00  0.00    +0.000 OA
BRANCH  13  16
ATOM     16  C   UNL     1      -2.824  13.266  23.641  0.00  0.00    +0.000 C 
BRANCH  16  18
ATOM     17  C   UNL     1      -4.702  14.931  23.831  0.00  0.00    +0.000 C 
ATOM     18  C   UNL     1      -3.599  14.197  24.571  0.00  0.00    +0.000 C 
ENDBRANCH  16  18
ENDBRANCH  13  16
ENDBRANCH   1  13
BRANCH   4  19
ATOM     19  C   UNL     1      -0.730  11.466  18.810  0.00  0.00    +0.000 C 
ATOM     20  C   UNL     1      -0.423  12.879  18.283  0.00  0.00    +0.000 C 
BRANCH  19  21
ATOM     21  N   UNL     1      -2.151  11.429  19.162  0.00  0.00    +0.000 N 
ATOM     22  C   UNL     1      -3.134  11.530  18.201  0.00  0.00    +0.000 C 
ATOM     23  O   UNL     1      -2.874  11.555  16.999  0.00  0.00    +0.000 OA
ATOM     24  H   UNL     1      -2.389  11.526  20.141  0.00  0.00    +0.000 HD
BRANCH  22  25
ATOM     25  C   UNL     1      -4.555  11.594  18.656  0.00  0.00    +0.000 A 
ATOM     26  C   UNL     1      -5.493  10.636  18.235  0.00  0.00    +0.000 A 
ATOM     27  C   UNL     1      -6.839  10.770  18.580  0.00  0.00    +0.000 A 
ATOM     28  C   UNL     1      -7.255  11.860  19.340  0.00  0.00    +0.000 A 
ATOM     29  C   UNL     1      -6.326  12.804  19.781  0.00  0.00    +0.000 A 
ATOM     30  C   UNL     1      -4.975  12.702  19.427  0.00  0.00    +0.000 A 
BRANCH  30  31
ATOM     31  N   UNL     1      -4.055  13.575  20.047  0.00  0.00    +0.000 N 
ATOM     32  H   UNL     1      -3.266  13.827  19.463  0.00  0.00    +0.000 HD
ATOM     33  H   UNL     1      -3.741  13.194  20.950  0.00  0.00    +0.000 HD
ENDBRANCH  30  31
ENDBRANCH  22  25
ENDBRANCH  19  21
ENDBRANCH   4  19
TORSDOF 8
ENDMDL
MODEL 6
REMARK VINA RESULT:      -7.1      7.898      9.919
REMARK  Name = 
REMARK  10 active torsions:
REMARK  status: ('A' for Active; 'I' for Inactive)
REMARK    1  A    between atoms: C_1  and  C_2
REMARK    2  A    between atoms: C_2  and  C_3
REMARK    3  A    between atoms: C_3  and  S_4
REMARK    4  A    between atoms: S_4  and  N_7
REMARK    5  A    between atoms: C_10  and  C_11
REMARK    6  A    between atoms: C_10  and  C_17
REMARK    7  A    between atoms: C_17  and  C_18
REMARK    8  A    between atoms: C_17  and  N_19
REMARK    9  A    between atoms: C_20  and  C_22
REMARK   10  A    between atoms: C_27  and  N_28
REMARK                            x       y       z     vdW  Elec       q    Type
REMARK                         _______ _______ _______ _____ _____    ______ ____
ROOT
ATOM      1  N   UNL     1       1.603  14.361  20.206  0.00  0.00    +0.000 NA
ATOM      2  C   UNL     1       1.737  12.915  20.502  0.00  0.00    +0.000 C 
ATOM      3  C   UNL     1       0.762  12.076  19.684  0.00  0.00    +0.000 C 
ATOM      4  C   UNL     1      -0.733  12.441  19.919  0.00  0.00    +0.000 C 
ATOM      5  C   UNL     1      -0.812  13.966  19.583  0.00  0.00    +0.000 C 
ATOM      6  C   UNL     1       0.209  14.876  20.246  0.00  0.00    +0.000 C 
ENDROOT
BRANCH   4   7
ATOM      7  C   UNL     1      -1.639  11.674  18.909  0.00  0.00    +0.000 A 
ATOM      8  C   UNL     1      -2.985  12.029  18.708  0.00  0.00    +0.000 A 
ATOM      9  C   UNL     1      -3.833  11.246  17.922  0.00  0.00    +0.000 A 
ATOM     10  C   UNL     1      -3.356  10.096  17.302  0.00  0.00    +0.000 A 
ATOM     11  C   UNL     1      -2.016   9.753  17.434  0.00  0.00    +0.000 A 
ATOM     12  C   UNL     1      -1.166  10.544  18.208  0.00  0.00    +0.000 A 
ENDBRANCH   4   7
BRANCH   1  13
ATOM     13  S   UNL     1       2.685  15.335  21.146  0.00  0.00    +0.000 S 
ATOM     14  O   UNL     1       3.740  14.467  21.638  0.00  0.00    +0.000 OA
ATOM     15  O   UNL     1       1.912  16.158  22.043  0.00  0.00    +0.000 OA
BRANCH  13  16
ATOM     16  C   UNL     1       3.406  16.376  19.883  0.00  0.00    +0.000 C 
BRANCH  16  18
ATOM     17  C   UNL     1       3.061  16.590  17.398  0.00  0.00    +0.000 C 
ATOM     18  C   UNL     1       3.410  15.651  18.538  0.00  0.00    +0.000 C 
ENDBRANCH  16  18
ENDBRANCH  13  16
ENDBRANCH   1  13
BRANCH   4  19
ATOM     19  C   UNL     1      -1.162  12.140  21.411  0.00  0.00    +0.000 C 
ATOM     20  C   UNL     1      -0.588  10.853  22.027  0.00  0.00    +0.000 C 
BRANCH  19  21
ATOM     21  N   UNL     1      -2.616  12.098  21.581  0.00  0.00    +0.000 N 
ATOM     22  C   UNL     1      -3.278  13.032  22.348  0.00  0.00    +0.000 C 
ATOM     23  O   UNL     1      -2.703  14.000  22.844  0.00  0.00    +0.000 OA
ATOM     24  H   UNL     1      -3.093  11.256  21.285  0.00  0.00    +0.000 HD
BRANCH  22  25
ATOM     25  C   UNL     1      -4.745  12.852  22.559  0.00  0.00    +0.000 A 
ATOM     26  C   UNL     1      -5.631  12.787  21.470  0.00  0.00    +0.000 A 
ATOM     27  C   UNL     1      -7.008  12.728  21.686  0.00  0.00    +0.000 A 
ATOM     28  C   UNL     1      -7.509  12.740  22.985  0.00  0.00    +0.000 A 
ATOM     29  C   UNL     1      -6.636  12.782  24.073  0.00  0.00    +0.000 A 
ATOM     30  C   UNL     1      -5.251  12.865  23.880  0.00  0.00    +0.000 A 
BRANCH  30  31
ATOM     31  N   UNL     1      -4.411  12.720  25.005  0.00  0.00    +0.000 N 
ATOM     32  H   UNL     1      -4.796  13.103  25.862  0.00  0.00    +0.000 HD
ATOM     33  H   UNL     1      -3.476  13.105  24.815  0.00  0.00    +0.000 HD
ENDBRANCH  30  31
ENDBRANCH  22  25
ENDBRANCH  19  21
ENDBRANCH   4  19
TORSDOF 8
ENDMDL
MODEL 7
REMARK VINA RESULT:      -7.1      6.036     10.013
REMARK  Name = 
REMARK  10 active torsions:
REMARK  status: ('A' for Active; 'I' for Inactive)
REMARK    1  A    between atoms: C_1  and  C_2
REMARK    2  A    between atoms: C_2  and  C_3
REMARK    3  A    between atoms: C_3  and  S_4
REMARK    4  A    between atoms: S_4  and  N_7
REMARK    5  A    between atoms: C_10  and  C_11
REMARK    6  A    between atoms: C_10  and  C_17
REMARK    7  A    between atoms: C_17  and  C_18
REMARK    8  A    between atoms: C_17  and  N_19
REMARK    9  A    between atoms: C_20  and  C_22
REMARK   10  A    between atoms: C_27  and  N_28
REMARK                            x       y       z     vdW  Elec       q    Type
REMARK                         _______ _______ _______ _____ _____    ______ ____
ROOT
ATOM      1  N   UNL     1      -0.058  13.216  22.088  0.00  0.00    +0.000 NA
ATOM      2  C   UNL     1      -1.129  12.226  21.823  0.00  0.00    +0.000 C 
ATOM      3  C   UNL     1      -0.573  10.932  21.240  0.00  0.00    +0.000 C 
ATOM      4  C   UNL     1       0.197  11.124  19.901  0.00  0.00    +0.000 C 
ATOM      5  C   UNL     1       1.312  12.165  20.247  0.00  0.00    +0.000 C 
ATOM      6  C   UNL     1       0.878  13.437  20.955  0.00  0.00    +0.000 C 
ENDROOT
BRANCH   4   7
ATOM      7  C   UNL     1       0.889   9.792  19.482  0.00  0.00    +0.000 A 
ATOM      8  C   UNL     1       1.160   8.776  20.415  0.00  0.00    +0.000 A 
ATOM      9  C   UNL     1       1.916   7.653  20.069  0.00  0.00    +0.000 A 
ATOM     10  C   UNL     1       2.407   7.509  18.776  0.00  0.00    +0.000 A 
ATOM     11  C   UNL     1       2.105   8.467  17.817  0.00  0.00    +0.000 A 
ATOM     12  C   UNL     1       1.338   9.581  18.160  0.00  0.00    +0.000 A 
ENDBRANCH   4   7
BRANCH   1  13
ATOM     13  S   UNL     1      -0.673  14.705  22.726  0.00  0.00    +0.000 S 
ATOM     14  O   UNL     1      -1.614  15.241  21.760  0.00  0.00    +0.000 OA
ATOM     15  O   UNL     1       0.431  15.494  23.216  0.00  0.00    +0.000 OA
BRANCH  13  16
ATOM     16  C   UNL     1      -1.629  14.119  24.121  0.00  0.00    +0.000 C 
BRANCH  16  18
ATOM     17  C   UNL     1      -3.016  16.039  24.975  0.00  0.00    +0.000 C 
ATOM     18  C   UNL     1      -1.755  15.218  25.174  0.00  0.00    +0.000 C 
ENDBRANCH  16  18
ENDBRANCH  13  16
ENDBRANCH   1  13
BRANCH   4  19
ATOM     19  C   UNL     1      -0.768  11.647  18.762  0.00  0.00    +0.000 C 
ATOM     20  C   UNL     1      -0.471  13.058  18.228  0.00  0.00    +0.000 C 
BRANCH  19  21
ATOM     21  N   UNL     1      -2.177  11.616  19.160  0.00  0.00    +0.000 N 
ATOM     22  C   UNL     1      -3.188  11.592  18.224  0.00  0.00    +0.000 C 
ATOM     23  O   UNL     1      -2.964  11.496  17.019  0.00  0.00    +0.000 OA
ATOM     24  H   UNL     1      -2.389  11.810  20.131  0.00  0.00    +0.000 HD
BRANCH  22  25
ATOM     25  C   UNL     1      -4.597  11.672  18.713  0.00  0.00    +0.000 A 
ATOM     26  C   UNL     1      -5.555  10.722  18.320  0.00  0.00    +0.000 A 
ATOM     27  C   UNL     1      -6.890  10.871  18.698  0.00  0.00    +0.000 A 
ATOM     28  C   UNL     1      -7.278  11.969  19.461  0.00  0.00    +0.000 A 
ATOM     29  C   UNL     1      -6.329  12.906  19.874  0.00  0.00    +0.000 A 
ATOM     30  C   UNL     1      -4.988  12.788  19.489  0.00  0.00    +0.000 A 
BRANCH  30  31
ATOM     31  N   UNL     1      -4.045  13.655  20.081  0.00  0.00    +0.000 N 
ATOM     32  H   UNL     1      -4.168  14.632  19.836  0.00  0.00    +0.000 HD
ATOM     33  H   UNL     1      -3.085  13.342  19.884  0.00  0.00    +0.000 HD
ENDBRANCH  30  31
ENDBRANCH  22  25
ENDBRANCH  19  21
ENDBRANCH   4  19
TORSDOF 8
ENDMDL
MODEL 8
REMARK VINA RESULT:      -7.1      7.159      9.000
REMARK  Name = 
REMARK  10 active torsions:
REMARK  status: ('A' for Active; 'I' for Inactive)
REMARK    1  A    between atoms: C_1  and  C_2
REMARK    2  A    between atoms: C_2  and  C_3
REMARK    3  A    between atoms: C_3  and  S_4
REMARK    4  A    between atoms: S_4  and  N_7
REMARK    5  A    between atoms: C_10  and  C_11
REMARK    6  A    between atoms: C_10  and  C_17
REMARK    7  A    between atoms: C_17  and  C_18
REMARK    8  A    between atoms: C_17  and  N_19
REMARK    9  A    between atoms: C_20  and  C_22
REMARK   10  A    between atoms: C_27  and  N_28
REMARK                            x       y       z     vdW  Elec       q    Type
REMARK                         _______ _______ _______ _____ _____    ______ ____
ROOT
ATOM      1  N   UNL     1       2.910  14.666  19.344  0.00  0.00    +0.000 NA
ATOM      2  C   UNL     1       1.986  15.120  20.412  0.00  0.00    +0.000 C 
ATOM      3  C   UNL     1       1.370  13.946  21.164  0.00  0.00    +0.000 C 
ATOM      4  C   UNL     1       0.560  12.973  20.258  0.00  0.00    +0.000 C 
ATOM      5  C   UNL     1       1.585  12.525  19.166  0.00  0.00    +0.000 C 
ATOM      6  C   UNL     1       2.355  13.620  18.447  0.00  0.00    +0.000 C 
ENDROOT
BRANCH   4   7
ATOM      7  C   UNL     1       0.132  11.712  21.069  0.00  0.00    +0.000 A 
ATOM      8  C   UNL     1      -0.530  11.821  22.305  0.00  0.00    +0.000 A 
ATOM      9  C   UNL     1      -0.773  10.698  23.100  0.00  0.00    +0.000 A 
ATOM     10  C   UNL     1      -0.374   9.436  22.674  0.00  0.00    +0.000 A 
ATOM     11  C   UNL     1       0.228   9.290  21.431  0.00  0.00    +0.000 A 
ATOM     12  C   UNL     1       0.458  10.411  20.631  0.00  0.00    +0.000 A 
ENDBRANCH   4   7
BRANCH   1  13
ATOM     13  S   UNL     1       3.601  15.985  18.460  0.00  0.00    +0.000 S 
ATOM     14  O   UNL     1       3.202  17.215  19.122  0.00  0.00    +0.000 OA
ATOM     15  O   UNL     1       3.362  15.780  17.052  0.00  0.00    +0.000 OA
BRANCH  13  16
ATOM     16  C   UNL     1       5.344  15.754  18.789  0.00  0.00    +0.000 C 
BRANCH  16  18
ATOM     17  C   UNL     1       7.409  14.739  17.768  0.00  0.00    +0.000 C 
ATOM     18  C   UNL     1       5.903  14.631  17.919  0.00  0.00    +0.000 C 
ENDBRANCH  16  18
ENDBRANCH  13  16
ENDBRANCH   1  13
BRANCH   4  19
ATOM     19  C   UNL     1      -0.697  13.698  19.629  0.00  0.00    +0.000 C 
ATOM     20  C   UNL     1      -1.837  14.030  20.607  0.00  0.00    +0.000 C 
BRANCH  19  21
ATOM     21  N   UNL     1      -1.279  12.951  18.513  0.00  0.00    +0.000 N 
ATOM     22  C   UNL     1      -2.317  12.065  18.704  0.00  0.00    +0.000 C 
ATOM     23  O   UNL     1      -2.872  11.930  19.794  0.00  0.00    +0.000 OA
ATOM     24  H   UNL     1      -0.771  12.955  17.637  0.00  0.00    +0.000 HD
BRANCH  22  25
ATOM     25  C   UNL     1      -2.778  11.263  17.532  0.00  0.00    +0.000 A 
ATOM     26  C   UNL     1      -1.952  10.282  16.955  0.00  0.00    +0.000 A 
ATOM     27  C   UNL     1      -2.354   9.618  15.795  0.00  0.00    +0.000 A 
ATOM     28  C   UNL     1      -3.574   9.931  15.202  0.00  0.00    +0.000 A 
ATOM     29  C   UNL     1      -4.410  10.888  15.780  0.00  0.00    +0.000 A 
ATOM     30  C   UNL     1      -4.018  11.583  16.931  0.00  0.00    +0.000 A 
BRANCH  30  31
ATOM     31  N   UNL     1      -4.972  12.401  17.574  0.00  0.00    +0.000 N 
ATOM     32  H   UNL     1      -5.892  12.377  17.147  0.00  0.00    +0.000 HD
ATOM     33  H   UNL     1      -4.627  13.367  17.659  0.00  0.00    +0.000 HD
ENDBRANCH  30  31
ENDBRANCH  22  25
ENDBRANCH  19  21
ENDBRANCH   4  19
TORSDOF 8
ENDMDL
MODEL 9
REMARK VINA RESULT:      -7.1      7.938      9.977
REMARK  Name = 
REMARK  10 active torsions:
REMARK  status: ('A' for Active; 'I' for Inactive)
REMARK    1  A    between atoms: C_1  and  C_2
REMARK    2  A    between atoms: C_2  and  C_3
REMARK    3  A    between atoms: C_3  and  S_4
REMARK    4  A    between atoms: S_4  and  N_7
REMARK    5  A    between atoms: C_10  and  C_11
REMARK    6  A    between atoms: C_10  and  C_17
REMARK    7  A    between atoms: C_17  and  C_18
REMARK    8  A    between atoms: C_17  and  N_19
REMARK    9  A    between atoms: C_20  and  C_22
REMARK   10  A    between atoms: C_27  and  N_28
REMARK                            x       y       z     vdW  Elec       q    Type
REMARK                         _______ _______ _______ _____ _____    ______ ____
ROOT
ATOM      1  N   UNL     1       1.500  14.549  20.426  0.00  0.00    +0.000 NA
ATOM      2  C   UNL     1       1.749  13.109  20.673  0.00  0.00    +0.000 C 
ATOM      3  C   UNL     1       0.868  12.224  19.799  0.00  0.00    +0.000 C 
ATOM      4  C   UNL     1      -0.658  12.454  20.006  0.00  0.00    +0.000 C 
ATOM      5  C   UNL     1      -0.857  13.979  19.723  0.00  0.00    +0.000 C 
ATOM      6  C   UNL     1       0.068  14.944  20.446  0.00  0.00    +0.000 C 
ENDROOT
BRANCH   4   7
ATOM      7  C   UNL     1      -1.472  11.653  18.944  0.00  0.00    +0.000 A 
ATOM      8  C   UNL     1      -2.824  11.937  18.684  0.00  0.00    +0.000 A 
ATOM      9  C   UNL     1      -3.590  11.120  17.848  0.00  0.00    +0.000 A 
ATOM     10  C   UNL     1      -3.021  10.008  17.239  0.00  0.00    +0.000 A 
ATOM     11  C   UNL     1      -1.672   9.736  17.430  0.00  0.00    +0.000 A 
ATOM     12  C   UNL     1      -0.904  10.560  18.254  0.00  0.00    +0.000 A 
ENDBRANCH   4   7
BRANCH   1  13
ATOM     13  S   UNL     1       2.473  15.572  21.429  0.00  0.00    +0.000 S 
ATOM     14  O   UNL     1       2.943  14.773  22.547  0.00  0.00    +0.000 OA
ATOM     15  O   UNL     1       1.779  16.819  21.638  0.00  0.00    +0.000 OA
BRANCH  13  16
ATOM     16  C   UNL     1       3.882  15.867  20.366  0.00  0.00    +0.000 C 
BRANCH  16  18
ATOM     17  C   UNL     1       6.232  15.114  19.866  0.00  0.00    +0.000 C 
ATOM     18  C   UNL     1       5.100  15.101  20.877  0.00  0.00    +0.000 C 
ENDBRANCH  16  18
ENDBRANCH  13  16
ENDBRANCH   1  13
BRANCH   4  19
ATOM     19  C   UNL     1      -1.096  12.061  21.474  0.00  0.00    +0.000 C 
ATOM     20  C   UNL     1      -0.551  10.723  22.000  0.00  0.00    +0.000 C 
BRANCH  19  21
ATOM     21  N   UNL     1      -2.551  12.039  21.640  0.00  0.00    +0.000 N 
ATOM     22  C   UNL     1      -3.199  12.968  22.426  0.00  0.00    +0.000 C 
ATOM     23  O   UNL     1      -2.609  13.916  22.942  0.00  0.00    +0.000 OA
ATOM     24  H   UNL     1      -3.041  11.212  21.326  0.00  0.00    +0.000 HD
BRANCH  22  25
ATOM     25  C   UNL     1      -4.669  12.808  22.631  0.00  0.00    +0.000 A 
ATOM     26  C   UNL     1      -5.547  12.721  21.537  0.00  0.00    +0.000 A 
ATOM     27  C   UNL     1      -6.927  12.681  21.743  0.00  0.00    +0.000 A 
ATOM     28  C   UNL     1      -7.437  12.734  23.038  0.00  0.00    +0.000 A 
ATOM     29  C   UNL     1      -6.572  12.798  24.131  0.00  0.00    +0.000 A 
ATOM     30  C   UNL     1      -5.185  12.862  23.947  0.00  0.00    +0.000 A 
BRANCH  30  31
ATOM     31  N   UNL     1      -4.355  12.741  25.082  0.00  0.00    +0.000 N 
ATOM     32  H   UNL     1      -4.035  13.627  25.458  0.00  0.00    +0.000 HD
ATOM     33  H   UNL     1      -3.563  12.113  24.890  0.00  0.00    +0.000 HD
ENDBRANCH  30  31
ENDBRANCH  22  25
ENDBRANCH  19  21
ENDBRANCH   4  19
TORSDOF 8
ENDMDL
