MODEL 1
REMARK VINA RESULT:      -7.8      0.000      0.000
REMARK  Name = 
REMARK  8 active torsions:
REMARK  status: ('A' for Active; 'I' for Inactive)
REMARK    1  A    between atoms: C_1  and  C_2
REMARK    2  A    between atoms: C_5  and  C_6
REMARK    3  A    between atoms: N_10  and  C_11
REMARK    4  A    between atoms: C_11  and  C_12
REMARK    5  A    between atoms: N_14  and  C_15
REMARK    6  A    between atoms: N_14  and  C_19
REMARK    7  A    between atoms: C_15  and  C_16
REMARK    8  A    between atoms: C_16  and  C_17
REMARK                            x       y       z     vdW  Elec       q    Type
REMARK                         _______ _______ _______ _____ _____    ______ ____
ROOT
ATOM      1  C   UNL     1       4.690   6.148  16.774  0.00  0.00    +0.000 C 
ENDROOT
BRANCH   1   6
ATOM      2  C   UNL     1       7.040   5.535  16.248  0.00  0.00    +0.000 C 
ATOM      3  C   UNL     1       7.494   4.593  17.365  0.00  0.00    +0.000 C 
ATOM      4  C   UNL     1       7.632   5.502  18.557  0.00  0.00    +0.000 C 
ATOM      5  C   UNL     1       6.524   6.522  18.360  0.00  0.00    +0.000 C 
ATOM      6  N   UNL     1       6.121   6.501  16.933  0.00  0.00    +0.000 NA
BRANCH   2  11
ATOM      7  C   UNL     1       5.353   2.711  11.382  0.00  0.00    +0.000 C 
ATOM      8  C   UNL     1       5.779   3.441  12.620  0.00  0.00    +0.000 A 
ATOM      9  C   UNL     1       5.027   3.339  13.791  0.00  0.00    +0.000 A 
ATOM     10  C   UNL     1       5.423   4.018  14.948  0.00  0.00    +0.000 A 
ATOM     11  C   UNL     1       6.568   4.832  14.975  0.00  0.00    +0.000 A 
ATOM     12  C   UNL     1       7.315   4.925  13.788  0.00  0.00    +0.000 A 
ATOM     13  C   UNL     1       6.918   4.251  12.624  0.00  0.00    +0.000 A 
ENDBRANCH   2  11
ENDBRANCH   1   6
BRANCH   1  14
ATOM     14  C   UNL     1       3.718   6.639  17.888  0.00  0.00    +0.000 C 
ATOM     15  O   UNL     1       3.385   7.824  18.020  0.00  0.00    +0.000 OA
ATOM     16  N   UNL     1       3.253   5.655  18.794  0.00  0.00    +0.000 N 
BRANCH  16  17
ATOM     17  C   UNL     1       3.452   4.270  18.554  0.00  0.00    +0.000 A 
ATOM     18  C   UNL     1       2.642   3.605  17.629  0.00  0.00    +0.000 A 
ATOM     19  C   UNL     1       2.727   2.222  17.490  0.00  0.00    +0.000 A 
ATOM     20  C   UNL     1       3.641   1.500  18.253  0.00  0.00    +0.000 A 
ATOM     21  C   UNL     1       4.486   2.163  19.144  0.00  0.00    +0.000 A 
ATOM     22  C   UNL     1       4.400   3.550  19.292  0.00  0.00    +0.000 A 
ENDBRANCH  16  17
BRANCH  16  23
ATOM     23  C   UNL     1       2.346   6.036  19.887  0.00  0.00    +0.000 C 
BRANCH  23  24
ATOM     24  C   UNL     1       1.283   4.981  20.222  0.00  0.00    +0.000 C 
BRANCH  24  25
ATOM     25  C   UNL     1       1.749   3.984  21.270  0.00  0.00    +0.000 C 
ATOM     26  N   UNL     1       2.136   3.157  22.139  0.00  0.00    +0.000 NA
ENDBRANCH  24  25
ENDBRANCH  23  24
ENDBRANCH  16  23
ENDBRANCH   1  14
TORSDOF 7
ENDMDL
MODEL 2
REMARK VINA RESULT:      -7.5      2.131      6.790
REMARK  Name = 
REMARK  8 active torsions:
REMARK  status: ('A' for Active; 'I' for Inactive)
REMARK    1  A    between atoms: C_1  and  C_2
REMARK    2  A    between atoms: C_5  and  C_6
REMARK    3  A    between atoms: N_10  and  C_11
REMARK    4  A    between atoms: C_11  and  C_12
REMARK    5  A    between atoms: N_14  and  C_15
REMARK    6  A    between atoms: N_14  and  C_19
REMARK    7  A    between atoms: C_15  and  C_16
REMARK    8  A    between atoms: C_16  and  C_17
REMARK                            x       y       z     vdW  Elec       q    Type
REMARK                         _______ _______ _______ _____ _____    ______ ____
ROOT
ATOM      1  C   UNL     1       3.889   4.339  18.608  0.00  0.00    +0.000 C 
ENDROOT
BRANCH   1   6
ATOM      2  C   UNL     1       1.868   4.810  19.973  0.00  0.00    +0.000 C 
ATOM      3  C   UNL     1       2.270   4.560  21.428  0.00  0.00    +0.000 C 
ATOM      4  C   UNL     1       2.398   3.062  21.506  0.00  0.00    +0.000 C 
ATOM      5  C   UNL     1       2.928   2.677  20.135  0.00  0.00    +0.000 C 
ATOM      6  N   UNL     1       2.645   3.789  19.197  0.00  0.00    +0.000 NA
BRANCH   2  11
ATOM      7  C   UNL     1       1.916  10.418  18.229  0.00  0.00    +0.000 C 
ATOM      8  C   UNL     1       1.914   8.987  18.676  0.00  0.00    +0.000 A 
ATOM      9  C   UNL     1       1.581   8.660  19.991  0.00  0.00    +0.000 A 
ATOM     10  C   UNL     1       1.578   7.327  20.409  0.00  0.00    +0.000 A 
ATOM     11  C   UNL     1       1.921   6.276  19.541  0.00  0.00    +0.000 A 
ATOM     12  C   UNL     1       2.254   6.620  18.220  0.00  0.00    +0.000 A 
ATOM     13  C   UNL     1       2.265   7.958  17.798  0.00  0.00    +0.000 A 
ENDBRANCH   2  11
ENDBRANCH   1   6
BRANCH   1  14
ATOM     14  C   UNL     1       4.359   3.718  17.258  0.00  0.00    +0.000 C 
ATOM     15  O   UNL     1       3.690   2.890  16.625  0.00  0.00    +0.000 OA
ATOM     16  N   UNL     1       5.636   4.117  16.794  0.00  0.00    +0.000 N 
BRANCH  16  17
ATOM     17  C   UNL     1       6.335   5.204  17.383  0.00  0.00    +0.000 A 
ATOM     18  C   UNL     1       6.092   6.506  16.936  0.00  0.00    +0.000 A 
ATOM     19  C   UNL     1       6.872   7.563  17.400  0.00  0.00    +0.000 A 
ATOM     20  C   UNL     1       7.879   7.328  18.333  0.00  0.00    +0.000 A 
ATOM     21  C   UNL     1       8.095   6.038  18.819  0.00  0.00    +0.000 A 
ATOM     22  C   UNL     1       7.320   4.974  18.351  0.00  0.00    +0.000 A 
ENDBRANCH  16  17
BRANCH  16  23
ATOM     23  C   UNL     1       6.163   3.566  15.537  0.00  0.00    +0.000 C 
BRANCH  23  24
ATOM     24  C   UNL     1       5.938   4.461  14.311  0.00  0.00    +0.000 C 
BRANCH  24  25
ATOM     25  C   UNL     1       7.214   5.125  13.822  0.00  0.00    +0.000 C 
ATOM     26  N   UNL     1       8.273   5.676  13.416  0.00  0.00    +0.000 NA
ENDBRANCH  24  25
ENDBRANCH  23  24
ENDBRANCH  16  23
ENDBRANCH   1  14
TORSDOF 7
ENDMDL
MODEL 3
REMARK VINA RESULT:      -7.5      2.265      6.771
REMARK  Name = 
REMARK  8 active torsions:
REMARK  status: ('A' for Active; 'I' for Inactive)
REMARK    1  A    between atoms: C_1  and  C_2
REMARK    2  A    between atoms: C_5  and  C_6
REMARK    3  A    between atoms: N_10  and  C_11
REMARK    4  A    between atoms: C_11  and  C_12
REMARK    5  A    between atoms: N_14  and  C_15
REMARK    6  A    between atoms: N_14  and  C_19
REMARK    7  A    between atoms: C_15  and  C_16
REMARK    8  A    between atoms: C_16  and  C_17
REMARK                            x       y       z     vdW  Elec       q    Type
REMARK                         _______ _______ _______ _____ _____    ______ ____
ROOT
ATOM      1  C   UNL     1       4.068   4.266  18.640  0.00  0.00    +0.000 C 
ENDROOT
BRANCH   1   6
ATOM      2  C   UNL     1       1.978   4.653  19.927  0.00  0.00    +0.000 C 
ATOM      3  C   UNL     1       2.349   4.485  21.401  0.00  0.00    +0.000 C 
ATOM      4  C   UNL     1       2.572   3.002  21.541  0.00  0.00    +0.000 C 
ATOM      5  C   UNL     1       3.170   2.603  20.203  0.00  0.00    +0.000 C 
ATOM      6  N   UNL     1       2.844   3.658  19.214  0.00  0.00    +0.000 NA
BRANCH   2  11
ATOM      7  C   UNL     1       2.026  10.243  18.125  0.00  0.00    +0.000 C 
ATOM      8  C   UNL     1       2.003   8.816  18.584  0.00  0.00    +0.000 A 
ATOM      9  C   UNL     1       2.258   7.782  17.683  0.00  0.00    +0.000 A 
ATOM     10  C   UNL     1       2.238   6.451  18.108  0.00  0.00    +0.000 A 
ATOM     11  C   UNL     1       1.949   6.102  19.439  0.00  0.00    +0.000 A 
ATOM     12  C   UNL     1       1.694   7.153  20.335  0.00  0.00    +0.000 A 
ATOM     13  C   UNL     1       1.706   8.490  19.911  0.00  0.00    +0.000 A 
ENDBRANCH   2  11
ENDBRANCH   1   6
BRANCH   1  14
ATOM     14  C   UNL     1       4.533   3.731  17.253  0.00  0.00    +0.000 C 
ATOM     15  O   UNL     1       3.874   2.921  16.586  0.00  0.00    +0.000 OA
ATOM     16  N   UNL     1       5.792   4.186  16.793  0.00  0.00    +0.000 N 
BRANCH  16  17
ATOM     17  C   UNL     1       6.473   5.257  17.430  0.00  0.00    +0.000 A 
ATOM     18  C   UNL     1       6.335   6.556  16.934  0.00  0.00    +0.000 A 
ATOM     19  C   UNL     1       7.108   7.591  17.456  0.00  0.00    +0.000 A 
ATOM     20  C   UNL     1       8.001   7.338  18.494  0.00  0.00    +0.000 A 
ATOM     21  C   UNL     1       8.110   6.052  19.025  0.00  0.00    +0.000 A 
ATOM     22  C   UNL     1       7.341   5.010  18.501  0.00  0.00    +0.000 A 
ENDBRANCH  16  17
BRANCH  16  23
ATOM     23  C   UNL     1       6.314   3.715  15.502  0.00  0.00    +0.000 C 
BRANCH  23  24
ATOM     24  C   UNL     1       5.659   4.372  14.279  0.00  0.00    +0.000 C 
BRANCH  24  25
ATOM     25  C   UNL     1       5.944   3.629  12.985  0.00  0.00    +0.000 C 
ATOM     26  N   UNL     1       6.180   3.011  11.911  0.00  0.00    +0.000 NA
ENDBRANCH  24  25
ENDBRANCH  23  24
ENDBRANCH  16  23
ENDBRANCH   1  14
TORSDOF 7
ENDMDL
MODEL 4
REMARK VINA RESULT:      -7.5      2.319      5.126
REMARK  Name = 
REMARK  8 active torsions:
REMARK  status: ('A' for Active; 'I' for Inactive)
REMARK    1  A    between atoms: C_1  and  C_2
REMARK    2  A    between atoms: C_5  and  C_6
REMARK    3  A    between atoms: N_10  and  C_11
REMARK    4  A    between atoms: C_11  and  C_12
REMARK    5  A    between atoms: N_14  and  C_15
REMARK    6  A    between atoms: N_14  and  C_19
REMARK    7  A    between atoms: C_15  and  C_16
REMARK    8  A    between atoms: C_16  and  C_17
REMARK                            x       y       z     vdW  Elec       q    Type
REMARK                         _______ _______ _______ _____ _____    ______ ____
ROOT
ATOM      1  C   UNL     1       4.895   5.301  18.620  0.00  0.00    +0.000 C 
ENDROOT
BRANCH   1   6
ATOM      2  C   UNL     1       6.674   5.301  16.886  0.00  0.00    +0.000 C 
ATOM      3  C   UNL     1       5.967   5.545  15.551  0.00  0.00    +0.000 C 
ATOM      4  C   UNL     1       5.238   4.253  15.298  0.00  0.00    +0.000 C 
ATOM      5  C   UNL     1       4.836   3.790  16.689  0.00  0.00    +0.000 C 
ATOM      6  N   UNL     1       5.695   4.485  17.676  0.00  0.00    +0.000 NA
BRANCH   2  11
ATOM      7  C   UNL     1       9.187  10.052  19.255  0.00  0.00    +0.000 C 
ATOM      8  C   UNL     1       8.538   8.840  18.657  0.00  0.00    +0.000 A 
ATOM      9  C   UNL     1       7.775   8.951  17.494  0.00  0.00    +0.000 A 
ATOM     10  C   UNL     1       7.169   7.823  16.934  0.00  0.00    +0.000 A 
ATOM     11  C   UNL     1       7.287   6.550  17.519  0.00  0.00    +0.000 A 
ATOM     12  C   UNL     1       8.058   6.453  18.690  0.00  0.00    +0.000 A 
ATOM     13  C   UNL     1       8.662   7.585  19.259  0.00  0.00    +0.000 A 
ENDBRANCH   2  11
ENDBRANCH   1   6
BRANCH   1  14
ATOM     14  C   UNL     1       4.001   4.525  19.634  0.00  0.00    +0.000 C 
ATOM     15  O   UNL     1       4.323   3.433  20.121  0.00  0.00    +0.000 OA
ATOM     16  N   UNL     1       2.753   5.114  19.951  0.00  0.00    +0.000 N 
BRANCH  16  17
ATOM     17  C   UNL     1       2.443   6.447  19.571  0.00  0.00    +0.000 A 
ATOM     18  C   UNL     1       1.906   7.327  20.514  0.00  0.00    +0.000 A 
ATOM     19  C   UNL     1       1.462   8.588  20.124  0.00  0.00    +0.000 A 
ATOM     20  C   UNL     1       1.579   8.986  18.795  0.00  0.00    +0.000 A 
ATOM     21  C   UNL     1       2.158   8.130  17.856  0.00  0.00    +0.000 A 
ATOM     22  C   UNL     1       2.598   6.862  18.243  0.00  0.00    +0.000 A 
ENDBRANCH  16  17
BRANCH  16  23
ATOM     23  C   UNL     1       1.841   4.439  20.885  0.00  0.00    +0.000 C 
BRANCH  23  24
ATOM     24  C   UNL     1       0.699   3.670  20.208  0.00  0.00    +0.000 C 
BRANCH  24  25
ATOM     25  C   UNL     1       1.141   2.940  18.951  0.00  0.00    +0.000 C 
ATOM     26  N   UNL     1       1.508   2.334  17.908  0.00  0.00    +0.000 NA
ENDBRANCH  24  25
ENDBRANCH  23  24
ENDBRANCH  16  23
ENDBRANCH   1  14
TORSDOF 7
ENDMDL
MODEL 5
REMARK VINA RESULT:      -7.3      0.156      1.345
REMARK  Name = 
REMARK  8 active torsions:
REMARK  status: ('A' for Active; 'I' for Inactive)
REMARK    1  A    between atoms: C_1  and  C_2
REMARK    2  A    between atoms: C_5  and  C_6
REMARK    3  A    between atoms: N_10  and  C_11
REMARK    4  A    between atoms: C_11  and  C_12
REMARK    5  A    between atoms: N_14  and  C_15
REMARK    6  A    between atoms: N_14  and  C_19
REMARK    7  A    between atoms: C_15  and  C_16
REMARK    8  A    between atoms: C_16  and  C_17
REMARK                            x       y       z     vdW  Elec       q    Type
REMARK                         _______ _______ _______ _____ _____    ______ ____
ROOT
ATOM      1  C   UNL     1       4.703   6.016  16.922  0.00  0.00    +0.000 C 
ENDROOT
BRANCH   1   6
ATOM      2  C   UNL     1       7.069   5.478  16.386  0.00  0.00    +0.000 C 
ATOM      3  C   UNL     1       7.554   4.543  17.494  0.00  0.00    +0.000 C 
ATOM      4  C   UNL     1       7.668   5.447  18.693  0.00  0.00    +0.000 C 
ATOM      5  C   UNL     1       6.528   6.434  18.506  0.00  0.00    +0.000 C 
ATOM      6  N   UNL     1       6.122   6.411  17.080  0.00  0.00    +0.000 NA
BRANCH   2  11
ATOM      7  C   UNL     1       5.204   2.885  11.456  0.00  0.00    +0.000 C 
ATOM      8  C   UNL     1       5.685   3.538  12.717  0.00  0.00    +0.000 A 
ATOM      9  C   UNL     1       6.861   4.288  12.718  0.00  0.00    +0.000 A 
ATOM     10  C   UNL     1       7.310   4.899  13.893  0.00  0.00    +0.000 A 
ATOM     11  C   UNL     1       6.615   4.771  15.108  0.00  0.00    +0.000 A 
ATOM     12  C   UNL     1       5.433   4.012  15.092  0.00  0.00    +0.000 A 
ATOM     13  C   UNL     1       4.982   3.392  13.917  0.00  0.00    +0.000 A 
ENDBRANCH   2  11
ENDBRANCH   1   6
BRANCH   1  14
ATOM     14  C   UNL     1       3.703   6.550  17.990  0.00  0.00    +0.000 C 
ATOM     15  O   UNL     1       3.412   7.749  18.104  0.00  0.00    +0.000 OA
ATOM     16  N   UNL     1       3.158   5.590  18.877  0.00  0.00    +0.000 N 
BRANCH  16  17
ATOM     17  C   UNL     1       3.311   4.196  18.649  0.00  0.00    +0.000 A 
ATOM     18  C   UNL     1       4.316   3.493  19.318  0.00  0.00    +0.000 A 
ATOM     19  C   UNL     1       4.572   2.162  18.999  0.00  0.00    +0.000 A 
ATOM     20  C   UNL     1       3.807   1.520  18.028  0.00  0.00    +0.000 A 
ATOM     21  C   UNL     1       2.771   2.203  17.389  0.00  0.00    +0.000 A 
ATOM     22  C   UNL     1       2.515   3.540  17.703  0.00  0.00    +0.000 A 
ENDBRANCH  16  17
BRANCH  16  23
ATOM     23  C   UNL     1       2.220   6.012  19.927  0.00  0.00    +0.000 C 
BRANCH  23  24
ATOM     24  C   UNL     1       1.188   4.945  20.318  0.00  0.00    +0.000 C 
BRANCH  24  25
ATOM     25  C   UNL     1       1.719   3.956  21.341  0.00  0.00    +0.000 C 
ATOM     26  N   UNL     1       2.159   3.135  22.191  0.00  0.00    +0.000 NA
ENDBRANCH  24  25
ENDBRANCH  23  24
ENDBRANCH  16  23
ENDBRANCH   1  14
TORSDOF 7
ENDMDL
MODEL 6
REMARK VINA RESULT:      -7.1      2.195      4.964
REMARK  Name = 
REMARK  8 active torsions:
REMARK  status: ('A' for Active; 'I' for Inactive)
REMARK    1  A    between atoms: C_1  and  C_2
REMARK    2  A    between atoms: C_5  and  C_6
REMARK    3  A    between atoms: N_10  and  C_11
REMARK    4  A    between atoms: C_11  and  C_12
REMARK    5  A    between atoms: N_14  and  C_15
REMARK    6  A    between atoms: N_14  and  C_19
REMARK    7  A    between atoms: C_15  and  C_16
REMARK    8  A    between atoms: C_16  and  C_17
REMARK                            x       y       z     vdW  Elec       q    Type
REMARK                         _______ _______ _______ _____ _____    ______ ____
ROOT
ATOM      1  C   UNL     1       4.708   5.120  18.073  0.00  0.00    +0.000 C 
ENDROOT
BRANCH   1   6
ATOM      2  C   UNL     1       6.684   5.103  16.567  0.00  0.00    +0.000 C 
ATOM      3  C   UNL     1       6.152   5.400  15.164  0.00  0.00    +0.000 C 
ATOM      4  C   UNL     1       5.422   4.138  14.790  0.00  0.00    +0.000 C 
ATOM      5  C   UNL     1       4.841   3.656  16.109  0.00  0.00    +0.000 C 
ATOM      6  N   UNL     1       5.594   4.301  17.211  0.00  0.00    +0.000 NA
BRANCH   2  11
ATOM      7  C   UNL     1       9.025   9.725  19.334  0.00  0.00    +0.000 C 
ATOM      8  C   UNL     1       8.419   8.546  18.634  0.00  0.00    +0.000 A 
ATOM      9  C   UNL     1       7.711   8.720  17.445  0.00  0.00    +0.000 A 
ATOM     10  C   UNL     1       7.146   7.622  16.790  0.00  0.00    +0.000 A 
ATOM     11  C   UNL     1       7.252   6.317  17.303  0.00  0.00    +0.000 A 
ATOM     12  C   UNL     1       7.968   6.157  18.501  0.00  0.00    +0.000 A 
ATOM     13  C   UNL     1       8.530   7.257  19.165  0.00  0.00    +0.000 A 
ENDBRANCH   2  11
ENDBRANCH   1   6
BRANCH   1  14
ATOM     14  C   UNL     1       4.113   4.421  19.332  0.00  0.00    +0.000 C 
ATOM     15  O   UNL     1       4.593   3.390  19.823  0.00  0.00    +0.000 OA
ATOM     16  N   UNL     1       2.946   5.004  19.882  0.00  0.00    +0.000 N 
BRANCH  16  17
ATOM     17  C   UNL     1       2.491   6.285  19.472  0.00  0.00    +0.000 A 
ATOM     18  C   UNL     1       2.707   6.708  18.158  0.00  0.00    +0.000 A 
ATOM     19  C   UNL     1       2.398   8.013  17.782  0.00  0.00    +0.000 A 
ATOM     20  C   UNL     1       1.847   8.893  18.710  0.00  0.00    +0.000 A 
ATOM     21  C   UNL     1       1.585   8.463  20.011  0.00  0.00    +0.000 A 
ATOM     22  C   UNL     1       1.899   7.157  20.395  0.00  0.00    +0.000 A 
ENDBRANCH  16  17
BRANCH  16  23
ATOM     23  C   UNL     1       2.310   4.397  21.060  0.00  0.00    +0.000 C 
BRANCH  23  24
ATOM     24  C   UNL     1       0.965   3.715  20.771  0.00  0.00    +0.000 C 
BRANCH  24  25
ATOM     25  C   UNL     1       0.968   2.931  19.469  0.00  0.00    +0.000 C 
ATOM     26  N   UNL     1       0.969   2.279  18.390  0.00  0.00    +0.000 NA
ENDBRANCH  24  25
ENDBRANCH  23  24
ENDBRANCH  16  23
ENDBRANCH   1  14
TORSDOF 7
ENDMDL
MODEL 7
REMARK VINA RESULT:      -7.0      1.240      1.631
REMARK  Name = 
REMARK  8 active torsions:
REMARK  status: ('A' for Active; 'I' for Inactive)
REMARK    1  A    between atoms: C_1  and  C_2
REMARK    2  A    between atoms: C_5  and  C_6
REMARK    3  A    between atoms: N_10  and  C_11
REMARK    4  A    between atoms: C_11  and  C_12
REMARK    5  A    between atoms: N_14  and  C_15
REMARK    6  A    between atoms: N_14  and  C_19
REMARK    7  A    between atoms: C_15  and  C_16
REMARK    8  A    between atoms: C_16  and  C_17
REMARK                            x       y       z     vdW  Elec       q    Type
REMARK                         _______ _______ _______ _____ _____    ______ ____
ROOT
ATOM      1  C   UNL     1       4.818   6.345  16.614  0.00  0.00    +0.000 C 
ENDROOT
BRANCH   1   6
ATOM      2  C   UNL     1       7.115   5.520  16.150  0.00  0.00    +0.000 C 
ATOM      3  C   UNL     1       7.471   4.582  17.305  0.00  0.00    +0.000 C 
ATOM      4  C   UNL     1       7.668   5.516  18.469  0.00  0.00    +0.000 C 
ATOM      5  C   UNL     1       6.652   6.618  18.219  0.00  0.00    +0.000 C 
ATOM      6  N   UNL     1       6.271   6.583  16.787  0.00  0.00    +0.000 NA
BRANCH   2  11
ATOM      7  C   UNL     1       5.276   2.688  11.344  0.00  0.00    +0.000 C 
ATOM      8  C   UNL     1       5.741   3.420  12.567  0.00  0.00    +0.000 A 
ATOM      9  C   UNL     1       5.000   3.360  13.748  0.00  0.00    +0.000 A 
ATOM     10  C   UNL     1       5.433   4.041  14.890  0.00  0.00    +0.000 A 
ATOM     11  C   UNL     1       6.605   4.816  14.892  0.00  0.00    +0.000 A 
ATOM     12  C   UNL     1       7.341   4.867  13.696  0.00  0.00    +0.000 A 
ATOM     13  C   UNL     1       6.907   4.191  12.546  0.00  0.00    +0.000 A 
ENDBRANCH   2  11
ENDBRANCH   1   6
BRANCH   1  14
ATOM     14  C   UNL     1       3.876   6.939  17.703  0.00  0.00    +0.000 C 
ATOM     15  O   UNL     1       3.620   8.148  17.789  0.00  0.00    +0.000 OA
ATOM     16  N   UNL     1       3.343   6.022  18.641  0.00  0.00    +0.000 N 
BRANCH  16  17
ATOM     17  C   UNL     1       3.452   4.619  18.453  0.00  0.00    +0.000 A 
ATOM     18  C   UNL     1       2.617   3.978  17.535  0.00  0.00    +0.000 A 
ATOM     19  C   UNL     1       2.610   2.588  17.444  0.00  0.00    +0.000 A 
ATOM     20  C   UNL     1       3.458   1.834  18.252  0.00  0.00    +0.000 A 
ATOM     21  C   UNL     1       4.328   2.470  19.138  0.00  0.00    +0.000 A 
ATOM     22  C   UNL     1       4.334   3.863  19.236  0.00  0.00    +0.000 A 
ENDBRANCH  16  17
BRANCH  16  23
ATOM     23  C   UNL     1       2.459   6.502  19.713  0.00  0.00    +0.000 C 
BRANCH  23  24
ATOM     24  C   UNL     1       1.852   7.889  19.458  0.00  0.00    +0.000 C 
BRANCH  24  25
ATOM     25  C   UNL     1       1.300   8.533  20.718  0.00  0.00    +0.000 C 
ATOM     26  N   UNL     1       0.842   9.068  21.764  0.00  0.00    +0.000 NA
ENDBRANCH  24  25
ENDBRANCH  23  24
ENDBRANCH  16  23
ENDBRANCH   1  14
TORSDOF 7
ENDMDL
MODEL 8
REMARK VINA RESULT:      -7.0      2.081      6.772
REMARK  Name = 
REMARK  8 active torsions:
REMARK  status: ('A' for Active; 'I' for Inactive)
REMARK    1  A    between atoms: C_1  and  C_2
REMARK    2  A    between atoms: C_5  and  C_6
REMARK    3  A    between atoms: N_10  and  C_11
REMARK    4  A    between atoms: C_11  and  C_12
REMARK    5  A    between atoms: N_14  and  C_15
REMARK    6  A    between atoms: N_14  and  C_19
REMARK    7  A    between atoms: C_15  and  C_16
REMARK    8  A    between atoms: C_16  and  C_17
REMARK                            x       y       z     vdW  Elec       q    Type
REMARK                         _______ _______ _______ _____ _____    ______ ____
ROOT
ATOM      1  C   UNL     1       4.172   4.168  18.534  0.00  0.00    +0.000 C 
ENDROOT
BRANCH   1   6
ATOM      2  C   UNL     1       2.128   4.564  19.891  0.00  0.00    +0.000 C 
ATOM      3  C   UNL     1       2.554   4.424  21.353  0.00  0.00    +0.000 C 
ATOM      4  C   UNL     1       2.792   2.945  21.510  0.00  0.00    +0.000 C 
ATOM      5  C   UNL     1       3.343   2.526  20.157  0.00  0.00    +0.000 C 
ATOM      6  N   UNL     1       2.974   3.562  19.164  0.00  0.00    +0.000 NA
BRANCH   2  11
ATOM      7  C   UNL     1       2.068  10.124  17.997  0.00  0.00    +0.000 C 
ATOM      8  C   UNL     1       2.073   8.704  18.479  0.00  0.00    +0.000 A 
ATOM      9  C   UNL     1       2.337   7.659  17.593  0.00  0.00    +0.000 A 
ATOM     10  C   UNL     1       2.343   6.335  18.041  0.00  0.00    +0.000 A 
ATOM     11  C   UNL     1       2.071   6.004  19.379  0.00  0.00    +0.000 A 
ATOM     12  C   UNL     1       1.806   7.066  20.260  0.00  0.00    +0.000 A 
ATOM     13  C   UNL     1       1.793   8.395  19.814  0.00  0.00    +0.000 A 
ENDBRANCH   2  11
ENDBRANCH   1   6
BRANCH   1  14
ATOM     14  C   UNL     1       4.535   3.676  17.102  0.00  0.00    +0.000 C 
ATOM     15  O   UNL     1       3.792   2.949  16.428  0.00  0.00    +0.000 OA
ATOM     16  N   UNL     1       5.801   4.069  16.604  0.00  0.00    +0.000 N 
BRANCH  16  17
ATOM     17  C   UNL     1       6.583   5.057  17.260  0.00  0.00    +0.000 A 
ATOM     18  C   UNL     1       7.426   4.686  18.311  0.00  0.00    +0.000 A 
ATOM     19  C   UNL     1       8.087   5.659  19.056  0.00  0.00    +0.000 A 
ATOM     20  C   UNL     1       7.930   7.006  18.737  0.00  0.00    +0.000 A 
ATOM     21  C   UNL     1       7.128   7.380  17.659  0.00  0.00    +0.000 A 
ATOM     22  C   UNL     1       6.458   6.408  16.912  0.00  0.00    +0.000 A 
ENDBRANCH  16  17
BRANCH  16  23
ATOM     23  C   UNL     1       6.230   3.633  15.268  0.00  0.00    +0.000 C 
BRANCH  23  24
ATOM     24  C   UNL     1       6.009   4.675  14.162  0.00  0.00    +0.000 C 
BRANCH  24  25
ATOM     25  C   UNL     1       7.308   5.243  13.616  0.00  0.00    +0.000 C 
ATOM     26  N   UNL     1       8.386   5.714  13.162  0.00  0.00    +0.000 NA
ENDBRANCH  24  25
ENDBRANCH  23  24
ENDBRANCH  16  23
ENDBRANCH   1  14
TORSDOF 7
ENDMDL
MODEL 9
REMARK VINA RESULT:      -7.0      1.442      1.929
REMARK  Name = 
REMARK  8 active torsions:
REMARK  status: ('A' for Active; 'I' for Inactive)
REMARK    1  A    between atoms: C_1  and  C_2
REMARK    2  A    between atoms: C_5  and  C_6
REMARK    3  A    between atoms: N_10  and  C_11
REMARK    4  A    between atoms: C_11  and  C_12
REMARK    5  A    between atoms: N_14  and  C_15
REMARK    6  A    between atoms: N_14  and  C_19
REMARK    7  A    between atoms: C_15  and  C_16
REMARK    8  A    between atoms: C_16  and  C_17
REMARK                            x       y       z     vdW  Elec       q    Type
REMARK                         _______ _______ _______ _____ _____    ______ ____
ROOT
ATOM      1  C   UNL     1       4.876   6.291  16.560  0.00  0.00    +0.000 C 
ENDROOT
BRANCH   1   6
ATOM      2  C   UNL     1       7.223   5.548  16.221  0.00  0.00    +0.000 C 
ATOM      3  C   UNL     1       7.566   4.662  17.421  0.00  0.00    +0.000 C 
ATOM      4  C   UNL     1       7.674   5.640  18.560  0.00  0.00    +0.000 C 
ATOM      5  C   UNL     1       6.627   6.691  18.231  0.00  0.00    +0.000 C 
ATOM      6  N   UNL     1       6.310   6.594  16.786  0.00  0.00    +0.000 NA
BRANCH   2  11
ATOM      7  C   UNL     1       5.452   2.727  11.383  0.00  0.00    +0.000 C 
ATOM      8  C   UNL     1       5.909   3.438  12.621  0.00  0.00    +0.000 A 
ATOM      9  C   UNL     1       7.016   4.287  12.577  0.00  0.00    +0.000 A 
ATOM     10  C   UNL     1       7.443   4.952  13.730  0.00  0.00    +0.000 A 
ATOM     11  C   UNL     1       6.797   4.784  14.967  0.00  0.00    +0.000 A 
ATOM     12  C   UNL     1       5.685   3.926  14.996  0.00  0.00    +0.000 A 
ATOM     13  C   UNL     1       5.256   3.251  13.843  0.00  0.00    +0.000 A 
ENDBRANCH   2  11
ENDBRANCH   1   6
BRANCH   1  14
ATOM     14  C   UNL     1       3.844   7.199  17.292  0.00  0.00    +0.000 C 
ATOM     15  O   UNL     1       3.745   8.416  17.082  0.00  0.00    +0.000 OA
ATOM     16  N   UNL     1       3.030   6.569  18.264  0.00  0.00    +0.000 N 
BRANCH  16  17
ATOM     17  C   UNL     1       2.977   5.155  18.385  0.00  0.00    +0.000 A 
ATOM     18  C   UNL     1       1.898   4.454  17.841  0.00  0.00    +0.000 A 
ATOM     19  C   UNL     1       1.758   3.089  18.076  0.00  0.00    +0.000 A 
ATOM     20  C   UNL     1       2.711   2.412  18.834  0.00  0.00    +0.000 A 
ATOM     21  C   UNL     1       3.816   3.096  19.341  0.00  0.00    +0.000 A 
ATOM     22  C   UNL     1       3.957   4.467  19.112  0.00  0.00    +0.000 A 
ENDBRANCH  16  17
BRANCH  16  23
ATOM     23  C   UNL     1       2.042   7.357  19.014  0.00  0.00    +0.000 C 
BRANCH  23  24
ATOM     24  C   UNL     1       2.001   7.052  20.518  0.00  0.00    +0.000 C 
BRANCH  24  25
ATOM     25  C   UNL     1       1.274   8.120  21.318  0.00  0.00    +0.000 C 
ATOM     26  N   UNL     1       0.671   9.006  21.983  0.00  0.00    +0.000 NA
ENDBRANCH  24  25
ENDBRANCH  23  24
ENDBRANCH  16  23
ENDBRANCH   1  14
TORSDOF 7
ENDMDL
