MODEL 1
REMARK VINA RESULT:      -6.8      0.000      0.000
REMARK  Name = 
REMARK  4 active torsions:
REMARK  status: ('A' for Active; 'I' for Inactive)
REMARK    1  A    between atoms: C_1  and  C_2
REMARK    2  A    between atoms: C_10  and  S_11
REMARK    3  A    between atoms: S_11  and  N_14
REMARK    4  A    between atoms: C_20  and  C_21
REMARK                            x       y       z     vdW  Elec       q    Type
REMARK                         _______ _______ _______ _____ _____    ______ ____
ROOT
ATOM      1  S   UNL     1       3.668   3.252  17.472  0.00  0.00    +0.000 S 
ATOM      2  O   UNL     1       4.113   1.882  17.594  0.00  0.00    +0.000 OA
ATOM      3  O   UNL     1       2.975   3.697  16.281  0.00  0.00    +0.000 OA
ENDROOT
BRANCH   1  13
ATOM      4  C   UNL     1       3.085   6.418  17.275  0.00  0.00    +0.000 C 
ATOM      5  C   UNL     1       2.569   6.216  18.673  0.00  0.00    +0.000 A 
ATOM      6  C   UNL     1       2.264   7.397  19.365  0.00  0.00    +0.000 A 
ATOM      7  N   UNL     1       1.706   7.458  20.582  0.00  0.00    +0.000 NA
ATOM      8  C   UNL     1       1.403   6.277  21.140  0.00  0.00    +0.000 A 
ATOM      9  C   UNL     1       1.641   5.030  20.563  0.00  0.00    +0.000 A 
ATOM     10  C   UNL     1       1.217   3.900  21.277  0.00  0.00    +0.000 A 
ATOM     11  C   UNL     1       1.390   2.631  20.763  0.00  0.00    +0.000 A 
ATOM     12  C   UNL     1       2.042   2.478  19.553  0.00  0.00    +0.000 A 
ATOM     13  C   UNL     1       2.537   3.584  18.837  0.00  0.00    +0.000 A 
ATOM     14  C   UNL     1       2.288   4.940  19.294  0.00  0.00    +0.000 A 
ENDBRANCH   1  13
BRANCH   1  15
ATOM     15  N   UNL     1       5.053   4.281  17.642  0.00  0.00    +0.000 NA
ATOM     16  C   UNL     1       5.563   4.367  19.052  0.00  0.00    +0.000 C 
ATOM     17  C   UNL     1       6.498   5.526  19.369  0.00  0.00    +0.000 C 
ATOM     18  C   UNL     1       7.844   5.420  18.664  0.00  0.00    +0.000 C 
ATOM     19  N   UNL     1       7.878   6.041  17.348  0.00  0.00    +0.000 NA
ATOM     20  C   UNL     1       6.661   5.880  16.546  0.00  0.00    +0.000 C 
ATOM     21  C   UNL     1       6.063   4.446  16.522  0.00  0.00    +0.000 C 
ATOM     22  C   UNL     1       5.511   4.215  15.113  0.00  0.00    +0.000 C 
ATOM     23  H   UNL     1       8.688   5.701  16.830  0.00  0.00    +0.000 HD
ENDBRANCH   1  15
TORSDOF 2
ENDMDL
MODEL 2
REMARK VINA RESULT:      -6.1      1.060      5.420
REMARK  Name = 
REMARK  4 active torsions:
REMARK  status: ('A' for Active; 'I' for Inactive)
REMARK    1  A    between atoms: C_1  and  C_2
REMARK    2  A    between atoms: C_10  and  S_11
REMARK    3  A    between atoms: S_11  and  N_14
REMARK    4  A    between atoms: C_20  and  C_21
REMARK                            x       y       z     vdW  Elec       q    Type
REMARK                         _______ _______ _______ _____ _____    ______ ____
ROOT
ATOM      1  S   UNL     1       3.203   3.412  17.507  0.00  0.00    +0.000 S 
ATOM      2  O   UNL     1       2.142   3.281  16.533  0.00  0.00    +0.000 OA
ATOM      3  O   UNL     1       3.647   2.264  18.270  0.00  0.00    +0.000 OA
ENDROOT
BRANCH   1  13
ATOM      4  C   UNL     1       5.297   4.099  19.862  0.00  0.00    +0.000 C 
ATOM      5  C   UNL     1       5.997   4.846  18.761  0.00  0.00    +0.000 A 
ATOM      6  C   UNL     1       7.064   5.652  19.182  0.00  0.00    +0.000 A 
ATOM      7  N   UNL     1       7.887   6.332  18.371  0.00  0.00    +0.000 NA
ATOM      8  C   UNL     1       7.659   6.183  17.058  0.00  0.00    +0.000 A 
ATOM      9  C   UNL     1       6.642   5.408  16.501  0.00  0.00    +0.000 A 
ATOM     10  C   UNL     1       6.582   5.337  15.102  0.00  0.00    +0.000 A 
ATOM     11  C   UNL     1       5.624   4.570  14.472  0.00  0.00    +0.000 A 
ATOM     12  C   UNL     1       4.678   3.910  15.238  0.00  0.00    +0.000 A 
ATOM     13  C   UNL     1       4.669   4.009  16.642  0.00  0.00    +0.000 A 
ATOM     14  C   UNL     1       5.718   4.723  17.347  0.00  0.00    +0.000 A 
ENDBRANCH   1  13
BRANCH   1  15
ATOM     15  N   UNL     1       2.722   4.609  18.664  0.00  0.00    +0.000 NA
ATOM     16  C   UNL     1       2.830   6.016  18.148  0.00  0.00    +0.000 C 
ATOM     17  C   UNL     1       2.817   7.127  19.189  0.00  0.00    +0.000 C 
ATOM     18  C   UNL     1       1.478   7.266  19.901  0.00  0.00    +0.000 C 
ATOM     19  N   UNL     1       1.349   6.445  21.095  0.00  0.00    +0.000 NA
ATOM     20  C   UNL     1       1.953   5.111  21.009  0.00  0.00    +0.000 C 
ATOM     21  C   UNL     1       1.651   4.326  19.702  0.00  0.00    +0.000 C 
ATOM     22  C   UNL     1       1.500   2.853  20.091  0.00  0.00    +0.000 C 
ATOM     23  H   UNL     1       0.365   6.370  21.355  0.00  0.00    +0.000 HD
ENDBRANCH   1  15
TORSDOF 2
ENDMDL
MODEL 3
REMARK VINA RESULT:      -6.0      7.722     10.848
REMARK  Name = 
REMARK  4 active torsions:
REMARK  status: ('A' for Active; 'I' for Inactive)
REMARK    1  A    between atoms: C_1  and  C_2
REMARK    2  A    between atoms: C_10  and  S_11
REMARK    3  A    between atoms: S_11  and  N_14
REMARK    4  A    between atoms: C_20  and  C_21
REMARK                            x       y       z     vdW  Elec       q    Type
REMARK                         _______ _______ _______ _____ _____    ______ ____
ROOT
ATOM      1  S   UNL     1      -0.679  13.455  21.461  0.00  0.00    +0.000 S 
ATOM      2  O   UNL     1       0.523  14.257  21.492  0.00  0.00    +0.000 OA
ATOM      3  O   UNL     1      -1.564  13.499  20.316  0.00  0.00    +0.000 OA
ENDROOT
BRANCH   1  13
ATOM      4  C   UNL     1       1.387  12.982  19.029  0.00  0.00    +0.000 C 
ATOM      5  C   UNL     1       1.127  11.534  19.343  0.00  0.00    +0.000 A 
ATOM      6  C   UNL     1       1.657  10.626  18.414  0.00  0.00    +0.000 A 
ATOM      7  N   UNL     1       1.631   9.292  18.537  0.00  0.00    +0.000 NA
ATOM      8  C   UNL     1       1.071   8.824  19.662  0.00  0.00    +0.000 A 
ATOM      9  C   UNL     1       0.514   9.610  20.670  0.00  0.00    +0.000 A 
ATOM     10  C   UNL     1       0.010   8.947  21.797  0.00  0.00    +0.000 A 
ATOM     11  C   UNL     1      -0.532   9.653  22.852  0.00  0.00    +0.000 A 
ATOM     12  C   UNL     1      -0.626  11.030  22.763  0.00  0.00    +0.000 A 
ATOM     13  C   UNL     1      -0.188  11.726  21.620  0.00  0.00    +0.000 A 
ATOM     14  C   UNL     1       0.478  11.031  20.534  0.00  0.00    +0.000 A 
ENDBRANCH   1  13
BRANCH   1  15
ATOM     15  N   UNL     1      -1.642  13.881  22.838  0.00  0.00    +0.000 NA
ATOM     16  C   UNL     1      -1.049  14.989  23.662  0.00  0.00    +0.000 C 
ATOM     17  C   UNL     1      -1.596  15.158  25.072  0.00  0.00    +0.000 C 
ATOM     18  C   UNL     1      -3.045  15.626  25.101  0.00  0.00    +0.000 C 
ATOM     19  N   UNL     1      -4.022  14.548  25.087  0.00  0.00    +0.000 NA
ATOM     20  C   UNL     1      -3.680  13.402  24.238  0.00  0.00    +0.000 C 
ATOM     21  C   UNL     1      -3.154  13.758  22.819  0.00  0.00    +0.000 C 
ATOM     22  C   UNL     1      -3.705  12.699  21.860  0.00  0.00    +0.000 C 
ATOM     23  H   UNL     1      -4.936  14.918  24.830  0.00  0.00    +0.000 HD
ENDBRANCH   1  15
TORSDOF 2
ENDMDL
MODEL 4
REMARK VINA RESULT:      -5.9      7.864      9.994
REMARK  Name = 
REMARK  4 active torsions:
REMARK  status: ('A' for Active; 'I' for Inactive)
REMARK    1  A    between atoms: C_1  and  C_2
REMARK    2  A    between atoms: C_10  and  S_11
REMARK    3  A    between atoms: S_11  and  N_14
REMARK    4  A    between atoms: C_20  and  C_21
REMARK                            x       y       z     vdW  Elec       q    Type
REMARK                         _______ _______ _______ _____ _____    ______ ____
ROOT
ATOM      1  S   UNL     1      -0.236  12.372  21.707  0.00  0.00    +0.000 S 
ATOM      2  O   UNL     1       0.442  13.632  21.912  0.00  0.00    +0.000 OA
ATOM      3  O   UNL     1      -0.347  11.412  22.786  0.00  0.00    +0.000 OA
ENDROOT
BRANCH   1  13
ATOM      4  C   UNL     1      -1.358  14.290  24.045  0.00  0.00    +0.000 C 
ATOM      5  C   UNL     1      -2.686  13.935  23.436  0.00  0.00    +0.000 A 
ATOM      6  C   UNL     1      -3.803  14.354  24.174  0.00  0.00    +0.000 A 
ATOM      7  N   UNL     1      -5.079  14.231  23.781  0.00  0.00    +0.000 NA
ATOM      8  C   UNL     1      -5.262  13.685  22.571  0.00  0.00    +0.000 A 
ATOM      9  C   UNL     1      -4.246  13.233  21.730  0.00  0.00    +0.000 A 
ATOM     10  C   UNL     1      -4.625  12.728  20.478  0.00  0.00    +0.000 A 
ATOM     11  C   UNL     1      -3.680  12.286  19.575  0.00  0.00    +0.000 A 
ATOM     12  C   UNL     1      -2.345  12.294  19.941  0.00  0.00    +0.000 A 
ATOM     13  C   UNL     1      -1.932  12.736  21.212  0.00  0.00    +0.000 A 
ATOM     14  C   UNL     1      -2.884  13.300  22.151  0.00  0.00    +0.000 A 
ENDBRANCH   1  13
BRANCH   1  15
ATOM     15  N   UNL     1       0.553  11.547  20.402  0.00  0.00    +0.000 NA
ATOM     16  C   UNL     1       0.305  10.065  20.395  0.00  0.00    +0.000 C 
ATOM     17  C   UNL     1       1.251   9.220  19.554  0.00  0.00    +0.000 C 
ATOM     18  C   UNL     1       1.104   9.465  18.058  0.00  0.00    +0.000 C 
ATOM     19  N   UNL     1       1.951  10.530  17.542  0.00  0.00    +0.000 NA
ATOM     20  C   UNL     1       2.105  11.692  18.423  0.00  0.00    +0.000 C 
ATOM     21  C   UNL     1       0.791  12.222  19.063  0.00  0.00    +0.000 C 
ATOM     22  C   UNL     1       0.904  13.747  19.119  0.00  0.00    +0.000 C 
ATOM     23  H   UNL     1       1.611  10.825  16.627  0.00  0.00    +0.000 HD
ENDBRANCH   1  15
TORSDOF 2
ENDMDL
MODEL 5
REMARK VINA RESULT:      -5.9      7.610     10.889
REMARK  Name = 
REMARK  4 active torsions:
REMARK  status: ('A' for Active; 'I' for Inactive)
REMARK    1  A    between atoms: C_1  and  C_2
REMARK    2  A    between atoms: C_10  and  S_11
REMARK    3  A    between atoms: S_11  and  N_14
REMARK    4  A    between atoms: C_20  and  C_21
REMARK                            x       y       z     vdW  Elec       q    Type
REMARK                         _______ _______ _______ _____ _____    ______ ____
ROOT
ATOM      1  S   UNL     1      -1.602  13.017  20.824  0.00  0.00    +0.000 S 
ATOM      2  O   UNL     1      -0.644  14.097  20.765  0.00  0.00    +0.000 OA
ATOM      3  O   UNL     1      -2.297  12.584  19.628  0.00  0.00    +0.000 OA
ENDROOT
BRANCH   1  13
ATOM      4  C   UNL     1       0.607  12.384  18.560  0.00  0.00    +0.000 C 
ATOM      5  C   UNL     1       0.668  11.056  19.262  0.00  0.00    +0.000 A 
ATOM      6  C   UNL     1       1.423  10.075  18.602  0.00  0.00    +0.000 A 
ATOM      7  N   UNL     1       1.693   8.854  19.084  0.00  0.00    +0.000 NA
ATOM      8  C   UNL     1       1.210   8.594  20.307  0.00  0.00    +0.000 A 
ATOM      9  C   UNL     1       0.454   9.476  21.078  0.00  0.00    +0.000 A 
ATOM     10  C   UNL     1       0.069   9.046  22.356  0.00  0.00    +0.000 A 
ATOM     11  C   UNL     1      -0.657   9.869  23.192  0.00  0.00    +0.000 A 
ATOM     12  C   UNL     1      -1.055  11.113  22.734  0.00  0.00    +0.000 A 
ATOM     13  C   UNL     1      -0.741  11.554  21.434  0.00  0.00    +0.000 A 
ATOM     14  C   UNL     1       0.104  10.760  20.561  0.00  0.00    +0.000 A 
ENDBRANCH   1  13
BRANCH   1  15
ATOM     15  N   UNL     1      -2.828  13.451  21.969  0.00  0.00    +0.000 NA
ATOM     16  C   UNL     1      -4.105  12.678  21.799  0.00  0.00    +0.000 C 
ATOM     17  C   UNL     1      -5.344  13.250  22.474  0.00  0.00    +0.000 C 
ATOM     18  C   UNL     1      -5.272  13.206  23.994  0.00  0.00    +0.000 C 
ATOM     19  N   UNL     1      -4.669  14.385  24.597  0.00  0.00    +0.000 NA
ATOM     20  C   UNL     1      -3.531  14.952  23.865  0.00  0.00    +0.000 C 
ATOM     21  C   UNL     1      -2.479  13.923  23.368  0.00  0.00    +0.000 C 
ATOM     22  C   UNL     1      -1.106  14.586  23.503  0.00  0.00    +0.000 C 
ATOM     23  H   UNL     1      -4.401  14.178  25.559  0.00  0.00    +0.000 HD
ENDBRANCH   1  15
TORSDOF 2
ENDMDL
MODEL 6
REMARK VINA RESULT:      -5.9      7.984     10.444
REMARK  Name = 
REMARK  4 active torsions:
REMARK  status: ('A' for Active; 'I' for Inactive)
REMARK    1  A    between atoms: C_1  and  C_2
REMARK    2  A    between atoms: C_10  and  S_11
REMARK    3  A    between atoms: S_11  and  N_14
REMARK    4  A    between atoms: C_20  and  C_21
REMARK                            x       y       z     vdW  Elec       q    Type
REMARK                         _______ _______ _______ _____ _____    ______ ____
ROOT
ATOM      1  S   UNL     1      -0.091  14.315  20.959  0.00  0.00    +0.000 S 
ATOM      2  O   UNL     1      -1.504  14.590  21.093  0.00  0.00    +0.000 OA
ATOM      3  O   UNL     1       0.788  14.402  22.107  0.00  0.00    +0.000 OA
ENDROOT
BRANCH   1  13
ATOM      4  C   UNL     1      -1.545  12.504  23.198  0.00  0.00    +0.000 C 
ATOM      5  C   UNL     1      -0.802  11.394  22.508  0.00  0.00    +0.000 A 
ATOM      6  C   UNL     1      -0.849  10.156  23.166  0.00  0.00    +0.000 A 
ATOM      7  N   UNL     1      -0.341   9.009  22.692  0.00  0.00    +0.000 NA
ATOM      8  C   UNL     1       0.222   9.083  21.478  0.00  0.00    +0.000 A 
ATOM      9  C   UNL     1       0.329  10.242  20.710  0.00  0.00    +0.000 A 
ATOM     10  C   UNL     1       0.914  10.121  19.441  0.00  0.00    +0.000 A 
ATOM     11  C   UNL     1       1.032  11.214  18.607  0.00  0.00    +0.000 A 
ATOM     12  C   UNL     1       0.616  12.454  19.059  0.00  0.00    +0.000 A 
ATOM     13  C   UNL     1       0.082  12.625  20.350  0.00  0.00    +0.000 A 
ATOM     14  C   UNL     1      -0.151  11.486  21.219  0.00  0.00    +0.000 A 
ENDBRANCH   1  13
BRANCH   1  15
ATOM     15  N   UNL     1       0.554  15.397  19.769  0.00  0.00    +0.000 NA
ATOM     16  C   UNL     1      -0.441  16.413  19.283  0.00  0.00    +0.000 C 
ATOM     17  C   UNL     1      -0.103  17.130  17.983  0.00  0.00    +0.000 C 
ATOM     18  C   UNL     1       1.101  18.054  18.103  0.00  0.00    +0.000 C 
ATOM     19  N   UNL     1       2.376  17.413  17.824  0.00  0.00    +0.000 NA
ATOM     20  C   UNL     1       2.508  16.036  18.313  0.00  0.00    +0.000 C 
ATOM     21  C   UNL     1       2.018  15.797  19.768  0.00  0.00    +0.000 C 
ATOM     22  C   UNL     1       2.968  14.775  20.397  0.00  0.00    +0.000 C 
ATOM     23  H   UNL     1       3.136  17.989  18.185  0.00  0.00    +0.000 HD
ENDBRANCH   1  15
TORSDOF 2
ENDMDL
MODEL 7
REMARK VINA RESULT:      -5.8      6.172      8.211
REMARK  Name = 
REMARK  4 active torsions:
REMARK  status: ('A' for Active; 'I' for Inactive)
REMARK    1  A    between atoms: C_1  and  C_2
REMARK    2  A    between atoms: C_10  and  S_11
REMARK    3  A    between atoms: S_11  and  N_14
REMARK    4  A    between atoms: C_20  and  C_21
REMARK                            x       y       z     vdW  Elec       q    Type
REMARK                         _______ _______ _______ _____ _____    ______ ____
ROOT
ATOM      1  S   UNL     1       0.093  10.904  19.875  0.00  0.00    +0.000 S 
ATOM      2  O   UNL     1       0.963  11.994  19.495  0.00  0.00    +0.000 OA
ATOM      3  O   UNL     1      -0.440  10.821  21.219  0.00  0.00    +0.000 OA
ENDROOT
BRANCH   1  13
ATOM      4  C   UNL     1      -1.667  13.368  20.985  0.00  0.00    +0.000 C 
ATOM      5  C   UNL     1      -2.741  12.729  20.149  0.00  0.00    +0.000 A 
ATOM      6  C   UNL     1      -4.024  13.268  20.325  0.00  0.00    +0.000 A 
ATOM      7  N   UNL     1      -5.111  12.922  19.622  0.00  0.00    +0.000 NA
ATOM      8  C   UNL     1      -4.913  12.005  18.664  0.00  0.00    +0.000 A 
ATOM      9  C   UNL     1      -3.694  11.394  18.374  0.00  0.00    +0.000 A 
ATOM     10  C   UNL     1      -3.667  10.487  17.306  0.00  0.00    +0.000 A 
ATOM     11  C   UNL     1      -2.494   9.860  16.937  0.00  0.00    +0.000 A 
ATOM     12  C   UNL     1      -1.346  10.093  17.673  0.00  0.00    +0.000 A 
ATOM     13  C   UNL     1      -1.348  10.950  18.790  0.00  0.00    +0.000 A 
ATOM     14  C   UNL     1      -2.535  11.704  19.150  0.00  0.00    +0.000 A 
ENDBRANCH   1  13
BRANCH   1  15
ATOM     15  N   UNL     1       0.943   9.419  19.597  0.00  0.00    +0.000 NA
ATOM     16  C   UNL     1       1.599   9.350  18.247  0.00  0.00    +0.000 C 
ATOM     17  C   UNL     1       2.017   7.969  17.762  0.00  0.00    +0.000 C 
ATOM     18  C   UNL     1       3.151   7.365  18.579  0.00  0.00    +0.000 C 
ATOM     19  N   UNL     1       2.711   6.586  19.727  0.00  0.00    +0.000 NA
ATOM     20  C   UNL     1       1.551   7.126  20.444  0.00  0.00    +0.000 C 
ATOM     21  C   UNL     1       1.597   8.653  20.732  0.00  0.00    +0.000 C 
ATOM     22  C   UNL     1       0.963   8.868  22.108  0.00  0.00    +0.000 C 
ATOM     23  H   UNL     1       3.492   6.452  20.369  0.00  0.00    +0.000 HD
ENDBRANCH   1  15
TORSDOF 2
ENDMDL
MODEL 8
REMARK VINA RESULT:      -5.8      1.723      3.618
REMARK  Name = 
REMARK  4 active torsions:
REMARK  status: ('A' for Active; 'I' for Inactive)
REMARK    1  A    between atoms: C_1  and  C_2
REMARK    2  A    between atoms: C_10  and  S_11
REMARK    3  A    between atoms: S_11  and  N_14
REMARK    4  A    between atoms: C_20  and  C_21
REMARK                            x       y       z     vdW  Elec       q    Type
REMARK                         _______ _______ _______ _____ _____    ______ ____
ROOT
ATOM      1  S   UNL     1       3.506   4.844  18.337  0.00  0.00    +0.000 S 
ATOM      2  O   UNL     1       3.861   4.372  19.657  0.00  0.00    +0.000 OA
ATOM      3  O   UNL     1       2.385   4.264  17.626  0.00  0.00    +0.000 OA
ENDROOT
BRANCH   1  13
ATOM      4  C   UNL     1       2.104   5.155  21.225  0.00  0.00    +0.000 C 
ATOM      5  C   UNL     1       1.680   6.484  20.663  0.00  0.00    +0.000 A 
ATOM      6  C   UNL     1       0.751   7.186  21.447  0.00  0.00    +0.000 A 
ATOM      7  N   UNL     1       0.305   8.424  21.193  0.00  0.00    +0.000 NA
ATOM      8  C   UNL     1       0.831   9.019  20.112  0.00  0.00    +0.000 A 
ATOM      9  C   UNL     1       1.767   8.444  19.253  0.00  0.00    +0.000 A 
ATOM     10  C   UNL     1       2.238   9.234  18.195  0.00  0.00    +0.000 A 
ATOM     11  C   UNL     1       3.185   8.750  17.316  0.00  0.00    +0.000 A 
ATOM     12  C   UNL     1       3.629   7.447  17.454  0.00  0.00    +0.000 A 
ATOM     13  C   UNL     1       3.133   6.604  18.466  0.00  0.00    +0.000 A 
ATOM     14  C   UNL     1       2.212   7.105  19.470  0.00  0.00    +0.000 A 
ENDBRANCH   1  13
BRANCH   1  15
ATOM     15  N   UNL     1       4.888   4.648  17.310  0.00  0.00    +0.000 NA
ATOM     16  C   UNL     1       4.534   4.460  15.862  0.00  0.00    +0.000 C 
ATOM     17  C   UNL     1       5.623   3.893  14.962  0.00  0.00    +0.000 C 
ATOM     18  C   UNL     1       6.797   4.844  14.770  0.00  0.00    +0.000 C 
ATOM     19  N   UNL     1       7.850   4.700  15.764  0.00  0.00    +0.000 NA
ATOM     20  C   UNL     1       7.391   4.433  17.130  0.00  0.00    +0.000 C 
ATOM     21  C   UNL     1       6.213   5.319  17.623  0.00  0.00    +0.000 C 
ATOM     22  C   UNL     1       6.458   5.604  19.107  0.00  0.00    +0.000 C 
ATOM     23  H   UNL     1       8.450   5.525  15.748  0.00  0.00    +0.000 HD
ENDBRANCH   1  15
TORSDOF 2
ENDMDL
MODEL 9
REMARK VINA RESULT:      -5.8     10.047     12.345
REMARK  Name = 
REMARK  4 active torsions:
REMARK  status: ('A' for Active; 'I' for Inactive)
REMARK    1  A    between atoms: C_1  and  C_2
REMARK    2  A    between atoms: C_10  and  S_11
REMARK    3  A    between atoms: S_11  and  N_14
REMARK    4  A    between atoms: C_20  and  C_21
REMARK                            x       y       z     vdW  Elec       q    Type
REMARK                         _______ _______ _______ _____ _____    ______ ____
ROOT
ATOM      1  S   UNL     1       9.343  14.995  21.992  0.00  0.00    +0.000 S 
ATOM      2  O   UNL     1      10.448  15.437  22.812  0.00  0.00    +0.000 OA
ATOM      3  O   UNL     1       8.815  15.849  20.947  0.00  0.00    +0.000 OA
ENDROOT
BRANCH   1  13
ATOM      4  C   UNL     1      11.859  15.881  20.178  0.00  0.00    +0.000 C 
ATOM      5  C   UNL     1      11.592  14.564  19.503  0.00  0.00    +0.000 A 
ATOM      6  C   UNL     1      12.324  14.346  18.327  0.00  0.00    +0.000 A 
ATOM      7  N   UNL     1      12.319  13.211  17.613  0.00  0.00    +0.000 NA
ATOM      8  C   UNL     1      11.566  12.219  18.108  0.00  0.00    +0.000 A 
ATOM      9  C   UNL     1      10.797  12.294  19.268  0.00  0.00    +0.000 A 
ATOM     10  C   UNL     1      10.104  11.139  19.657  0.00  0.00    +0.000 A 
ATOM     11  C   UNL     1       9.343  11.121  20.807  0.00  0.00    +0.000 A 
ATOM     12  C   UNL     1       9.222  12.281  21.552  0.00  0.00    +0.000 A 
ATOM     13  C   UNL     1       9.852  13.477  21.159  0.00  0.00    +0.000 A 
ATOM     14  C   UNL     1      10.740  13.511  20.012  0.00  0.00    +0.000 A 
ENDBRANCH   1  13
BRANCH   1  15
ATOM     15  N   UNL     1       8.012  14.628  23.039  0.00  0.00    +0.000 NA
ATOM     16  C   UNL     1       8.310  14.869  24.492  0.00  0.00    +0.000 C 
ATOM     17  C   UNL     1       7.374  14.215  25.498  0.00  0.00    +0.000 C 
ATOM     18  C   UNL     1       5.966  14.796  25.473  0.00  0.00    +0.000 C 
ATOM     19  N   UNL     1       5.066  14.138  24.538  0.00  0.00    +0.000 NA
ATOM     20  C   UNL     1       5.669  13.730  23.266  0.00  0.00    +0.000 C 
ATOM     21  C   UNL     1       6.573  14.795  22.585  0.00  0.00    +0.000 C 
ATOM     22  C   UNL     1       6.353  14.669  21.075  0.00  0.00    +0.000 C 
ATOM     23  H   UNL     1       4.255  14.733  24.369  0.00  0.00    +0.000 HD
ENDBRANCH   1  15
TORSDOF 2
ENDMDL
