MODEL 1
REMARK VINA RESULT:      -8.3      0.000      0.000
REMARK  Name = 
REMARK  7 active torsions:
REMARK  status: ('A' for Active; 'I' for Inactive)
REMARK    1  A    between atoms: C_1  and  C_2
REMARK    2  A    between atoms: C_2  and  C_3
REMARK    3  A    between atoms: C_2  and  C_4
REMARK    4  A    between atoms: C_8  and  S_9
REMARK    5  A    between atoms: S_9  and  C_10
REMARK    6  A    between atoms: C_10  and  C_11
REMARK    7  A    between atoms: N_13  and  C_14
REMARK                            x       y       z     vdW  Elec       q    Type
REMARK                         _______ _______ _______ _____ _____    ______ ____
ROOT
ATOM      1  C   UNL     1       4.984   5.439  17.135  0.00  0.00    +0.000 A 
ATOM      2  N   UNL     1       4.941   6.667  16.641  0.00  0.00    +0.000 NA
ATOM      3  N   UNL     1       4.007   7.392  17.338  0.00  0.00    +0.000 NA
ATOM      4  C   UNL     1       3.512   6.601  18.263  0.00  0.00    +0.000 A 
ATOM      5  C   UNL     1       2.483   6.884  19.210  0.00  0.00    +0.000 A 
ATOM      6  N   UNL     1       2.124   6.016  20.102  0.00  0.00    +0.000 NA
ATOM      7  C   UNL     1       2.791   4.766  20.115  0.00  0.00    +0.000 A 
ATOM      8  C   UNL     1       2.413   3.840  21.098  0.00  0.00    +0.000 A 
ATOM      9  C   UNL     1       3.031   2.600  21.186  0.00  0.00    +0.000 A 
ATOM     10  C   UNL     1       4.046   2.276  20.306  0.00  0.00    +0.000 A 
ATOM     11  C   UNL     1       4.455   3.172  19.313  0.00  0.00    +0.000 A 
ATOM     12  C   UNL     1       3.808   4.408  19.203  0.00  0.00    +0.000 A 
ATOM     13  N   UNL     1       4.133   5.379  18.230  0.00  0.00    +0.000 N 
ENDROOT
BRANCH   1  15
ATOM     14  C   UNL     1       5.490   4.193  15.032  0.00  0.00    +0.000 C 
ATOM     15  C   UNL     1       5.796   4.336  16.530  0.00  0.00    +0.000 C 
ATOM     16  C   UNL     1       7.289   4.593  16.726  0.00  0.00    +0.000 C 
ENDBRANCH   1  15
BRANCH   5  17
ATOM     17  S   UNL     1       1.742   8.461  19.100  0.00  0.00    +0.000 S 
BRANCH  17  18
ATOM     18  C   UNL     1       1.236   8.761  20.826  0.00  0.00    +0.000 C 
BRANCH  18  19
ATOM     19  C   UNL     1       0.122   9.806  20.881  0.00  0.00    +0.000 C 
ATOM     20  O   UNL     1      -0.665   9.968  19.952  0.00  0.00    +0.000 OA
ATOM     21  N   UNL     1       0.099  10.501  22.079  0.00  0.00    +0.000 N 
ATOM     22  H   UNL     1       0.987  10.491  22.572  0.00  0.00    +0.000 HD
BRANCH  21  23
ATOM     23  C   UNL     1      -0.761  11.567  22.381  0.00  0.00    +0.000 A 
ATOM     24  C   UNL     1      -0.581  12.869  21.881  0.00  0.00    +0.000 A 
ATOM     25  C   UNL     1      -1.551  13.857  22.116  0.00  0.00    +0.000 A 
ATOM     26  C   UNL     1      -2.656  13.505  22.860  0.00  0.00    +0.000 A 
ATOM     27  C   UNL     1      -2.800  12.243  23.387  0.00  0.00    +0.000 A 
ATOM     28  C   UNL     1      -1.881  11.251  23.154  0.00  0.00    +0.000 A 
ATOM     29  O   UNL     1      -3.950  12.100  24.099  0.00  0.00    +0.000 OA
ATOM     30  C   UNL     1      -4.619  13.319  23.728  0.00  0.00    +0.000 C 
ATOM     31  O   UNL     1      -3.729  14.294  23.143  0.00  0.00    +0.000 OA
ENDBRANCH  21  23
ENDBRANCH  18  19
ENDBRANCH  17  18
ENDBRANCH   5  17
TORSDOF 5
ENDMDL
MODEL 2
REMARK VINA RESULT:      -8.3      7.431      9.532
REMARK  Name = 
REMARK  7 active torsions:
REMARK  status: ('A' for Active; 'I' for Inactive)
REMARK    1  A    between atoms: C_1  and  C_2
REMARK    2  A    between atoms: C_2  and  C_3
REMARK    3  A    between atoms: C_2  and  C_4
REMARK    4  A    between atoms: C_8  and  S_9
REMARK    5  A    between atoms: S_9  and  C_10
REMARK    6  A    between atoms: C_10  and  C_11
REMARK    7  A    between atoms: N_13  and  C_14
REMARK                            x       y       z     vdW  Elec       q    Type
REMARK                         _______ _______ _______ _____ _____    ______ ____
ROOT
ATOM      1  C   UNL     1       4.325   4.249  18.052  0.00  0.00    +0.000 A 
ATOM      2  N   UNL     1       4.369   4.868  19.222  0.00  0.00    +0.000 NA
ATOM      3  N   UNL     1       5.434   5.733  19.226  0.00  0.00    +0.000 NA
ATOM      4  C   UNL     1       6.010   5.646  18.048  0.00  0.00    +0.000 A 
ATOM      5  C   UNL     1       7.179   6.318  17.584  0.00  0.00    +0.000 A 
ATOM      6  N   UNL     1       7.611   6.170  16.371  0.00  0.00    +0.000 NA
ATOM      7  C   UNL     1       6.881   5.315  15.508  0.00  0.00    +0.000 A 
ATOM      8  C   UNL     1       7.342   5.178  14.191  0.00  0.00    +0.000 A 
ATOM      9  C   UNL     1       6.671   4.372  13.281  0.00  0.00    +0.000 A 
ATOM     10  C   UNL     1       5.522   3.709  13.669  0.00  0.00    +0.000 A 
ATOM     11  C   UNL     1       5.028   3.822  14.972  0.00  0.00    +0.000 A 
ATOM     12  C   UNL     1       5.724   4.606  15.899  0.00  0.00    +0.000 A 
ATOM     13  N   UNL     1       5.320   4.777  17.241  0.00  0.00    +0.000 N 
ENDROOT
BRANCH   1  15
ATOM     14  C   UNL     1       3.369   2.093  18.870  0.00  0.00    +0.000 C 
ATOM     15  C   UNL     1       3.371   3.136  17.744  0.00  0.00    +0.000 C 
ATOM     16  C   UNL     1       1.956   3.677  17.544  0.00  0.00    +0.000 C 
ENDBRANCH   1  15
BRANCH   5  17
ATOM     17  S   UNL     1       7.988   7.350  18.736  0.00  0.00    +0.000 S 
BRANCH  17  18
ATOM     18  C   UNL     1       8.163   8.902  17.795  0.00  0.00    +0.000 C 
BRANCH  18  19
ATOM     19  C   UNL     1       9.049   9.890  18.554  0.00  0.00    +0.000 C 
ATOM     20  O   UNL     1       9.329   9.733  19.739  0.00  0.00    +0.000 OA
ATOM     21  N   UNL     1       9.499  10.928  17.756  0.00  0.00    +0.000 N 
ATOM     22  H   UNL     1       8.921  11.092  16.937  0.00  0.00    +0.000 HD
BRANCH  21  23
ATOM     23  C   UNL     1      10.263  12.018  18.198  0.00  0.00    +0.000 A 
ATOM     24  C   UNL     1      11.581  11.893  18.674  0.00  0.00    +0.000 A 
ATOM     25  C   UNL     1      12.333  13.039  18.977  0.00  0.00    +0.000 A 
ATOM     26  C   UNL     1      11.729  14.266  18.809  0.00  0.00    +0.000 A 
ATOM     27  C   UNL     1      10.424  14.377  18.390  0.00  0.00    +0.000 A 
ATOM     28  C   UNL     1       9.671  13.276  18.064  0.00  0.00    +0.000 A 
ATOM     29  O   UNL     1      10.009  15.669  18.299  0.00  0.00    +0.000 OA
ATOM     30  C   UNL     1      11.274  16.340  18.445  0.00  0.00    +0.000 C 
ATOM     31  O   UNL     1      12.305  15.487  18.986  0.00  0.00    +0.000 OA
ENDBRANCH  21  23
ENDBRANCH  18  19
ENDBRANCH  17  18
ENDBRANCH   5  17
TORSDOF 5
ENDMDL
MODEL 3
REMARK VINA RESULT:      -8.3      3.172      3.421
REMARK  Name = 
REMARK  7 active torsions:
REMARK  status: ('A' for Active; 'I' for Inactive)
REMARK    1  A    between atoms: C_1  and  C_2
REMARK    2  A    between atoms: C_2  and  C_3
REMARK    3  A    between atoms: C_2  and  C_4
REMARK    4  A    between atoms: C_8  and  S_9
REMARK    5  A    between atoms: S_9  and  C_10
REMARK    6  A    between atoms: C_10  and  C_11
REMARK    7  A    between atoms: N_13  and  C_14
REMARK                            x       y       z     vdW  Elec       q    Type
REMARK                         _______ _______ _______ _____ _____    ______ ____
ROOT
ATOM      1  C   UNL     1       5.252   5.538  17.128  0.00  0.00    +0.000 A 
ATOM      2  N   UNL     1       5.439   6.653  16.439  0.00  0.00    +0.000 NA
ATOM      3  N   UNL     1       4.459   7.553  16.777  0.00  0.00    +0.000 NA
ATOM      4  C   UNL     1       3.703   6.980  17.686  0.00  0.00    +0.000 A 
ATOM      5  C   UNL     1       2.532   7.498  18.315  0.00  0.00    +0.000 A 
ATOM      6  N   UNL     1       1.907   6.835  19.237  0.00  0.00    +0.000 NA
ATOM      7  C   UNL     1       2.425   5.569  19.608  0.00  0.00    +0.000 A 
ATOM      8  C   UNL     1       1.756   4.868  20.621  0.00  0.00    +0.000 A 
ATOM      9  C   UNL     1       2.211   3.629  21.051  0.00  0.00    +0.000 A 
ATOM     10  C   UNL     1       3.350   3.084  20.489  0.00  0.00    +0.000 A 
ATOM     11  C   UNL     1       4.048   3.752  19.479  0.00  0.00    +0.000 A 
ATOM     12  C   UNL     1       3.568   4.985  19.021  0.00  0.00    +0.000 A 
ATOM     13  N   UNL     1       4.188   5.735  17.998  0.00  0.00    +0.000 N 
ENDROOT
BRANCH   1  15
ATOM     14  C   UNL     1       6.045   3.886  15.434  0.00  0.00    +0.000 C 
ATOM     15  C   UNL     1       6.055   4.292  16.914  0.00  0.00    +0.000 C 
ATOM     16  C   UNL     1       7.496   4.491  17.381  0.00  0.00    +0.000 C 
ENDBRANCH   1  15
BRANCH   5  17
ATOM     17  S   UNL     1       1.997   9.071  17.780  0.00  0.00    +0.000 S 
BRANCH  17  18
ATOM     18  C   UNL     1       1.170   9.716  19.272  0.00  0.00    +0.000 C 
BRANCH  18  19
ATOM     19  C   UNL     1       0.044  10.675  18.886  0.00  0.00    +0.000 C 
ATOM     20  O   UNL     1       0.062  11.860  19.206  0.00  0.00    +0.000 OA
ATOM     21  N   UNL     1      -0.946  10.063  18.137  0.00  0.00    +0.000 N 
ATOM     22  H   UNL     1      -0.982   9.055  18.255  0.00  0.00    +0.000 HD
BRANCH  21  23
ATOM     23  C   UNL     1      -2.133  10.675  17.709  0.00  0.00    +0.000 A 
ATOM     24  C   UNL     1      -2.578  10.646  16.375  0.00  0.00    +0.000 A 
ATOM     25  C   UNL     1      -3.839  11.165  16.040  0.00  0.00    +0.000 A 
ATOM     26  C   UNL     1      -4.598  11.709  17.052  0.00  0.00    +0.000 A 
ATOM     27  C   UNL     1      -4.135  11.778  18.345  0.00  0.00    +0.000 A 
ATOM     28  C   UNL     1      -2.917  11.259  18.707  0.00  0.00    +0.000 A 
ATOM     29  O   UNL     1      -5.025  12.361  19.192  0.00  0.00    +0.000 OA
ATOM     30  C   UNL     1      -6.184  12.396  18.339  0.00  0.00    +0.000 C 
ATOM     31  O   UNL     1      -5.862  12.203  16.945  0.00  0.00    +0.000 OA
ENDBRANCH  21  23
ENDBRANCH  18  19
ENDBRANCH  17  18
ENDBRANCH   5  17
TORSDOF 5
ENDMDL
MODEL 4
REMARK VINA RESULT:      -8.2      2.482      2.745
REMARK  Name = 
REMARK  7 active torsions:
REMARK  status: ('A' for Active; 'I' for Inactive)
REMARK    1  A    between atoms: C_1  and  C_2
REMARK    2  A    between atoms: C_2  and  C_3
REMARK    3  A    between atoms: C_2  and  C_4
REMARK    4  A    between atoms: C_8  and  S_9
REMARK    5  A    between atoms: S_9  and  C_10
REMARK    6  A    between atoms: C_10  and  C_11
REMARK    7  A    between atoms: N_13  and  C_14
REMARK                            x       y       z     vdW  Elec       q    Type
REMARK                         _______ _______ _______ _____ _____    ______ ____
ROOT
ATOM      1  C   UNL     1       5.249   5.446  16.761  0.00  0.00    +0.000 A 
ATOM      2  N   UNL     1       5.296   6.630  16.169  0.00  0.00    +0.000 NA
ATOM      3  N   UNL     1       4.336   7.440  16.723  0.00  0.00    +0.000 NA
ATOM      4  C   UNL     1       3.736   6.745  17.663  0.00  0.00    +0.000 A 
ATOM      5  C   UNL     1       2.645   7.139  18.492  0.00  0.00    +0.000 A 
ATOM      6  N   UNL     1       2.179   6.360  19.417  0.00  0.00    +0.000 NA
ATOM      7  C   UNL     1       2.792   5.093  19.586  0.00  0.00    +0.000 A 
ATOM      8  C   UNL     1       2.298   4.266  20.604  0.00  0.00    +0.000 A 
ATOM      9  C   UNL     1       2.857   3.017  20.842  0.00  0.00    +0.000 A 
ATOM     10  C   UNL     1       3.928   2.589  20.082  0.00  0.00    +0.000 A 
ATOM     11  C   UNL     1       4.453   3.385  19.059  0.00  0.00    +0.000 A 
ATOM     12  C   UNL     1       3.866   4.628  18.796  0.00  0.00    +0.000 A 
ATOM     13  N   UNL     1       4.308   5.504  17.780  0.00  0.00    +0.000 N 
ENDROOT
BRANCH   1  15
ATOM     14  C   UNL     1       6.070   4.159  14.786  0.00  0.00    +0.000 C 
ATOM     15  C   UNL     1       6.064   4.270  16.317  0.00  0.00    +0.000 C 
ATOM     16  C   UNL     1       7.499   4.383  16.829  0.00  0.00    +0.000 C 
ENDBRANCH   1  15
BRANCH   5  17
ATOM     17  S   UNL     1       1.979   8.725  18.194  0.00  0.00    +0.000 S 
BRANCH  17  18
ATOM     18  C   UNL     1       1.543   9.274  19.877  0.00  0.00    +0.000 C 
BRANCH  18  19
ATOM     19  C   UNL     1       0.064   9.650  19.950  0.00  0.00    +0.000 C 
ATOM     20  O   UNL     1      -0.636   9.354  20.915  0.00  0.00    +0.000 OA
ATOM     21  N   UNL     1      -0.362  10.364  18.843  0.00  0.00    +0.000 N 
ATOM     22  H   UNL     1       0.219  10.226  18.022  0.00  0.00    +0.000 HD
BRANCH  21  23
ATOM     23  C   UNL     1      -1.682  10.774  18.601  0.00  0.00    +0.000 A 
ATOM     24  C   UNL     1      -2.521  10.154  17.659  0.00  0.00    +0.000 A 
ATOM     25  C   UNL     1      -3.870  10.529  17.560  0.00  0.00    +0.000 A 
ATOM     26  C   UNL     1      -4.321  11.525  18.398  0.00  0.00    +0.000 A 
ATOM     27  C   UNL     1      -3.482  12.161  19.282  0.00  0.00    +0.000 A 
ATOM     28  C   UNL     1      -2.164  11.800  19.417  0.00  0.00    +0.000 A 
ATOM     29  O   UNL     1      -4.113  13.122  20.009  0.00  0.00    +0.000 OA
ATOM     30  C   UNL     1      -5.480  12.823  19.670  0.00  0.00    +0.000 C 
ATOM     31  O   UNL     1      -5.599  11.985  18.500  0.00  0.00    +0.000 OA
ENDBRANCH  21  23
ENDBRANCH  18  19
ENDBRANCH  17  18
ENDBRANCH   5  17
TORSDOF 5
ENDMDL
MODEL 5
REMARK VINA RESULT:      -8.2      2.586      2.923
REMARK  Name = 
REMARK  7 active torsions:
REMARK  status: ('A' for Active; 'I' for Inactive)
REMARK    1  A    between atoms: C_1  and  C_2
REMARK    2  A    between atoms: C_2  and  C_3
REMARK    3  A    between atoms: C_2  and  C_4
REMARK    4  A    between atoms: C_8  and  S_9
REMARK    5  A    between atoms: S_9  and  C_10
REMARK    6  A    between atoms: C_10  and  C_11
REMARK    7  A    between atoms: N_13  and  C_14
REMARK                            x       y       z     vdW  Elec       q    Type
REMARK                         _______ _______ _______ _____ _____    ______ ____
ROOT
ATOM      1  C   UNL     1       5.493   5.519  17.105  0.00  0.00    +0.000 A 
ATOM      2  N   UNL     1       5.537   6.705  16.516  0.00  0.00    +0.000 NA
ATOM      3  N   UNL     1       4.480   7.460  16.959  0.00  0.00    +0.000 NA
ATOM      4  C   UNL     1       3.821   6.730  17.831  0.00  0.00    +0.000 A 
ATOM      5  C   UNL     1       2.625   7.061  18.535  0.00  0.00    +0.000 A 
ATOM      6  N   UNL     1       2.107   6.256  19.407  0.00  0.00    +0.000 NA
ATOM      7  C   UNL     1       2.768   5.026  19.648  0.00  0.00    +0.000 A 
ATOM      8  C   UNL     1       2.213   4.170  20.610  0.00  0.00    +0.000 A 
ATOM      9  C   UNL     1       2.811   2.954  20.914  0.00  0.00    +0.000 A 
ATOM     10  C   UNL     1       3.981   2.588  20.276  0.00  0.00    +0.000 A 
ATOM     11  C   UNL     1       4.568   3.414  19.313  0.00  0.00    +0.000 A 
ATOM     12  C   UNL     1       3.945   4.623  18.981  0.00  0.00    +0.000 A 
ATOM     13  N   UNL     1       4.445   5.523  18.016  0.00  0.00    +0.000 N 
ENDROOT
BRANCH   1  15
ATOM     14  C   UNL     1       6.765   4.415  15.263  0.00  0.00    +0.000 C 
ATOM     15  C   UNL     1       6.416   4.392  16.757  0.00  0.00    +0.000 C 
ATOM     16  C   UNL     1       7.698   4.468  17.585  0.00  0.00    +0.000 C 
ENDBRANCH   1  15
BRANCH   5  17
ATOM     17  S   UNL     1       1.908   8.608  18.159  0.00  0.00    +0.000 S 
BRANCH  17  18
ATOM     18  C   UNL     1       1.710   9.345  19.815  0.00  0.00    +0.000 C 
BRANCH  18  19
ATOM     19  C   UNL     1       0.244   9.689  20.075  0.00  0.00    +0.000 C 
ATOM     20  O   UNL     1      -0.393   9.175  20.990  0.00  0.00    +0.000 OA
ATOM     21  N   UNL     1      -0.247  10.639  19.195  0.00  0.00    +0.000 N 
ATOM     22  H   UNL     1       0.276  10.697  18.326  0.00  0.00    +0.000 HD
BRANCH  21  23
ATOM     23  C   UNL     1      -1.574  11.090  19.146  0.00  0.00    +0.000 A 
ATOM     24  C   UNL     1      -2.129  11.958  20.103  0.00  0.00    +0.000 A 
ATOM     25  C   UNL     1      -3.422  12.474  19.923  0.00  0.00    +0.000 A 
ATOM     26  C   UNL     1      -4.116  12.085  18.799  0.00  0.00    +0.000 A 
ATOM     27  C   UNL     1      -3.585  11.197  17.893  0.00  0.00    +0.000 A 
ATOM     28  C   UNL     1      -2.315  10.694  18.030  0.00  0.00    +0.000 A 
ATOM     29  O   UNL     1      -4.430  10.930  16.860  0.00  0.00    +0.000 OA
ATOM     30  C   UNL     1      -5.420  11.951  17.088  0.00  0.00    +0.000 C 
ATOM     31  O   UNL     1      -5.348  12.519  18.413  0.00  0.00    +0.000 OA
ENDBRANCH  21  23
ENDBRANCH  18  19
ENDBRANCH  17  18
ENDBRANCH   5  17
TORSDOF 5
ENDMDL
MODEL 6
REMARK VINA RESULT:      -8.2      1.351      1.360
REMARK  Name = 
REMARK  7 active torsions:
REMARK  status: ('A' for Active; 'I' for Inactive)
REMARK    1  A    between atoms: C_1  and  C_2
REMARK    2  A    between atoms: C_2  and  C_3
REMARK    3  A    between atoms: C_2  and  C_4
REMARK    4  A    between atoms: C_8  and  S_9
REMARK    5  A    between atoms: S_9  and  C_10
REMARK    6  A    between atoms: C_10  and  C_11
REMARK    7  A    between atoms: N_13  and  C_14
REMARK                            x       y       z     vdW  Elec       q    Type
REMARK                         _______ _______ _______ _____ _____    ______ ____
ROOT
ATOM      1  C   UNL     1       5.077   5.411  16.720  0.00  0.00    +0.000 A 
ATOM      2  N   UNL     1       5.306   6.715  16.694  0.00  0.00    +0.000 NA
ATOM      3  N   UNL     1       4.372   7.345  17.479  0.00  0.00    +0.000 NA
ATOM      4  C   UNL     1       3.603   6.411  17.992  0.00  0.00    +0.000 A 
ATOM      5  C   UNL     1       2.466   6.570  18.838  0.00  0.00    +0.000 A 
ATOM      6  N   UNL     1       1.824   5.548  19.310  0.00  0.00    +0.000 NA
ATOM      7  C   UNL     1       2.288   4.255  18.962  0.00  0.00    +0.000 A 
ATOM      8  C   UNL     1       1.601   3.155  19.495  0.00  0.00    +0.000 A 
ATOM      9  C   UNL     1       2.005   1.857  19.213  0.00  0.00    +0.000 A 
ATOM     10  C   UNL     1       3.111   1.642  18.412  0.00  0.00    +0.000 A 
ATOM     11  C   UNL     1       3.824   2.711  17.863  0.00  0.00    +0.000 A 
ATOM     12  C   UNL     1       3.395   4.019  18.119  0.00  0.00    +0.000 A 
ATOM     13  N   UNL     1       4.035   5.168  17.604  0.00  0.00    +0.000 N 
ENDROOT
BRANCH   1  15
ATOM     14  C   UNL     1       5.482   4.626  14.385  0.00  0.00    +0.000 C 
ATOM     15  C   UNL     1       5.820   4.427  15.869  0.00  0.00    +0.000 C 
ATOM     16  C   UNL     1       7.328   4.565  16.075  0.00  0.00    +0.000 C 
ENDBRANCH   1  15
BRANCH   5  17
ATOM     17  S   UNL     1       1.996   8.210  19.204  0.00  0.00    +0.000 S 
BRANCH  17  18
ATOM     18  C   UNL     1       1.591   8.100  20.979  0.00  0.00    +0.000 C 
BRANCH  18  19
ATOM     19  C   UNL     1       0.269   8.810  21.270  0.00  0.00    +0.000 C 
ATOM     20  O   UNL     1      -0.724   8.201  21.658  0.00  0.00    +0.000 OA
ATOM     21  N   UNL     1       0.341  10.179  21.072  0.00  0.00    +0.000 N 
ATOM     22  H   UNL     1       1.090  10.460  20.446  0.00  0.00    +0.000 HD
BRANCH  21  23
ATOM     23  C   UNL     1      -0.734  11.072  21.186  0.00  0.00    +0.000 A 
ATOM     24  C   UNL     1      -1.402  11.620  20.077  0.00  0.00    +0.000 A 
ATOM     25  C   UNL     1      -2.552  12.404  20.262  0.00  0.00    +0.000 A 
ATOM     26  C   UNL     1      -2.977  12.624  21.554  0.00  0.00    +0.000 A 
ATOM     27  C   UNL     1      -2.289  12.125  22.635  0.00  0.00    +0.000 A 
ATOM     28  C   UNL     1      -1.176  11.337  22.485  0.00  0.00    +0.000 A 
ATOM     29  O   UNL     1      -2.861  12.462  23.823  0.00  0.00    +0.000 OA
ATOM     30  C   UNL     1      -4.114  12.988  23.348  0.00  0.00    +0.000 C 
ATOM     31  O   UNL     1      -4.096  13.298  21.938  0.00  0.00    +0.000 OA
ENDBRANCH  21  23
ENDBRANCH  18  19
ENDBRANCH  17  18
ENDBRANCH   5  17
TORSDOF 5
ENDMDL
MODEL 7
REMARK VINA RESULT:      -8.1      3.809     10.252
REMARK  Name = 
REMARK  7 active torsions:
REMARK  status: ('A' for Active; 'I' for Inactive)
REMARK    1  A    between atoms: C_1  and  C_2
REMARK    2  A    between atoms: C_2  and  C_3
REMARK    3  A    between atoms: C_2  and  C_4
REMARK    4  A    between atoms: C_8  and  S_9
REMARK    5  A    between atoms: S_9  and  C_10
REMARK    6  A    between atoms: C_10  and  C_11
REMARK    7  A    between atoms: N_13  and  C_14
REMARK                            x       y       z     vdW  Elec       q    Type
REMARK                         _______ _______ _______ _____ _____    ______ ____
ROOT
ATOM      1  C   UNL     1      -3.292  12.959  20.466  0.00  0.00    +0.000 A 
ATOM      2  N   UNL     1      -2.464  13.313  21.438  0.00  0.00    +0.000 NA
ATOM      3  N   UNL     1      -1.282  12.632  21.284  0.00  0.00    +0.000 NA
ATOM      4  C   UNL     1      -1.399  11.891  20.205  0.00  0.00    +0.000 A 
ATOM      5  C   UNL     1      -0.454  10.975  19.655  0.00  0.00    +0.000 A 
ATOM      6  N   UNL     1      -0.687  10.341  18.550  0.00  0.00    +0.000 NA
ATOM      7  C   UNL     1      -1.919  10.585  17.893  0.00  0.00    +0.000 A 
ATOM      8  C   UNL     1      -2.153   9.912  16.686  0.00  0.00    +0.000 A 
ATOM      9  C   UNL     1      -3.330  10.111  15.975  0.00  0.00    +0.000 A 
ATOM     10  C   UNL     1      -4.276  11.000  16.451  0.00  0.00    +0.000 A 
ATOM     11  C   UNL     1      -4.079  11.693  17.648  0.00  0.00    +0.000 A 
ATOM     12  C   UNL     1      -2.909  11.465  18.382  0.00  0.00    +0.000 A 
ATOM     13  N   UNL     1      -2.617  12.102  19.609  0.00  0.00    +0.000 N 
ENDROOT
BRANCH   1  15
ATOM     14  C   UNL     1      -5.650  12.345  21.006  0.00  0.00    +0.000 C 
ATOM     15  C   UNL     1      -4.720  13.404  20.398  0.00  0.00    +0.000 C 
ATOM     16  C   UNL     1      -4.909  14.732  21.129  0.00  0.00    +0.000 C 
ENDBRANCH   1  15
BRANCH   5  17
ATOM     17  S   UNL     1       1.031  10.765  20.550  0.00  0.00    +0.000 S 
BRANCH  17  18
ATOM     18  C   UNL     1       0.943   9.005  21.017  0.00  0.00    +0.000 C 
BRANCH  18  19
ATOM     19  C   UNL     1       1.679   8.142  19.992  0.00  0.00    +0.000 C 
ATOM     20  O   UNL     1       1.965   8.564  18.875  0.00  0.00    +0.000 OA
ATOM     21  N   UNL     1       1.992   6.884  20.476  0.00  0.00    +0.000 N 
ATOM     22  H   UNL     1       1.406   6.589  21.252  0.00  0.00    +0.000 HD
BRANCH  21  23
ATOM     23  C   UNL     1       2.596   5.857  19.736  0.00  0.00    +0.000 A 
ATOM     24  C   UNL     1       3.987   5.655  19.690  0.00  0.00    +0.000 A 
ATOM     25  C   UNL     1       4.516   4.531  19.037  0.00  0.00    +0.000 A 
ATOM     26  C   UNL     1       3.630   3.662  18.438  0.00  0.00    +0.000 A 
ATOM     27  C   UNL     1       2.274   3.894  18.444  0.00  0.00    +0.000 A 
ATOM     28  C   UNL     1       1.727   4.971  19.095  0.00  0.00    +0.000 A 
ATOM     29  O   UNL     1       1.573   2.930  17.790  0.00  0.00    +0.000 OA
ATOM     30  C   UNL     1       2.613   1.949  17.617  0.00  0.00    +0.000 C 
ATOM     31  O   UNL     1       3.936   2.491  17.813  0.00  0.00    +0.000 OA
ENDBRANCH  21  23
ENDBRANCH  18  19
ENDBRANCH  17  18
ENDBRANCH   5  17
TORSDOF 5
ENDMDL
MODEL 8
REMARK VINA RESULT:      -8.1      1.383      1.706
REMARK  Name = 
REMARK  7 active torsions:
REMARK  status: ('A' for Active; 'I' for Inactive)
REMARK    1  A    between atoms: C_1  and  C_2
REMARK    2  A    between atoms: C_2  and  C_3
REMARK    3  A    between atoms: C_2  and  C_4
REMARK    4  A    between atoms: C_8  and  S_9
REMARK    5  A    between atoms: S_9  and  C_10
REMARK    6  A    between atoms: C_10  and  C_11
REMARK    7  A    between atoms: N_13  and  C_14
REMARK                            x       y       z     vdW  Elec       q    Type
REMARK                         _______ _______ _______ _____ _____    ______ ____
ROOT
ATOM      1  C   UNL     1       5.091   5.373  16.754  0.00  0.00    +0.000 A 
ATOM      2  N   UNL     1       5.326   6.677  16.722  0.00  0.00    +0.000 NA
ATOM      3  N   UNL     1       4.364   7.318  17.462  0.00  0.00    +0.000 NA
ATOM      4  C   UNL     1       3.572   6.393  17.955  0.00  0.00    +0.000 A 
ATOM      5  C   UNL     1       2.403   6.564  18.754  0.00  0.00    +0.000 A 
ATOM      6  N   UNL     1       1.738   5.550  19.212  0.00  0.00    +0.000 NA
ATOM      7  C   UNL     1       2.211   4.252  18.896  0.00  0.00    +0.000 A 
ATOM      8  C   UNL     1       1.500   3.161  19.415  0.00  0.00    +0.000 A 
ATOM      9  C   UNL     1       1.910   1.858  19.163  0.00  0.00    +0.000 A 
ATOM     10  C   UNL     1       3.046   1.630  18.409  0.00  0.00    +0.000 A 
ATOM     11  C   UNL     1       3.784   2.691  17.877  0.00  0.00    +0.000 A 
ATOM     12  C   UNL     1       3.350   4.003  18.101  0.00  0.00    +0.000 A 
ATOM     13  N   UNL     1       4.014   5.144  17.599  0.00  0.00    +0.000 N 
ENDROOT
BRANCH   1  15
ATOM     14  C   UNL     1       5.487   4.473  14.460  0.00  0.00    +0.000 C 
ATOM     15  C   UNL     1       5.864   4.377  15.945  0.00  0.00    +0.000 C 
ATOM     16  C   UNL     1       7.367   4.597  16.107  0.00  0.00    +0.000 C 
ENDBRANCH   1  15
BRANCH   5  17
ATOM     17  S   UNL     1       1.924   8.211  19.083  0.00  0.00    +0.000 S 
BRANCH  17  18
ATOM     18  C   UNL     1       1.791   8.210  20.901  0.00  0.00    +0.000 C 
BRANCH  18  19
ATOM     19  C   UNL     1       0.427   8.744  21.337  0.00  0.00    +0.000 C 
ATOM     20  O   UNL     1      -0.532   8.001  21.528  0.00  0.00    +0.000 OA
ATOM     21  N   UNL     1       0.420  10.118  21.507  0.00  0.00    +0.000 N 
ATOM     22  H   UNL     1       1.156  10.596  20.995  0.00  0.00    +0.000 HD
BRANCH  21  23
ATOM     23  C   UNL     1      -0.707  10.890  21.827  0.00  0.00    +0.000 A 
ATOM     24  C   UNL     1      -1.280  10.922  23.111  0.00  0.00    +0.000 A 
ATOM     25  C   UNL     1      -2.326  11.815  23.395  0.00  0.00    +0.000 A 
ATOM     26  C   UNL     1      -2.768  12.629  22.376  0.00  0.00    +0.000 A 
ATOM     27  C   UNL     1      -2.236  12.556  21.110  0.00  0.00    +0.000 A 
ATOM     28  C   UNL     1      -1.198  11.710  20.808  0.00  0.00    +0.000 A 
ATOM     29  O   UNL     1      -2.816  13.430  20.245  0.00  0.00    +0.000 OA
ATOM     30  C   UNL     1      -3.569  14.230  21.176  0.00  0.00    +0.000 C 
ATOM     31  O   UNL     1      -3.721  13.598  22.465  0.00  0.00    +0.000 OA
ENDBRANCH  21  23
ENDBRANCH  18  19
ENDBRANCH  17  18
ENDBRANCH   5  17
TORSDOF 5
ENDMDL
MODEL 9
REMARK VINA RESULT:      -8.0      2.871      3.546
REMARK  Name = 
REMARK  7 active torsions:
REMARK  status: ('A' for Active; 'I' for Inactive)
REMARK    1  A    between atoms: C_1  and  C_2
REMARK    2  A    between atoms: C_2  and  C_3
REMARK    3  A    between atoms: C_2  and  C_4
REMARK    4  A    between atoms: C_8  and  S_9
REMARK    5  A    between atoms: S_9  and  C_10
REMARK    6  A    between atoms: C_10  and  C_11
REMARK    7  A    between atoms: N_13  and  C_14
REMARK                            x       y       z     vdW  Elec       q    Type
REMARK                         _______ _______ _______ _____ _____    ______ ____
ROOT
ATOM      1  C   UNL     1       5.163   5.470  17.235  0.00  0.00    +0.000 A 
ATOM      2  N   UNL     1       5.288   6.637  16.620  0.00  0.00    +0.000 NA
ATOM      3  N   UNL     1       4.309   7.485  17.075  0.00  0.00    +0.000 NA
ATOM      4  C   UNL     1       3.617   6.829  17.979  0.00  0.00    +0.000 A 
ATOM      5  C   UNL     1       2.473   7.271  18.707  0.00  0.00    +0.000 A 
ATOM      6  N   UNL     1       1.914   6.528  19.609  0.00  0.00    +0.000 NA
ATOM      7  C   UNL     1       2.478   5.252  19.859  0.00  0.00    +0.000 A 
ATOM      8  C   UNL     1       1.881   4.464  20.853  0.00  0.00    +0.000 A 
ATOM      9  C   UNL     1       2.385   3.209  21.166  0.00  0.00    +0.000 A 
ATOM     10  C   UNL     1       3.503   2.734  20.505  0.00  0.00    +0.000 A 
ATOM     11  C   UNL     1       4.129   3.491  19.510  0.00  0.00    +0.000 A 
ATOM     12  C   UNL     1       3.599   4.741  19.170  0.00  0.00    +0.000 A 
ATOM     13  N   UNL     1       4.145   5.578  18.173  0.00  0.00    +0.000 N 
ENDROOT
BRANCH   1  15
ATOM     14  C   UNL     1       5.856   3.935  15.393  0.00  0.00    +0.000 C 
ATOM     15  C   UNL     1       5.980   4.264  16.888  0.00  0.00    +0.000 C 
ATOM     16  C   UNL     1       7.449   4.484  17.244  0.00  0.00    +0.000 C 
ENDBRANCH   1  15
BRANCH   5  17
ATOM     17  S   UNL     1       1.875   8.865  18.318  0.00  0.00    +0.000 S 
BRANCH  17  18
ATOM     18  C   UNL     1       0.981   9.316  19.842  0.00  0.00    +0.000 C 
BRANCH  18  19
ATOM     19  C   UNL     1       1.147  10.806  20.137  0.00  0.00    +0.000 C 
ATOM     20  O   UNL     1       1.085  11.253  21.279  0.00  0.00    +0.000 OA
ATOM     21  N   UNL     1       1.393  11.553  18.998  0.00  0.00    +0.000 N 
ATOM     22  H   UNL     1       1.078  11.106  18.142  0.00  0.00    +0.000 HD
BRANCH  21  23
ATOM     23  C   UNL     1       1.510  12.950  18.954  0.00  0.00    +0.000 A 
ATOM     24  C   UNL     1       2.734  13.615  18.760  0.00  0.00    +0.000 A 
ATOM     25  C   UNL     1       2.762  15.009  18.596  0.00  0.00    +0.000 A 
ATOM     26  C   UNL     1       1.563  15.685  18.651  0.00  0.00    +0.000 A 
ATOM     27  C   UNL     1       0.376  15.033  18.891  0.00  0.00    +0.000 A 
ATOM     28  C   UNL     1       0.315  13.669  19.032  0.00  0.00    +0.000 A 
ATOM     29  O   UNL     1      -0.691  15.876  18.921  0.00  0.00    +0.000 OA
ATOM     30  C   UNL     1      -0.070  17.070  18.408  0.00  0.00    +0.000 C 
ATOM     31  O   UNL     1       1.372  17.019  18.455  0.00  0.00    +0.000 OA
ENDBRANCH  21  23
ENDBRANCH  18  19
ENDBRANCH  17  18
ENDBRANCH   5  17
TORSDOF 5
ENDMDL
