MODEL 1
REMARK VINA RESULT:      -7.4      0.000      0.000
REMARK  Name = 
REMARK  7 active torsions:
REMARK  status: ('A' for Active; 'I' for Inactive)
REMARK    1  A    between atoms: C_1  and  C_2
REMARK    2  A    between atoms: C_6  and  C_8
REMARK    3  A    between atoms: C_11  and  C_12
REMARK    4  A    between atoms: C_18  and  C_19
REMARK    5  A    between atoms: C_19  and  C_20
REMARK    6  A    between atoms: C_20  and  C_21
REMARK    7  A    between atoms: C_21  and  O_23
REMARK                            x       y       z     vdW  Elec       q    Type
REMARK                         _______ _______ _______ _____ _____    ______ ____
ROOT
ATOM      1  C   UNL     1       4.511   2.881  19.724  0.00  0.00    +0.000 C 
ATOM      2  C   UNL     1       4.142   4.213  19.177  0.00  0.00    +0.000 A 
ATOM      3  N   UNL     1       3.419   5.076  19.994  0.00  0.00    +0.000 NA
ATOM      4  C   UNL     1       3.070   6.147  19.320  0.00  0.00    +0.000 A 
ATOM      5  N   UNL     1       2.327   7.145  19.903  0.00  0.00    +0.000 N 
ATOM      6  C   UNL     1       1.759   8.220  19.256  0.00  0.00    +0.000 C 
ATOM      7  O   UNL     1       1.783   8.442  18.050  0.00  0.00    +0.000 OA
ATOM      8  S   UNL     1       3.648   6.233  17.726  0.00  0.00    +0.000 S 
ATOM      9  C   UNL     1       4.429   4.715  17.915  0.00  0.00    +0.000 A 
ATOM     10  H   UNL     1       2.203   6.997  20.892  0.00  0.00    +0.000 HD
ENDROOT
BRANCH   6  11
ATOM     11  C   UNL     1       1.056   9.218  20.122  0.00  0.00    +0.000 A 
ATOM     12  C   UNL     1       0.927   8.910  21.486  0.00  0.00    +0.000 A 
ATOM     13  C   UNL     1       0.267   9.780  22.357  0.00  0.00    +0.000 A 
ATOM     14  C   UNL     1      -0.270  10.977  21.877  0.00  0.00    +0.000 A 
ATOM     15  C   UNL     1      -0.131  11.300  20.521  0.00  0.00    +0.000 A 
ATOM     16  C   UNL     1       0.535  10.428  19.647  0.00  0.00    +0.000 A 
BRANCH  14  17
ATOM     17  C   UNL     1      -0.997  11.883  22.812  0.00  0.00    +0.000 C 
ATOM     18  N   UNL     1      -0.552  13.048  23.154  0.00  0.00    +0.000 NA
ATOM     19  N   UNL     1      -2.190  11.502  23.352  0.00  0.00    +0.000 N 
ATOM     20  H   UNL     1       0.367  13.240  22.754  0.00  0.00    +0.000 HD
ATOM     21  H   UNL     1      -2.803  10.956  22.761  0.00  0.00    +0.000 HD
ATOM     22  H   UNL     1      -2.658  12.290  23.786  0.00  0.00    +0.000 HD
ENDBRANCH  14  17
ENDBRANCH   6  11
BRANCH   9  23
ATOM     23  C   UNL     1       5.214   4.119  16.782  0.00  0.00    +0.000 C 
BRANCH  23  24
ATOM     24  C   UNL     1       5.485   5.136  15.670  0.00  0.00    +0.000 C 
BRANCH  24  25
ATOM     25  C   UNL     1       6.637   4.710  14.796  0.00  0.00    +0.000 C 
ATOM     26  O   UNL     1       7.648   5.361  14.594  0.00  0.00    +0.000 OA
BRANCH  25  27
ATOM     27  O   UNL     1       6.433   3.497  14.231  0.00  0.00    +0.000 OA
ATOM     28  H   UNL     1       6.507   2.749  14.856  0.00  0.00    +0.000 HD
ENDBRANCH  25  27
ENDBRANCH  24  25
ENDBRANCH  23  24
ENDBRANCH   9  23
TORSDOF 6
ENDMDL
MODEL 2
REMARK VINA RESULT:      -7.4      1.355      1.481
REMARK  Name = 
REMARK  7 active torsions:
REMARK  status: ('A' for Active; 'I' for Inactive)
REMARK    1  A    between atoms: C_1  and  C_2
REMARK    2  A    between atoms: C_6  and  C_8
REMARK    3  A    between atoms: C_11  and  C_12
REMARK    4  A    between atoms: C_18  and  C_19
REMARK    5  A    between atoms: C_19  and  C_20
REMARK    6  A    between atoms: C_20  and  C_21
REMARK    7  A    between atoms: C_21  and  O_23
REMARK                            x       y       z     vdW  Elec       q    Type
REMARK                         _______ _______ _______ _____ _____    ______ ____
ROOT
ATOM      1  C   UNL     1       4.058   2.769  19.749  0.00  0.00    +0.000 C 
ATOM      2  C   UNL     1       3.831   4.155  19.262  0.00  0.00    +0.000 A 
ATOM      3  N   UNL     1       3.103   5.020  20.072  0.00  0.00    +0.000 NA
ATOM      4  C   UNL     1       2.888   6.152  19.444  0.00  0.00    +0.000 A 
ATOM      5  N   UNL     1       2.169   7.166  20.029  0.00  0.00    +0.000 N 
ATOM      6  C   UNL     1       1.735   8.317  19.409  0.00  0.00    +0.000 C 
ATOM      7  O   UNL     1       1.877   8.607  18.227  0.00  0.00    +0.000 OA
ATOM      8  S   UNL     1       3.605   6.288  17.910  0.00  0.00    +0.000 S 
ATOM      9  C   UNL     1       4.258   4.707  18.063  0.00  0.00    +0.000 A 
ATOM     10  H   UNL     1       1.952   6.970  20.993  0.00  0.00    +0.000 HD
ENDROOT
BRANCH   6  11
ATOM     11  C   UNL     1       1.031   9.311  20.279  0.00  0.00    +0.000 A 
ATOM     12  C   UNL     1       0.448   8.833  21.464  0.00  0.00    +0.000 A 
ATOM     13  C   UNL     1      -0.242   9.694  22.320  0.00  0.00    +0.000 A 
ATOM     14  C   UNL     1      -0.356  11.051  22.006  0.00  0.00    +0.000 A 
ATOM     15  C   UNL     1       0.237  11.540  20.835  0.00  0.00    +0.000 A 
ATOM     16  C   UNL     1       0.935  10.676  19.977  0.00  0.00    +0.000 A 
BRANCH  14  17
ATOM     17  C   UNL     1      -1.121  11.954  22.914  0.00  0.00    +0.000 C 
ATOM     18  N   UNL     1      -0.684  13.111  23.289  0.00  0.00    +0.000 NA
ATOM     19  N   UNL     1      -2.341  11.577  23.392  0.00  0.00    +0.000 N 
ATOM     20  H   UNL     1       0.255  13.300  22.937  0.00  0.00    +0.000 HD
ATOM     21  H   UNL     1      -2.929  11.042  22.765  0.00  0.00    +0.000 HD
ATOM     22  H   UNL     1      -2.824  12.364  23.811  0.00  0.00    +0.000 HD
ENDBRANCH  14  17
ENDBRANCH   6  11
BRANCH   9  23
ATOM     23  C   UNL     1       5.094   4.122  16.960  0.00  0.00    +0.000 C 
BRANCH  23  24
ATOM     24  C   UNL     1       6.404   4.889  16.760  0.00  0.00    +0.000 C 
BRANCH  24  25
ATOM     25  C   UNL     1       7.324   4.738  17.944  0.00  0.00    +0.000 C 
ATOM     26  O   UNL     1       7.151   5.241  19.042  0.00  0.00    +0.000 OA
BRANCH  25  27
ATOM     27  O   UNL     1       8.402   3.969  17.663  0.00  0.00    +0.000 OA
ATOM     28  H   UNL     1       9.212   4.478  17.463  0.00  0.00    +0.000 HD
ENDBRANCH  25  27
ENDBRANCH  24  25
ENDBRANCH  23  24
ENDBRANCH   9  23
TORSDOF 6
ENDMDL
MODEL 3
REMARK VINA RESULT:      -7.4      1.617      1.950
REMARK  Name = 
REMARK  7 active torsions:
REMARK  status: ('A' for Active; 'I' for Inactive)
REMARK    1  A    between atoms: C_1  and  C_2
REMARK    2  A    between atoms: C_6  and  C_8
REMARK    3  A    between atoms: C_11  and  C_12
REMARK    4  A    between atoms: C_18  and  C_19
REMARK    5  A    between atoms: C_19  and  C_20
REMARK    6  A    between atoms: C_20  and  C_21
REMARK    7  A    between atoms: C_21  and  O_23
REMARK                            x       y       z     vdW  Elec       q    Type
REMARK                         _______ _______ _______ _____ _____    ______ ____
ROOT
ATOM      1  C   UNL     1       2.927   2.448  20.844  0.00  0.00    +0.000 C 
ATOM      2  C   UNL     1       2.995   3.861  20.387  0.00  0.00    +0.000 A 
ATOM      3  N   UNL     1       2.174   4.791  21.017  0.00  0.00    +0.000 NA
ATOM      4  C   UNL     1       2.265   5.953  20.414  0.00  0.00    +0.000 A 
ATOM      5  N   UNL     1       1.531   7.034  20.838  0.00  0.00    +0.000 N 
ATOM      6  C   UNL     1       1.411   8.241  20.186  0.00  0.00    +0.000 C 
ATOM      7  O   UNL     1       1.900   8.536  19.101  0.00  0.00    +0.000 OA
ATOM      8  S   UNL     1       3.382   6.033  19.137  0.00  0.00    +0.000 S 
ATOM      9  C   UNL     1       3.791   4.382  19.376  0.00  0.00    +0.000 A 
ATOM     10  H   UNL     1       1.040   6.846  21.697  0.00  0.00    +0.000 HD
ENDROOT
BRANCH   6  11
ATOM     11  C   UNL     1       0.613   9.296  20.886  0.00  0.00    +0.000 A 
ATOM     12  C   UNL     1       0.204   9.026  22.203  0.00  0.00    +0.000 A 
ATOM     13  C   UNL     1      -0.561   9.951  22.918  0.00  0.00    +0.000 A 
ATOM     14  C   UNL     1      -0.924  11.164  22.329  0.00  0.00    +0.000 A 
ATOM     15  C   UNL     1      -0.506  11.449  21.022  0.00  0.00    +0.000 A 
ATOM     16  C   UNL     1       0.266  10.522  20.305  0.00  0.00    +0.000 A 
BRANCH  14  17
ATOM     17  C   UNL     1      -1.764  12.130  23.093  0.00  0.00    +0.000 C 
ATOM     18  N   UNL     1      -2.950  11.848  23.523  0.00  0.00    +0.000 NA
ATOM     19  N   UNL     1      -1.295  13.380  23.373  0.00  0.00    +0.000 N 
ATOM     20  H   UNL     1      -3.254  10.919  23.231  0.00  0.00    +0.000 HD
ATOM     21  H   UNL     1      -0.305  13.460  23.570  0.00  0.00    +0.000 HD
ATOM     22  H   UNL     1      -1.874  13.837  24.067  0.00  0.00    +0.000 HD
ENDBRANCH  14  17
ENDBRANCH   6  11
BRANCH   9  23
ATOM     23  C   UNL     1       4.824   3.723  18.508  0.00  0.00    +0.000 C 
BRANCH  23  24
ATOM     24  C   UNL     1       5.633   4.741  17.700  0.00  0.00    +0.000 C 
BRANCH  24  25
ATOM     25  C   UNL     1       7.087   4.738  18.099  0.00  0.00    +0.000 C 
ATOM     26  O   UNL     1       7.524   5.099  19.178  0.00  0.00    +0.000 OA
BRANCH  25  27
ATOM     27  O   UNL     1       7.891   4.286  17.107  0.00  0.00    +0.000 OA
ATOM     28  H   UNL     1       8.828   4.190  17.367  0.00  0.00    +0.000 HD
ENDBRANCH  25  27
ENDBRANCH  24  25
ENDBRANCH  23  24
ENDBRANCH   9  23
TORSDOF 6
ENDMDL
MODEL 4
REMARK VINA RESULT:      -7.3      1.274      1.746
REMARK  Name = 
REMARK  7 active torsions:
REMARK  status: ('A' for Active; 'I' for Inactive)
REMARK    1  A    between atoms: C_1  and  C_2
REMARK    2  A    between atoms: C_6  and  C_8
REMARK    3  A    between atoms: C_11  and  C_12
REMARK    4  A    between atoms: C_18  and  C_19
REMARK    5  A    between atoms: C_19  and  C_20
REMARK    6  A    between atoms: C_20  and  C_21
REMARK    7  A    between atoms: C_21  and  O_23
REMARK                            x       y       z     vdW  Elec       q    Type
REMARK                         _______ _______ _______ _____ _____    ______ ____
ROOT
ATOM      1  C   UNL     1       3.346   2.499  20.303  0.00  0.00    +0.000 C 
ATOM      2  C   UNL     1       3.302   3.942  19.950  0.00  0.00    +0.000 A 
ATOM      3  N   UNL     1       2.465   4.770  20.691  0.00  0.00    +0.000 NA
ATOM      4  C   UNL     1       2.450   5.975  20.173  0.00  0.00    +0.000 A 
ATOM      5  N   UNL     1       1.678   6.974  20.716  0.00  0.00    +0.000 N 
ATOM      6  C   UNL     1       1.447   8.214  20.163  0.00  0.00    +0.000 C 
ATOM      7  O   UNL     1       1.853   8.617  19.079  0.00  0.00    +0.000 OA
ATOM      8  S   UNL     1       3.483   6.219  18.848  0.00  0.00    +0.000 S 
ATOM      9  C   UNL     1       4.004   4.585  18.940  0.00  0.00    +0.000 A 
ATOM     10  H   UNL     1       1.249   6.693  21.583  0.00  0.00    +0.000 HD
ENDROOT
BRANCH   6  11
ATOM     11  C   UNL     1       0.628   9.162  20.983  0.00  0.00    +0.000 A 
ATOM     12  C   UNL     1       0.108  10.293  20.332  0.00  0.00    +0.000 A 
ATOM     13  C   UNL     1      -0.650  11.235  21.031  0.00  0.00    +0.000 A 
ATOM     14  C   UNL     1      -0.905  11.058  22.393  0.00  0.00    +0.000 A 
ATOM     15  C   UNL     1      -0.404   9.924  23.046  0.00  0.00    +0.000 A 
ATOM     16  C   UNL     1       0.354   8.975  22.344  0.00  0.00    +0.000 A 
BRANCH  14  17
ATOM     17  C   UNL     1      -1.691  12.086  23.134  0.00  0.00    +0.000 C 
ATOM     18  N   UNL     1      -1.220  13.249  23.442  0.00  0.00    +0.000 NA
ATOM     19  N   UNL     1      -2.973  11.824  23.521  0.00  0.00    +0.000 N 
ATOM     20  H   UNL     1      -0.242  13.351  23.169  0.00  0.00    +0.000 HD
ATOM     21  H   UNL     1      -3.533  11.263  22.891  0.00  0.00    +0.000 HD
ATOM     22  H   UNL     1      -3.442  12.674  23.816  0.00  0.00    +0.000 HD
ENDBRANCH  14  17
ENDBRANCH   6  11
BRANCH   9  23
ATOM     23  C   UNL     1       5.024   4.057  17.971  0.00  0.00    +0.000 C 
BRANCH  23  24
ATOM     24  C   UNL     1       5.342   5.065  16.863  0.00  0.00    +0.000 C 
BRANCH  24  25
ATOM     25  C   UNL     1       6.823   5.323  16.754  0.00  0.00    +0.000 C 
ATOM     26  O   UNL     1       7.694   4.472  16.823  0.00  0.00    +0.000 OA
BRANCH  25  27
ATOM     27  O   UNL     1       7.105   6.634  16.572  0.00  0.00    +0.000 OA
ATOM     28  H   UNL     1       8.046   6.816  16.383  0.00  0.00    +0.000 HD
ENDBRANCH  25  27
ENDBRANCH  24  25
ENDBRANCH  23  24
ENDBRANCH   9  23
TORSDOF 6
ENDMDL
MODEL 5
REMARK VINA RESULT:      -7.3      1.360      1.790
REMARK  Name = 
REMARK  7 active torsions:
REMARK  status: ('A' for Active; 'I' for Inactive)
REMARK    1  A    between atoms: C_1  and  C_2
REMARK    2  A    between atoms: C_6  and  C_8
REMARK    3  A    between atoms: C_11  and  C_12
REMARK    4  A    between atoms: C_18  and  C_19
REMARK    5  A    between atoms: C_19  and  C_20
REMARK    6  A    between atoms: C_20  and  C_21
REMARK    7  A    between atoms: C_21  and  O_23
REMARK                            x       y       z     vdW  Elec       q    Type
REMARK                         _______ _______ _______ _____ _____    ______ ____
ROOT
ATOM      1  C   UNL     1       4.417   3.168  19.472  0.00  0.00    +0.000 C 
ATOM      2  C   UNL     1       4.251   4.536  18.915  0.00  0.00    +0.000 A 
ATOM      3  N   UNL     1       3.254   5.343  19.454  0.00  0.00    +0.000 NA
ATOM      4  C   UNL     1       3.161   6.460  18.770  0.00  0.00    +0.000 A 
ATOM      5  N   UNL     1       2.230   7.417  19.095  0.00  0.00    +0.000 N 
ATOM      6  C   UNL     1       1.923   8.537  18.353  0.00  0.00    +0.000 C 
ATOM      7  O   UNL     1       2.394   8.842  17.263  0.00  0.00    +0.000 OA
ATOM      8  S   UNL     1       4.294   6.654  17.521  0.00  0.00    +0.000 S 
ATOM      9  C   UNL     1       4.980   5.123  17.890  0.00  0.00    +0.000 A 
ATOM     10  H   UNL     1       1.747   7.202  19.952  0.00  0.00    +0.000 HD
ENDROOT
BRANCH   6  11
ATOM     11  C   UNL     1       0.924   9.475  18.954  0.00  0.00    +0.000 A 
ATOM     12  C   UNL     1      -0.032  10.037  18.091  0.00  0.00    +0.000 A 
ATOM     13  C   UNL     1      -0.987  10.937  18.570  0.00  0.00    +0.000 A 
ATOM     14  C   UNL     1      -1.005  11.284  19.923  0.00  0.00    +0.000 A 
ATOM     15  C   UNL     1      -0.067  10.715  20.794  0.00  0.00    +0.000 A 
ATOM     16  C   UNL     1       0.890   9.808  20.314  0.00  0.00    +0.000 A 
BRANCH  14  17
ATOM     17  C   UNL     1      -2.012  12.268  20.416  0.00  0.00    +0.000 C 
ATOM     18  N   UNL     1      -2.665  13.062  19.634  0.00  0.00    +0.000 NA
ATOM     19  N   UNL     1      -2.286  12.362  21.749  0.00  0.00    +0.000 N 
ATOM     20  H   UNL     1      -2.369  12.972  18.661  0.00  0.00    +0.000 HD
ATOM     21  H   UNL     1      -2.270  11.500  22.279  0.00  0.00    +0.000 HD
ATOM     22  H   UNL     1      -3.126  12.907  21.908  0.00  0.00    +0.000 HD
ENDBRANCH  14  17
ENDBRANCH   6  11
BRANCH   9  23
ATOM     23  C   UNL     1       6.147   4.604  17.100  0.00  0.00    +0.000 C 
BRANCH  23  24
ATOM     24  C   UNL     1       5.710   3.969  15.777  0.00  0.00    +0.000 C 
BRANCH  24  25
ATOM     25  C   UNL     1       6.620   4.366  14.643  0.00  0.00    +0.000 C 
ATOM     26  O   UNL     1       7.416   5.290  14.666  0.00  0.00    +0.000 OA
BRANCH  25  27
ATOM     27  O   UNL     1       6.459   3.578  13.554  0.00  0.00    +0.000 OA
ATOM     28  H   UNL     1       7.049   3.804  12.808  0.00  0.00    +0.000 HD
ENDBRANCH  25  27
ENDBRANCH  24  25
ENDBRANCH  23  24
ENDBRANCH   9  23
TORSDOF 6
ENDMDL
MODEL 6
REMARK VINA RESULT:      -7.3      0.565      1.000
REMARK  Name = 
REMARK  7 active torsions:
REMARK  status: ('A' for Active; 'I' for Inactive)
REMARK    1  A    between atoms: C_1  and  C_2
REMARK    2  A    between atoms: C_6  and  C_8
REMARK    3  A    between atoms: C_11  and  C_12
REMARK    4  A    between atoms: C_18  and  C_19
REMARK    5  A    between atoms: C_19  and  C_20
REMARK    6  A    between atoms: C_20  and  C_21
REMARK    7  A    between atoms: C_21  and  O_23
REMARK                            x       y       z     vdW  Elec       q    Type
REMARK                         _______ _______ _______ _____ _____    ______ ____
ROOT
ATOM      1  C   UNL     1       4.245   2.735  19.837  0.00  0.00    +0.000 C 
ATOM      2  C   UNL     1       3.971   4.088  19.286  0.00  0.00    +0.000 A 
ATOM      3  N   UNL     1       3.230   4.972  20.064  0.00  0.00    +0.000 NA
ATOM      4  C   UNL     1       2.974   6.065  19.384  0.00  0.00    +0.000 A 
ATOM      5  N   UNL     1       2.234   7.086  19.930  0.00  0.00    +0.000 N 
ATOM      6  C   UNL     1       1.758   8.192  19.262  0.00  0.00    +0.000 C 
ATOM      7  O   UNL     1       1.874   8.427  18.064  0.00  0.00    +0.000 OA
ATOM      8  S   UNL     1       3.663   6.145  17.835  0.00  0.00    +0.000 S 
ATOM      9  C   UNL     1       4.365   4.593  18.054  0.00  0.00    +0.000 A 
ATOM     10  H   UNL     1       2.037   6.932  20.906  0.00  0.00    +0.000 HD
ENDROOT
BRANCH   6  11
ATOM     11  C   UNL     1       1.039   9.208  20.093  0.00  0.00    +0.000 A 
ATOM     12  C   UNL     1       0.627   8.816  21.378  0.00  0.00    +0.000 A 
ATOM     13  C   UNL     1      -0.066   9.700  22.207  0.00  0.00    +0.000 A 
ATOM     14  C   UNL     1      -0.354  10.994  21.767  0.00  0.00    +0.000 A 
ATOM     15  C   UNL     1       0.067  11.399  20.494  0.00  0.00    +0.000 A 
ATOM     16  C   UNL     1       0.768  10.513  19.661  0.00  0.00    +0.000 A 
BRANCH  14  17
ATOM     17  C   UNL     1      -1.120  11.919  22.652  0.00  0.00    +0.000 C 
ATOM     18  N   UNL     1      -2.151  11.548  23.336  0.00  0.00    +0.000 NA
ATOM     19  N   UNL     1      -0.745  13.224  22.772  0.00  0.00    +0.000 N 
ATOM     20  H   UNL     1      -2.404  10.576  23.154  0.00  0.00    +0.000 HD
ATOM     21  H   UNL     1       0.249  13.416  22.751  0.00  0.00    +0.000 HD
ATOM     22  H   UNL     1      -1.215  13.665  23.555  0.00  0.00    +0.000 HD
ENDBRANCH  14  17
ENDBRANCH   6  11
BRANCH   9  23
ATOM     23  C   UNL     1       5.200   3.977  16.969  0.00  0.00    +0.000 C 
BRANCH  23  24
ATOM     24  C   UNL     1       5.542   4.981  15.865  0.00  0.00    +0.000 C 
BRANCH  24  25
ATOM     25  C   UNL     1       7.031   5.112  15.674  0.00  0.00    +0.000 C 
ATOM     26  O   UNL     1       7.595   5.268  14.604  0.00  0.00    +0.000 OA
BRANCH  25  27
ATOM     27  O   UNL     1       7.709   5.032  16.843  0.00  0.00    +0.000 OA
ATOM     28  H   UNL     1       7.136   5.027  17.635  0.00  0.00    +0.000 HD
ENDBRANCH  25  27
ENDBRANCH  24  25
ENDBRANCH  23  24
ENDBRANCH   9  23
TORSDOF 6
ENDMDL
MODEL 7
REMARK VINA RESULT:      -7.3      2.176      2.629
REMARK  Name = 
REMARK  7 active torsions:
REMARK  status: ('A' for Active; 'I' for Inactive)
REMARK    1  A    between atoms: C_1  and  C_2
REMARK    2  A    between atoms: C_6  and  C_8
REMARK    3  A    between atoms: C_11  and  C_12
REMARK    4  A    between atoms: C_18  and  C_19
REMARK    5  A    between atoms: C_19  and  C_20
REMARK    6  A    between atoms: C_20  and  C_21
REMARK    7  A    between atoms: C_21  and  O_23
REMARK                            x       y       z     vdW  Elec       q    Type
REMARK                         _______ _______ _______ _____ _____    ______ ____
ROOT
ATOM      1  C   UNL     1       4.570   3.298  19.396  0.00  0.00    +0.000 C 
ATOM      2  C   UNL     1       4.367   4.676  18.876  0.00  0.00    +0.000 A 
ATOM      3  N   UNL     1       3.347   5.440  19.434  0.00  0.00    +0.000 NA
ATOM      4  C   UNL     1       3.224   6.572  18.780  0.00  0.00    +0.000 A 
ATOM      5  N   UNL     1       2.267   7.494  19.128  0.00  0.00    +0.000 N 
ATOM      6  C   UNL     1       1.930   8.624  18.416  0.00  0.00    +0.000 C 
ATOM      7  O   UNL     1       2.394   8.971  17.336  0.00  0.00    +0.000 OA
ATOM      8  S   UNL     1       4.353   6.831  17.540  0.00  0.00    +0.000 S 
ATOM      9  C   UNL     1       5.081   5.310  17.870  0.00  0.00    +0.000 A 
ATOM     10  H   UNL     1       1.788   7.242  19.978  0.00  0.00    +0.000 HD
ENDROOT
BRANCH   6  11
ATOM     11  C   UNL     1       0.903   9.517  19.039  0.00  0.00    +0.000 A 
ATOM     12  C   UNL     1       0.068  10.242  18.173  0.00  0.00    +0.000 A 
ATOM     13  C   UNL     1      -0.902  11.112  18.675  0.00  0.00    +0.000 A 
ATOM     14  C   UNL     1      -1.056  11.267  20.055  0.00  0.00    +0.000 A 
ATOM     15  C   UNL     1      -0.240  10.536  20.927  0.00  0.00    +0.000 A 
ATOM     16  C   UNL     1       0.732   9.658  20.423  0.00  0.00    +0.000 A 
BRANCH  14  17
ATOM     17  C   UNL     1      -2.077  12.221  20.578  0.00  0.00    +0.000 C 
ATOM     18  N   UNL     1      -2.318  12.375  21.838  0.00  0.00    +0.000 NA
ATOM     19  N   UNL     1      -2.810  12.985  19.718  0.00  0.00    +0.000 N 
ATOM     20  H   UNL     1      -1.773  11.733  22.415  0.00  0.00    +0.000 HD
ATOM     21  H   UNL     1      -2.336  13.316  18.887  0.00  0.00    +0.000 HD
ATOM     22  H   UNL     1      -3.297  13.722  20.215  0.00  0.00    +0.000 HD
ENDBRANCH  14  17
ENDBRANCH   6  11
BRANCH   9  23
ATOM     23  C   UNL     1       6.264   4.845  17.069  0.00  0.00    +0.000 C 
BRANCH  23  24
ATOM     24  C   UNL     1       7.522   4.703  17.928  0.00  0.00    +0.000 C 
BRANCH  24  25
ATOM     25  C   UNL     1       7.738   5.911  18.804  0.00  0.00    +0.000 C 
ATOM     26  O   UNL     1       7.926   7.047  18.404  0.00  0.00    +0.000 OA
BRANCH  25  27
ATOM     27  O   UNL     1       7.708   5.603  20.122  0.00  0.00    +0.000 OA
ATOM     28  H   UNL     1       7.078   6.140  20.641  0.00  0.00    +0.000 HD
ENDBRANCH  25  27
ENDBRANCH  24  25
ENDBRANCH  23  24
ENDBRANCH   9  23
TORSDOF 6
ENDMDL
MODEL 8
REMARK VINA RESULT:      -7.3      3.248      9.040
REMARK  Name = 
REMARK  7 active torsions:
REMARK  status: ('A' for Active; 'I' for Inactive)
REMARK    1  A    between atoms: C_1  and  C_2
REMARK    2  A    between atoms: C_6  and  C_8
REMARK    3  A    between atoms: C_11  and  C_12
REMARK    4  A    between atoms: C_18  and  C_19
REMARK    5  A    between atoms: C_19  and  C_20
REMARK    6  A    between atoms: C_20  and  C_21
REMARK    7  A    between atoms: C_21  and  O_23
REMARK                            x       y       z     vdW  Elec       q    Type
REMARK                         _______ _______ _______ _____ _____    ______ ____
ROOT
ATOM      1  C   UNL     1      -1.208  12.000  22.496  0.00  0.00    +0.000 C 
ATOM      2  C   UNL     1      -0.837  11.377  21.198  0.00  0.00    +0.000 A 
ATOM      3  N   UNL     1       0.096  10.346  21.212  0.00  0.00    +0.000 NA
ATOM      4  C   UNL     1       0.401   9.998  19.984  0.00  0.00    +0.000 A 
ATOM      5  N   UNL     1       1.321   9.009  19.732  0.00  0.00    +0.000 N 
ATOM      6  C   UNL     1       1.847   8.683  18.501  0.00  0.00    +0.000 C 
ATOM      7  O   UNL     1       1.617   9.246  17.437  0.00  0.00    +0.000 OA
ATOM      8  S   UNL     1      -0.455  10.803  18.758  0.00  0.00    +0.000 S 
ATOM      9  C   UNL     1      -1.311  11.712  19.937  0.00  0.00    +0.000 A 
ATOM     10  H   UNL     1       1.614   8.540  20.573  0.00  0.00    +0.000 HD
ENDROOT
BRANCH   6  11
ATOM     11  C   UNL     1       2.780   7.513  18.470  0.00  0.00    +0.000 A 
ATOM     12  C   UNL     1       2.637   6.547  19.479  0.00  0.00    +0.000 A 
ATOM     13  C   UNL     1       3.482   5.436  19.531  0.00  0.00    +0.000 A 
ATOM     14  C   UNL     1       4.481   5.271  18.569  0.00  0.00    +0.000 A 
ATOM     15  C   UNL     1       4.620   6.220  17.548  0.00  0.00    +0.000 A 
ATOM     16  C   UNL     1       3.768   7.334  17.493  0.00  0.00    +0.000 A 
BRANCH  14  17
ATOM     17  C   UNL     1       5.395   4.094  18.652  0.00  0.00    +0.000 C 
ATOM     18  N   UNL     1       6.594   4.098  18.172  0.00  0.00    +0.000 NA
ATOM     19  N   UNL     1       4.981   2.943  19.255  0.00  0.00    +0.000 N 
ATOM     20  H   UNL     1       6.813   4.970  17.689  0.00  0.00    +0.000 HD
ATOM     21  H   UNL     1       4.378   3.044  20.062  0.00  0.00    +0.000 HD
ATOM     22  H   UNL     1       5.765   2.322  19.423  0.00  0.00    +0.000 HD
ENDBRANCH  14  17
ENDBRANCH   6  11
BRANCH   9  23
ATOM     23  C   UNL     1      -2.341  12.721  19.516  0.00  0.00    +0.000 C 
BRANCH  23  24
ATOM     24  C   UNL     1      -3.767  12.180  19.651  0.00  0.00    +0.000 C 
BRANCH  24  25
ATOM     25  C   UNL     1      -4.270  11.608  18.351  0.00  0.00    +0.000 C 
ATOM     26  O   UNL     1      -5.196  10.822  18.236  0.00  0.00    +0.000 OA
BRANCH  25  27
ATOM     27  O   UNL     1      -3.568  12.059  17.284  0.00  0.00    +0.000 OA
ATOM     28  H   UNL     1      -3.582  11.456  16.515  0.00  0.00    +0.000 HD
ENDBRANCH  25  27
ENDBRANCH  24  25
ENDBRANCH  23  24
ENDBRANCH   9  23
TORSDOF 6
ENDMDL
MODEL 9
REMARK VINA RESULT:      -7.2      1.864      2.467
REMARK  Name = 
REMARK  7 active torsions:
REMARK  status: ('A' for Active; 'I' for Inactive)
REMARK    1  A    between atoms: C_1  and  C_2
REMARK    2  A    between atoms: C_6  and  C_8
REMARK    3  A    between atoms: C_11  and  C_12
REMARK    4  A    between atoms: C_18  and  C_19
REMARK    5  A    between atoms: C_19  and  C_20
REMARK    6  A    between atoms: C_20  and  C_21
REMARK    7  A    between atoms: C_21  and  O_23
REMARK                            x       y       z     vdW  Elec       q    Type
REMARK                         _______ _______ _______ _____ _____    ______ ____
ROOT
ATOM      1  C   UNL     1       2.557   2.473  20.979  0.00  0.00    +0.000 C 
ATOM      2  C   UNL     1       2.662   3.890  20.539  0.00  0.00    +0.000 A 
ATOM      3  N   UNL     1       1.886   4.837  21.199  0.00  0.00    +0.000 NA
ATOM      4  C   UNL     1       2.002   6.004  20.609  0.00  0.00    +0.000 A 
ATOM      5  N   UNL     1       1.313   7.102  21.063  0.00  0.00    +0.000 N 
ATOM      6  C   UNL     1       1.218   8.321  20.429  0.00  0.00    +0.000 C 
ATOM      7  O   UNL     1       1.694   8.615  19.337  0.00  0.00    +0.000 OA
ATOM      8  S   UNL     1       3.093   6.065  19.309  0.00  0.00    +0.000 S 
ATOM      9  C   UNL     1       3.452   4.399  19.518  0.00  0.00    +0.000 A 
ATOM     10  H   UNL     1       0.834   6.919  21.930  0.00  0.00    +0.000 HD
ENDROOT
BRANCH   6  11
ATOM     11  C   UNL     1       0.470   9.391  21.160  0.00  0.00    +0.000 A 
ATOM     12  C   UNL     1       0.297  10.621  20.503  0.00  0.00    +0.000 A 
ATOM     13  C   UNL     1      -0.373  11.677  21.125  0.00  0.00    +0.000 A 
ATOM     14  C   UNL     1      -0.886  11.518  22.415  0.00  0.00    +0.000 A 
ATOM     15  C   UNL     1      -0.734  10.289  23.071  0.00  0.00    +0.000 A 
ATOM     16  C   UNL     1      -0.064   9.227  22.444  0.00  0.00    +0.000 A 
BRANCH  14  17
ATOM     17  C   UNL     1      -1.575  12.662  23.078  0.00  0.00    +0.000 C 
ATOM     18  N   UNL     1      -2.788  12.596  23.518  0.00  0.00    +0.000 NA
ATOM     19  N   UNL     1      -0.927  13.850  23.249  0.00  0.00    +0.000 N 
ATOM     20  H   UNL     1      -3.225  11.698  23.307  0.00  0.00    +0.000 HD
ATOM     21  H   UNL     1       0.064  13.803  23.450  0.00  0.00    +0.000 HD
ATOM     22  H   UNL     1      -1.433  14.448  23.892  0.00  0.00    +0.000 HD
ENDBRANCH  14  17
ENDBRANCH   6  11
BRANCH   9  23
ATOM     23  C   UNL     1       4.445   3.718  18.619  0.00  0.00    +0.000 C 
BRANCH  23  24
ATOM     24  C   UNL     1       5.393   4.715  17.948  0.00  0.00    +0.000 C 
BRANCH  24  25
ATOM     25  C   UNL     1       6.710   4.806  18.675  0.00  0.00    +0.000 C 
ATOM     26  O   UNL     1       6.876   5.308  19.774  0.00  0.00    +0.000 OA
BRANCH  25  27
ATOM     27  O   UNL     1       7.729   4.266  17.965  0.00  0.00    +0.000 OA
ATOM     28  H   UNL     1       8.558   4.781  18.005  0.00  0.00    +0.000 HD
ENDBRANCH  25  27
ENDBRANCH  24  25
ENDBRANCH  23  24
ENDBRANCH   9  23
TORSDOF 6
ENDMDL
