MODEL 1
REMARK VINA RESULT:      -7.0      0.000      0.000
REMARK  Name = 
REMARK  6 active torsions:
REMARK  status: ('A' for Active; 'I' for Inactive)
REMARK    1  A    between atoms: C_1  and  C_2
REMARK    2  A    between atoms: N_4  and  C_5
REMARK    3  A    between atoms: C_5  and  C_6
REMARK    4  A    between atoms: C_6  and  C_7
REMARK    5  A    between atoms: N_9  and  C_10
REMARK    6  A    between atoms: C_10  and  C_11
REMARK                            x       y       z     vdW  Elec       q    Type
REMARK                         _______ _______ _______ _____ _____    ______ ____
ROOT
ATOM      1  C   UNL     1       6.236   5.045  15.924  0.00  0.00    +0.000 C 
ATOM      2  O   UNL     1       5.853   6.206  16.041  0.00  0.00    +0.000 OA
ATOM      3  N   UNL     1       6.044   4.084  16.888  0.00  0.00    +0.000 N 
ATOM      4  H   UNL     1       6.413   3.154  16.747  0.00  0.00    +0.000 HD
ENDROOT
BRANCH   1   5
ATOM      5  C   UNL     1       6.921   4.541  14.679  0.00  0.00    +0.000 C 
BRANCH   5   6
ATOM      6  C   UNL     1       5.885   4.099  13.651  0.00  0.00    +0.000 C 
BRANCH   6  10
ATOM      7  C   UNL     1       6.202   1.327  11.090  0.00  0.00    +0.000 C 
ATOM      8  C   UNL     1       5.582   2.504  11.786  0.00  0.00    +0.000 C 
ATOM      9  O   UNL     1       4.498   2.970  11.453  0.00  0.00    +0.000 OA
ATOM     10  N   UNL     1       6.351   3.007  12.812  0.00  0.00    +0.000 N 
ATOM     11  H   UNL     1       7.154   2.476  13.127  0.00  0.00    +0.000 HD
ENDBRANCH   6  10
ENDBRANCH   5   6
ENDBRANCH   1   5
BRANCH   3  12
ATOM     12  C   UNL     1       5.454   4.397  18.168  0.00  0.00    +0.000 C 
BRANCH  12  13
ATOM     13  C   UNL     1       4.061   3.834  18.273  0.00  0.00    +0.000 A 
ATOM     14  C   UNL     1       2.962   4.527  17.743  0.00  0.00    +0.000 A 
ATOM     15  C   UNL     1       1.678   3.989  17.841  0.00  0.00    +0.000 A 
ATOM     16  C   UNL     1       1.492   2.766  18.473  0.00  0.00    +0.000 A 
ATOM     17  F   UNL     1       0.258   2.249  18.560  0.00  0.00    +0.000 F 
ATOM     18  C   UNL     1       2.564   2.070  19.018  0.00  0.00    +0.000 A 
ATOM     19  C   UNL     1       3.849   2.608  18.923  0.00  0.00    +0.000 A 
ENDBRANCH  12  13
ENDBRANCH   3  12
TORSDOF 5
ENDMDL
MODEL 2
REMARK VINA RESULT:      -7.0      2.860      4.095
REMARK  Name = 
REMARK  6 active torsions:
REMARK  status: ('A' for Active; 'I' for Inactive)
REMARK    1  A    between atoms: C_1  and  C_2
REMARK    2  A    between atoms: N_4  and  C_5
REMARK    3  A    between atoms: C_5  and  C_6
REMARK    4  A    between atoms: C_6  and  C_7
REMARK    5  A    between atoms: N_9  and  C_10
REMARK    6  A    between atoms: C_10  and  C_11
REMARK                            x       y       z     vdW  Elec       q    Type
REMARK                         _______ _______ _______ _____ _____    ______ ____
ROOT
ATOM      1  C   UNL     1       5.000   5.769  15.914  0.00  0.00    +0.000 C 
ATOM      2  O   UNL     1       5.066   6.981  15.730  0.00  0.00    +0.000 OA
ATOM      3  N   UNL     1       4.203   5.190  16.871  0.00  0.00    +0.000 N 
ATOM      4  H   UNL     1       4.218   4.188  16.996  0.00  0.00    +0.000 HD
ENDROOT
BRANCH   1   5
ATOM      5  C   UNL     1       5.761   4.780  15.067  0.00  0.00    +0.000 C 
BRANCH   5   6
ATOM      6  C   UNL     1       6.962   4.241  15.837  0.00  0.00    +0.000 C 
BRANCH   6  10
ATOM      7  C   UNL     1       7.967   6.352  18.817  0.00  0.00    +0.000 C 
ATOM      8  C   UNL     1       7.337   5.202  18.084  0.00  0.00    +0.000 C 
ATOM      9  O   UNL     1       6.703   4.324  18.657  0.00  0.00    +0.000 OA
ATOM     10  N   UNL     1       7.555   5.228  16.723  0.00  0.00    +0.000 N 
ATOM     11  H   UNL     1       7.950   6.063  16.308  0.00  0.00    +0.000 HD
ENDBRANCH   6  10
ENDBRANCH   5   6
ENDBRANCH   1   5
BRANCH   3  12
ATOM     12  C   UNL     1       3.443   5.983  17.810  0.00  0.00    +0.000 C 
BRANCH  12  13
ATOM     13  C   UNL     1       2.712   5.105  18.792  0.00  0.00    +0.000 A 
ATOM     14  C   UNL     1       2.850   5.302  20.175  0.00  0.00    +0.000 A 
ATOM     15  C   UNL     1       2.159   4.486  21.072  0.00  0.00    +0.000 A 
ATOM     16  C   UNL     1       1.341   3.472  20.590  0.00  0.00    +0.000 A 
ATOM     17  F   UNL     1       0.676   2.694  21.454  0.00  0.00    +0.000 F 
ATOM     18  C   UNL     1       1.203   3.250  19.225  0.00  0.00    +0.000 A 
ATOM     19  C   UNL     1       1.894   4.063  18.326  0.00  0.00    +0.000 A 
ENDBRANCH  12  13
ENDBRANCH   3  12
TORSDOF 5
ENDMDL
MODEL 3
REMARK VINA RESULT:      -6.9      4.093      6.997
REMARK  Name = 
REMARK  6 active torsions:
REMARK  status: ('A' for Active; 'I' for Inactive)
REMARK    1  A    between atoms: C_1  and  C_2
REMARK    2  A    between atoms: N_4  and  C_5
REMARK    3  A    between atoms: C_5  and  C_6
REMARK    4  A    between atoms: C_6  and  C_7
REMARK    5  A    between atoms: N_9  and  C_10
REMARK    6  A    between atoms: C_10  and  C_11
REMARK                            x       y       z     vdW  Elec       q    Type
REMARK                         _______ _______ _______ _____ _____    ______ ____
ROOT
ATOM      1  C   UNL     1       3.335   2.750  17.573  0.00  0.00    +0.000 C 
ATOM      2  O   UNL     1       2.410   3.203  16.903  0.00  0.00    +0.000 OA
ATOM      3  N   UNL     1       4.625   3.215  17.492  0.00  0.00    +0.000 N 
ATOM      4  H   UNL     1       5.350   2.778  18.045  0.00  0.00    +0.000 HD
ENDROOT
BRANCH   1   5
ATOM      5  C   UNL     1       3.135   1.661  18.596  0.00  0.00    +0.000 C 
BRANCH   5   6
ATOM      6  C   UNL     1       1.962   2.003  19.508  0.00  0.00    +0.000 C 
BRANCH   6  10
ATOM      7  C   UNL     1       1.607   5.488  20.948  0.00  0.00    +0.000 C 
ATOM      8  C   UNL     1       1.894   4.014  20.946  0.00  0.00    +0.000 C 
ATOM      9  O   UNL     1       2.198   3.400  21.962  0.00  0.00    +0.000 OA
ATOM     10  N   UNL     1       1.794   3.434  19.699  0.00  0.00    +0.000 N 
ATOM     11  H   UNL     1       1.387   3.971  18.943  0.00  0.00    +0.000 HD
ENDBRANCH   6  10
ENDBRANCH   5   6
ENDBRANCH   1   5
BRANCH   3  12
ATOM     12  C   UNL     1       5.015   4.219  16.530  0.00  0.00    +0.000 C 
BRANCH  12  13
ATOM     13  C   UNL     1       5.997   5.191  17.130  0.00  0.00    +0.000 A 
ATOM     14  C   UNL     1       6.075   6.514  16.668  0.00  0.00    +0.000 A 
ATOM     15  C   UNL     1       6.985   7.405  17.239  0.00  0.00    +0.000 A 
ATOM     16  C   UNL     1       7.819   6.973  18.263  0.00  0.00    +0.000 A 
ATOM     17  F   UNL     1       8.687   7.833  18.814  0.00  0.00    +0.000 F 
ATOM     18  C   UNL     1       7.768   5.664  18.725  0.00  0.00    +0.000 A 
ATOM     19  C   UNL     1       6.861   4.770  18.154  0.00  0.00    +0.000 A 
ENDBRANCH  12  13
ENDBRANCH   3  12
TORSDOF 5
ENDMDL
MODEL 4
REMARK VINA RESULT:      -6.8      1.637      1.908
REMARK  Name = 
REMARK  6 active torsions:
REMARK  status: ('A' for Active; 'I' for Inactive)
REMARK    1  A    between atoms: C_1  and  C_2
REMARK    2  A    between atoms: N_4  and  C_5
REMARK    3  A    between atoms: C_5  and  C_6
REMARK    4  A    between atoms: C_6  and  C_7
REMARK    5  A    between atoms: N_9  and  C_10
REMARK    6  A    between atoms: C_10  and  C_11
REMARK                            x       y       z     vdW  Elec       q    Type
REMARK                         _______ _______ _______ _____ _____    ______ ____
ROOT
ATOM      1  C   UNL     1       5.384   4.930  15.718  0.00  0.00    +0.000 C 
ATOM      2  O   UNL     1       5.414   6.075  15.273  0.00  0.00    +0.000 OA
ATOM      3  N   UNL     1       4.549   4.536  16.735  0.00  0.00    +0.000 N 
ATOM      4  H   UNL     1       4.595   3.587  17.081  0.00  0.00    +0.000 HD
ENDROOT
BRANCH   1   5
ATOM      5  C   UNL     1       6.236   3.821  15.155  0.00  0.00    +0.000 C 
BRANCH   5   6
ATOM      6  C   UNL     1       6.479   4.047  13.666  0.00  0.00    +0.000 C 
BRANCH   6  10
ATOM      7  C   UNL     1       3.814   3.178  11.119  0.00  0.00    +0.000 C 
ATOM      8  C   UNL     1       5.107   3.042  11.871  0.00  0.00    +0.000 C 
ATOM      9  O   UNL     1       5.932   2.174  11.611  0.00  0.00    +0.000 OA
ATOM     10  N   UNL     1       5.261   3.972  12.877  0.00  0.00    +0.000 N 
ATOM     11  H   UNL     1       4.612   4.748  12.928  0.00  0.00    +0.000 HD
ENDBRANCH   6  10
ENDBRANCH   5   6
ENDBRANCH   1   5
BRANCH   3  12
ATOM     12  C   UNL     1       3.700   5.474  17.431  0.00  0.00    +0.000 C 
BRANCH  12  13
ATOM     13  C   UNL     1       2.889   4.784  18.496  0.00  0.00    +0.000 A 
ATOM     14  C   UNL     1       1.920   3.827  18.155  0.00  0.00    +0.000 A 
ATOM     15  C   UNL     1       1.182   3.189  19.154  0.00  0.00    +0.000 A 
ATOM     16  C   UNL     1       1.405   3.512  20.486  0.00  0.00    +0.000 A 
ATOM     17  F   UNL     1       0.699   2.894  21.443  0.00  0.00    +0.000 F 
ATOM     18  C   UNL     1       2.349   4.467  20.844  0.00  0.00    +0.000 A 
ATOM     19  C   UNL     1       3.087   5.108  19.847  0.00  0.00    +0.000 A 
ENDBRANCH  12  13
ENDBRANCH   3  12
TORSDOF 5
ENDMDL
MODEL 5
REMARK VINA RESULT:      -6.8      2.205      2.886
REMARK  Name = 
REMARK  6 active torsions:
REMARK  status: ('A' for Active; 'I' for Inactive)
REMARK    1  A    between atoms: C_1  and  C_2
REMARK    2  A    between atoms: N_4  and  C_5
REMARK    3  A    between atoms: C_5  and  C_6
REMARK    4  A    between atoms: C_6  and  C_7
REMARK    5  A    between atoms: N_9  and  C_10
REMARK    6  A    between atoms: C_10  and  C_11
REMARK                            x       y       z     vdW  Elec       q    Type
REMARK                         _______ _______ _______ _____ _____    ______ ____
ROOT
ATOM      1  C   UNL     1       5.183   4.452  17.481  0.00  0.00    +0.000 C 
ATOM      2  O   UNL     1       4.716   3.416  17.016  0.00  0.00    +0.000 OA
ATOM      3  N   UNL     1       4.410   5.477  17.972  0.00  0.00    +0.000 N 
ATOM      4  H   UNL     1       4.853   6.320  18.311  0.00  0.00    +0.000 HD
ENDROOT
BRANCH   1   5
ATOM      5  C   UNL     1       6.667   4.686  17.606  0.00  0.00    +0.000 C 
BRANCH   5   6
ATOM      6  C   UNL     1       7.270   4.987  16.238  0.00  0.00    +0.000 C 
BRANCH   6  10
ATOM      7  C   UNL     1       6.151   3.563  12.911  0.00  0.00    +0.000 C 
ATOM      8  C   UNL     1       6.878   4.484  13.849  0.00  0.00    +0.000 C 
ATOM      9  O   UNL     1       7.566   5.418  13.453  0.00  0.00    +0.000 OA
ATOM     10  N   UNL     1       6.705   4.167  15.179  0.00  0.00    +0.000 N 
ATOM     11  H   UNL     1       6.002   3.484  15.430  0.00  0.00    +0.000 HD
ENDBRANCH   6  10
ENDBRANCH   5   6
ENDBRANCH   1   5
BRANCH   3  12
ATOM     12  C   UNL     1       2.969   5.452  17.888  0.00  0.00    +0.000 C 
BRANCH  12  13
ATOM     13  C   UNL     1       2.375   4.642  19.010  0.00  0.00    +0.000 A 
ATOM     14  C   UNL     1       1.375   3.690  18.759  0.00  0.00    +0.000 A 
ATOM     15  C   UNL     1       0.840   2.940  19.808  0.00  0.00    +0.000 A 
ATOM     16  C   UNL     1       1.297   3.148  21.104  0.00  0.00    +0.000 A 
ATOM     17  F   UNL     1       0.786   2.423  22.108  0.00  0.00    +0.000 F 
ATOM     18  C   UNL     1       2.275   4.096  21.375  0.00  0.00    +0.000 A 
ATOM     19  C   UNL     1       2.810   4.849  20.328  0.00  0.00    +0.000 A 
ENDBRANCH  12  13
ENDBRANCH   3  12
TORSDOF 5
ENDMDL
MODEL 6
REMARK VINA RESULT:      -6.8      2.404      3.226
REMARK  Name = 
REMARK  6 active torsions:
REMARK  status: ('A' for Active; 'I' for Inactive)
REMARK    1  A    between atoms: C_1  and  C_2
REMARK    2  A    between atoms: N_4  and  C_5
REMARK    3  A    between atoms: C_5  and  C_6
REMARK    4  A    between atoms: C_6  and  C_7
REMARK    5  A    between atoms: N_9  and  C_10
REMARK    6  A    between atoms: C_10  and  C_11
REMARK                            x       y       z     vdW  Elec       q    Type
REMARK                         _______ _______ _______ _____ _____    ______ ____
ROOT
ATOM      1  C   UNL     1       5.067   5.063  17.867  0.00  0.00    +0.000 C 
ATOM      2  O   UNL     1       4.851   3.873  17.652  0.00  0.00    +0.000 OA
ATOM      3  N   UNL     1       4.072   5.992  18.052  0.00  0.00    +0.000 N 
ATOM      4  H   UNL     1       4.313   6.963  18.191  0.00  0.00    +0.000 HD
ENDROOT
BRANCH   1   5
ATOM      5  C   UNL     1       6.462   5.621  17.997  0.00  0.00    +0.000 C 
BRANCH   5   6
ATOM      6  C   UNL     1       7.084   5.811  16.617  0.00  0.00    +0.000 C 
BRANCH   6  10
ATOM      7  C   UNL     1       6.329   3.874  13.451  0.00  0.00    +0.000 C 
ATOM      8  C   UNL     1       7.038   4.859  14.336  0.00  0.00    +0.000 C 
ATOM      9  O   UNL     1       7.952   5.569  13.931  0.00  0.00    +0.000 OA
ATOM     10  N   UNL     1       6.573   4.872  15.633  0.00  0.00    +0.000 N 
ATOM     11  H   UNL     1       5.718   4.374  15.849  0.00  0.00    +0.000 HD
ENDBRANCH   6  10
ENDBRANCH   5   6
ENDBRANCH   1   5
BRANCH   3  12
ATOM     12  C   UNL     1       2.675   5.651  17.911  0.00  0.00    +0.000 C 
BRANCH  12  13
ATOM     13  C   UNL     1       2.217   4.770  19.043  0.00  0.00    +0.000 A 
ATOM     14  C   UNL     1       2.610   5.032  20.365  0.00  0.00    +0.000 A 
ATOM     15  C   UNL     1       2.170   4.212  21.404  0.00  0.00    +0.000 A 
ATOM     16  C   UNL     1       1.347   3.128  21.124  0.00  0.00    +0.000 A 
ATOM     17  F   UNL     1       0.922   2.346  22.125  0.00  0.00    +0.000 F 
ATOM     18  C   UNL     1       0.959   2.842  19.821  0.00  0.00    +0.000 A 
ATOM     19  C   UNL     1       1.399   3.660  18.779  0.00  0.00    +0.000 A 
ENDBRANCH  12  13
ENDBRANCH   3  12
TORSDOF 5
ENDMDL
MODEL 7
REMARK VINA RESULT:      -6.7      1.334      1.680
REMARK  Name = 
REMARK  6 active torsions:
REMARK  status: ('A' for Active; 'I' for Inactive)
REMARK    1  A    between atoms: C_1  and  C_2
REMARK    2  A    between atoms: N_4  and  C_5
REMARK    3  A    between atoms: C_5  and  C_6
REMARK    4  A    between atoms: C_6  and  C_7
REMARK    5  A    between atoms: N_9  and  C_10
REMARK    6  A    between atoms: C_10  and  C_11
REMARK                            x       y       z     vdW  Elec       q    Type
REMARK                         _______ _______ _______ _____ _____    ______ ____
ROOT
ATOM      1  C   UNL     1       6.122   4.793  17.000  0.00  0.00    +0.000 C 
ATOM      2  O   UNL     1       5.345   5.688  16.676  0.00  0.00    +0.000 OA
ATOM      3  N   UNL     1       6.072   4.149  18.212  0.00  0.00    +0.000 N 
ATOM      4  H   UNL     1       6.761   3.444  18.433  0.00  0.00    +0.000 HD
ENDROOT
BRANCH   1   5
ATOM      5  C   UNL     1       7.189   4.274  16.070  0.00  0.00    +0.000 C 
BRANCH   5   6
ATOM      6  C   UNL     1       6.965   4.809  14.659  0.00  0.00    +0.000 C 
BRANCH   6  10
ATOM      7  C   UNL     1       5.147   2.956  11.902  0.00  0.00    +0.000 C 
ATOM      8  C   UNL     1       6.248   3.751  12.543  0.00  0.00    +0.000 C 
ATOM      9  O   UNL     1       7.233   4.132  11.921  0.00  0.00    +0.000 OA
ATOM     10  N   UNL     1       6.046   3.993  13.885  0.00  0.00    +0.000 N 
ATOM     11  H   UNL     1       5.141   3.784  14.287  0.00  0.00    +0.000 HD
ENDBRANCH   6  10
ENDBRANCH   5   6
ENDBRANCH   1   5
BRANCH   3  12
ATOM     12  C   UNL     1       5.149   4.548  19.249  0.00  0.00    +0.000 C 
BRANCH  12  13
ATOM     13  C   UNL     1       3.809   3.886  19.066  0.00  0.00    +0.000 A 
ATOM     14  C   UNL     1       3.693   2.681  18.355  0.00  0.00    +0.000 A 
ATOM     15  C   UNL     1       2.446   2.074  18.200  0.00  0.00    +0.000 A 
ATOM     16  C   UNL     1       1.317   2.674  18.746  0.00  0.00    +0.000 A 
ATOM     17  F   UNL     1       0.122   2.086  18.600  0.00  0.00    +0.000 F 
ATOM     18  C   UNL     1       1.408   3.874  19.439  0.00  0.00    +0.000 A 
ATOM     19  C   UNL     1       2.654   4.484  19.594  0.00  0.00    +0.000 A 
ENDBRANCH  12  13
ENDBRANCH   3  12
TORSDOF 5
ENDMDL
MODEL 8
REMARK VINA RESULT:      -6.7      1.669      2.001
REMARK  Name = 
REMARK  6 active torsions:
REMARK  status: ('A' for Active; 'I' for Inactive)
REMARK    1  A    between atoms: C_1  and  C_2
REMARK    2  A    between atoms: N_4  and  C_5
REMARK    3  A    between atoms: C_5  and  C_6
REMARK    4  A    between atoms: C_6  and  C_7
REMARK    5  A    between atoms: N_9  and  C_10
REMARK    6  A    between atoms: C_10  and  C_11
REMARK                            x       y       z     vdW  Elec       q    Type
REMARK                         _______ _______ _______ _____ _____    ______ ____
ROOT
ATOM      1  C   UNL     1       5.730   5.825  16.221  0.00  0.00    +0.000 C 
ATOM      2  O   UNL     1       5.306   6.652  15.419  0.00  0.00    +0.000 OA
ATOM      3  N   UNL     1       5.147   5.586  17.442  0.00  0.00    +0.000 N 
ATOM      4  H   UNL     1       5.564   4.916  18.073  0.00  0.00    +0.000 HD
ENDROOT
BRANCH   1   5
ATOM      5  C   UNL     1       6.918   4.945  15.924  0.00  0.00    +0.000 C 
BRANCH   5   6
ATOM      6  C   UNL     1       7.165   4.884  14.420  0.00  0.00    +0.000 C 
BRANCH   6  10
ATOM      7  C   UNL     1       5.528   2.582  11.897  0.00  0.00    +0.000 C 
ATOM      8  C   UNL     1       6.478   3.629  12.404  0.00  0.00    +0.000 C 
ATOM      9  O   UNL     1       7.270   4.209  11.670  0.00  0.00    +0.000 OA
ATOM     10  N   UNL     1       6.379   3.855  13.759  0.00  0.00    +0.000 N 
ATOM     11  H   UNL     1       5.600   3.454  14.266  0.00  0.00    +0.000 HD
ENDBRANCH   6  10
ENDBRANCH   5   6
ENDBRANCH   1   5
BRANCH   3  12
ATOM     12  C   UNL     1       4.032   6.369  17.921  0.00  0.00    +0.000 C 
BRANCH  12  13
ATOM     13  C   UNL     1       3.001   5.495  18.584  0.00  0.00    +0.000 A 
ATOM     14  C   UNL     1       2.671   5.670  19.937  0.00  0.00    +0.000 A 
ATOM     15  C   UNL     1       1.707   4.857  20.535  0.00  0.00    +0.000 A 
ATOM     16  C   UNL     1       1.082   3.867  19.787  0.00  0.00    +0.000 A 
ATOM     17  F   UNL     1       0.154   3.092  20.364  0.00  0.00    +0.000 F 
ATOM     18  C   UNL     1       1.406   3.667  18.451  0.00  0.00    +0.000 A 
ATOM     19  C   UNL     1       2.370   4.477  17.850  0.00  0.00    +0.000 A 
ENDBRANCH  12  13
ENDBRANCH   3  12
TORSDOF 5
ENDMDL
MODEL 9
REMARK VINA RESULT:      -6.7      0.933      1.592
REMARK  Name = 
REMARK  6 active torsions:
REMARK  status: ('A' for Active; 'I' for Inactive)
REMARK    1  A    between atoms: C_1  and  C_2
REMARK    2  A    between atoms: N_4  and  C_5
REMARK    3  A    between atoms: C_5  and  C_6
REMARK    4  A    between atoms: C_6  and  C_7
REMARK    5  A    between atoms: N_9  and  C_10
REMARK    6  A    between atoms: C_10  and  C_11
REMARK                            x       y       z     vdW  Elec       q    Type
REMARK                         _______ _______ _______ _____ _____    ______ ____
ROOT
ATOM      1  C   UNL     1       5.896   5.406  15.513  0.00  0.00    +0.000 C 
ATOM      2  O   UNL     1       5.143   6.353  15.305  0.00  0.00    +0.000 OA
ATOM      3  N   UNL     1       5.957   4.737  16.712  0.00  0.00    +0.000 N 
ATOM      4  H   UNL     1       6.623   3.987  16.833  0.00  0.00    +0.000 HD
ENDROOT
BRANCH   1   5
ATOM      5  C   UNL     1       6.805   4.845  14.449  0.00  0.00    +0.000 C 
BRANCH   5   6
ATOM      6  C   UNL     1       6.204   3.573  13.859  0.00  0.00    +0.000 C 
BRANCH   6  10
ATOM      7  C   UNL     1       3.799   3.535  10.934  0.00  0.00    +0.000 C 
ATOM      8  C   UNL     1       4.914   3.051  11.816  0.00  0.00    +0.000 C 
ATOM      9  O   UNL     1       5.562   2.041  11.565  0.00  0.00    +0.000 OA
ATOM     10  N   UNL     1       5.122   3.839  12.928  0.00  0.00    +0.000 N 
ATOM     11  H   UNL     1       4.655   4.736  12.983  0.00  0.00    +0.000 HD
ENDBRANCH   6  10
ENDBRANCH   5   6
ENDBRANCH   1   5
BRANCH   3  12
ATOM     12  C   UNL     1       5.197   5.166  17.863  0.00  0.00    +0.000 C 
BRANCH  12  13
ATOM     13  C   UNL     1       3.945   4.345  18.022  0.00  0.00    +0.000 A 
ATOM     14  C   UNL     1       4.007   3.017  18.474  0.00  0.00    +0.000 A 
ATOM     15  C   UNL     1       2.837   2.271  18.624  0.00  0.00    +0.000 A 
ATOM     16  C   UNL     1       1.611   2.847  18.314  0.00  0.00    +0.000 A 
ATOM     17  F   UNL     1       0.489   2.129  18.464  0.00  0.00    +0.000 F 
ATOM     18  C   UNL     1       1.529   4.154  17.850  0.00  0.00    +0.000 A 
ATOM     19  C   UNL     1       2.698   4.901  17.698  0.00  0.00    +0.000 A 
ENDBRANCH  12  13
ENDBRANCH   3  12
TORSDOF 5
ENDMDL
