MODEL 1
REMARK VINA RESULT:      -8.0      0.000      0.000
REMARK  Name = 
REMARK  2 active torsions:
REMARK  status: ('A' for Active; 'I' for Inactive)
REMARK    1  A    between atoms: C_4  and  C_5
REMARK    2  A    between atoms: N_7  and  C_8
REMARK                            x       y       z     vdW  Elec       q    Type
REMARK                         _______ _______ _______ _____ _____    ______ ____
ROOT
ATOM      1  C   UNL     1       6.235   4.497  15.865  0.00  0.00    +0.000 A 
ATOM      2  C   UNL     1       4.981   4.700  16.389  0.00  0.00    +0.000 A 
ATOM      3  N   UNL     1       5.143   4.658  17.755  0.00  0.00    +0.000 N 
ATOM      4  N   UNL     1       6.454   4.471  18.041  0.00  0.00    +0.000 NA
ATOM      5  N   UNL     1       7.121   4.348  16.898  0.00  0.00    +0.000 NA
ENDROOT
BRANCH   3   6
ATOM      6  C   UNL     1       4.099   4.748  18.717  0.00  0.00    +0.000 A 
ATOM      7  C   UNL     1       3.972   5.749  19.667  0.00  0.00    +0.000 A 
ATOM      8  N   UNL     1       2.798   5.537  20.338  0.00  0.00    +0.000 N 
ATOM      9  C   UNL     1       2.186   4.414  19.861  0.00  0.00    +0.000 A 
ATOM     10  N   UNL     1       1.004   3.960  20.311  0.00  0.00    +0.000 NA
ATOM     11  C   UNL     1       0.612   2.818  19.704  0.00  0.00    +0.000 A 
ATOM     12  C   UNL     1       1.329   2.134  18.732  0.00  0.00    +0.000 A 
ATOM     13  C   UNL     1       2.548   2.655  18.293  0.00  0.00    +0.000 A 
ATOM     14  C   UNL     1       2.993   3.860  18.866  0.00  0.00    +0.000 A 
ATOM     15  H   UNL     1       2.408   6.111  21.073  0.00  0.00    +0.000 HD
ENDBRANCH   3   6
BRANCH   1  19
ATOM     16  C   UNL     1       7.275   4.371  11.729  0.00  0.00    +0.000 A 
ATOM     17  C   UNL     1       6.306   3.503  12.225  0.00  0.00    +0.000 A 
ATOM     18  C   UNL     1       5.964   3.537  13.579  0.00  0.00    +0.000 A 
ATOM     19  C   UNL     1       6.584   4.443  14.457  0.00  0.00    +0.000 A 
ATOM     20  C   UNL     1       7.557   5.309  13.943  0.00  0.00    +0.000 A 
ATOM     21  C   UNL     1       7.901   5.274  12.587  0.00  0.00    +0.000 A 
ENDBRANCH   1  19
TORSDOF 2
ENDMDL
MODEL 2
REMARK VINA RESULT:      -8.0      0.056      1.079
REMARK  Name = 
REMARK  2 active torsions:
REMARK  status: ('A' for Active; 'I' for Inactive)
REMARK    1  A    between atoms: C_4  and  C_5
REMARK    2  A    between atoms: N_7  and  C_8
REMARK                            x       y       z     vdW  Elec       q    Type
REMARK                         _______ _______ _______ _____ _____    ______ ____
ROOT
ATOM      1  C   UNL     1       6.213   4.523  15.837  0.00  0.00    +0.000 A 
ATOM      2  C   UNL     1       4.958   4.710  16.362  0.00  0.00    +0.000 A 
ATOM      3  N   UNL     1       5.124   4.685  17.728  0.00  0.00    +0.000 N 
ATOM      4  N   UNL     1       6.439   4.523  18.012  0.00  0.00    +0.000 NA
ATOM      5  N   UNL     1       7.104   4.400  16.868  0.00  0.00    +0.000 NA
ENDROOT
BRANCH   3   6
ATOM      6  C   UNL     1       4.082   4.766  18.692  0.00  0.00    +0.000 A 
ATOM      7  C   UNL     1       3.958   5.756  19.653  0.00  0.00    +0.000 A 
ATOM      8  N   UNL     1       2.784   5.539  20.324  0.00  0.00    +0.000 N 
ATOM      9  C   UNL     1       2.169   4.423  19.834  0.00  0.00    +0.000 A 
ATOM     10  N   UNL     1       0.986   3.966  20.281  0.00  0.00    +0.000 NA
ATOM     11  C   UNL     1       0.591   2.832  19.661  0.00  0.00    +0.000 A 
ATOM     12  C   UNL     1       1.306   2.157  18.681  0.00  0.00    +0.000 A 
ATOM     13  C   UNL     1       2.525   2.681  18.246  0.00  0.00    +0.000 A 
ATOM     14  C   UNL     1       2.974   3.879  18.833  0.00  0.00    +0.000 A 
ATOM     15  H   UNL     1       2.396   6.105  21.065  0.00  0.00    +0.000 HD
ENDBRANCH   3   6
BRANCH   1  19
ATOM     16  C   UNL     1       7.213   4.311  11.694  0.00  0.00    +0.000 A 
ATOM     17  C   UNL     1       7.870   5.221  12.518  0.00  0.00    +0.000 A 
ATOM     18  C   UNL     1       7.545   5.297  13.875  0.00  0.00    +0.000 A 
ATOM     19  C   UNL     1       6.559   4.462  14.427  0.00  0.00    +0.000 A 
ATOM     20  C   UNL     1       5.906   3.553  13.586  0.00  0.00    +0.000 A 
ATOM     21  C   UNL     1       6.231   3.478  12.227  0.00  0.00    +0.000 A 
ENDBRANCH   1  19
TORSDOF 2
ENDMDL
MODEL 3
REMARK VINA RESULT:      -7.9      1.251      2.169
REMARK  Name = 
REMARK  2 active torsions:
REMARK  status: ('A' for Active; 'I' for Inactive)
REMARK    1  A    between atoms: C_4  and  C_5
REMARK    2  A    between atoms: N_7  and  C_8
REMARK                            x       y       z     vdW  Elec       q    Type
REMARK                         _______ _______ _______ _____ _____    ______ ____
ROOT
ATOM      1  C   UNL     1       6.471   4.354  15.875  0.00  0.00    +0.000 A 
ATOM      2  C   UNL     1       5.247   4.136  16.460  0.00  0.00    +0.000 A 
ATOM      3  N   UNL     1       5.479   4.162  17.816  0.00  0.00    +0.000 N 
ATOM      4  N   UNL     1       6.791   4.421  18.037  0.00  0.00    +0.000 NA
ATOM      5  N   UNL     1       7.404   4.515  16.862  0.00  0.00    +0.000 NA
ENDROOT
BRANCH   3   6
ATOM      6  C   UNL     1       4.512   3.909  18.828  0.00  0.00    +0.000 A 
ATOM      7  C   UNL     1       4.369   2.716  19.516  0.00  0.00    +0.000 A 
ATOM      8  N   UNL     1       3.398   2.897  20.464  0.00  0.00    +0.000 N 
ATOM      9  C   UNL     1       2.899   4.165  20.381  0.00  0.00    +0.000 A 
ATOM     10  N   UNL     1       1.944   4.646  21.197  0.00  0.00    +0.000 NA
ATOM     11  C   UNL     1       1.596   5.918  20.906  0.00  0.00    +0.000 A 
ATOM     12  C   UNL     1       2.118   6.682  19.871  0.00  0.00    +0.000 A 
ATOM     13  C   UNL     1       3.115   6.137  19.060  0.00  0.00    +0.000 A 
ATOM     14  C   UNL     1       3.543   4.825  19.334  0.00  0.00    +0.000 A 
ATOM     15  H   UNL     1       3.081   2.221  21.145  0.00  0.00    +0.000 HD
ENDBRANCH   3   6
BRANCH   1  19
ATOM     16  C   UNL     1       7.275   4.476  11.686  0.00  0.00    +0.000 A 
ATOM     17  C   UNL     1       7.932   5.356  12.542  0.00  0.00    +0.000 A 
ATOM     18  C   UNL     1       7.670   5.322  13.914  0.00  0.00    +0.000 A 
ATOM     19  C   UNL     1       6.749   4.407  14.450  0.00  0.00    +0.000 A 
ATOM     20  C   UNL     1       6.096   3.529  13.577  0.00  0.00    +0.000 A 
ATOM     21  C   UNL     1       6.357   3.563  12.202  0.00  0.00    +0.000 A 
ENDBRANCH   1  19
TORSDOF 2
ENDMDL
MODEL 4
REMARK VINA RESULT:      -7.9      1.248      1.883
REMARK  Name = 
REMARK  2 active torsions:
REMARK  status: ('A' for Active; 'I' for Inactive)
REMARK    1  A    between atoms: C_4  and  C_5
REMARK    2  A    between atoms: N_7  and  C_8
REMARK                            x       y       z     vdW  Elec       q    Type
REMARK                         _______ _______ _______ _____ _____    ______ ____
ROOT
ATOM      1  C   UNL     1       6.459   4.333  15.867  0.00  0.00    +0.000 A 
ATOM      2  C   UNL     1       5.236   4.112  16.453  0.00  0.00    +0.000 A 
ATOM      3  N   UNL     1       5.466   4.155  17.810  0.00  0.00    +0.000 N 
ATOM      4  N   UNL     1       6.775   4.427  18.029  0.00  0.00    +0.000 NA
ATOM      5  N   UNL     1       7.390   4.513  16.854  0.00  0.00    +0.000 NA
ENDROOT
BRANCH   3   6
ATOM      6  C   UNL     1       4.499   3.907  18.822  0.00  0.00    +0.000 A 
ATOM      7  C   UNL     1       4.352   2.715  19.512  0.00  0.00    +0.000 A 
ATOM      8  N   UNL     1       3.384   2.900  20.461  0.00  0.00    +0.000 N 
ATOM      9  C   UNL     1       2.889   4.170  20.378  0.00  0.00    +0.000 A 
ATOM     10  N   UNL     1       1.938   4.655  21.195  0.00  0.00    +0.000 NA
ATOM     11  C   UNL     1       1.593   5.929  20.904  0.00  0.00    +0.000 A 
ATOM     12  C   UNL     1       2.117   6.690  19.868  0.00  0.00    +0.000 A 
ATOM     13  C   UNL     1       3.111   6.140  19.055  0.00  0.00    +0.000 A 
ATOM     14  C   UNL     1       3.534   4.827  19.330  0.00  0.00    +0.000 A 
ATOM     15  H   UNL     1       3.066   2.225  21.143  0.00  0.00    +0.000 HD
ENDBRANCH   3   6
BRANCH   1  19
ATOM     16  C   UNL     1       7.297   4.478  11.686  0.00  0.00    +0.000 A 
ATOM     17  C   UNL     1       6.370   3.560  12.174  0.00  0.00    +0.000 A 
ATOM     18  C   UNL     1       6.094   3.506  13.542  0.00  0.00    +0.000 A 
ATOM     19  C   UNL     1       6.739   4.371  14.443  0.00  0.00    +0.000 A 
ATOM     20  C   UNL     1       7.669   5.288  13.937  0.00  0.00    +0.000 A 
ATOM     21  C   UNL     1       7.947   5.341  12.567  0.00  0.00    +0.000 A 
ENDBRANCH   1  19
TORSDOF 2
ENDMDL
MODEL 5
REMARK VINA RESULT:      -7.7      4.236      7.977
REMARK  Name = 
REMARK  2 active torsions:
REMARK  status: ('A' for Active; 'I' for Inactive)
REMARK    1  A    between atoms: C_4  and  C_5
REMARK    2  A    between atoms: N_7  and  C_8
REMARK                            x       y       z     vdW  Elec       q    Type
REMARK                         _______ _______ _______ _____ _____    ______ ____
ROOT
ATOM      1  C   UNL     1       1.273   9.050  19.639  0.00  0.00    +0.000 A 
ATOM      2  C   UNL     1       1.978   7.872  19.643  0.00  0.00    +0.000 A 
ATOM      3  N   UNL     1       2.487   7.744  18.370  0.00  0.00    +0.000 N 
ATOM      4  N   UNL     1       2.127   8.826  17.638  0.00  0.00    +0.000 NA
ATOM      5  N   UNL     1       1.370   9.613  18.395  0.00  0.00    +0.000 NA
ENDROOT
BRANCH   3   6
ATOM      6  C   UNL     1       3.230   6.634  17.881  0.00  0.00    +0.000 A 
ATOM      7  C   UNL     1       4.495   6.704  17.322  0.00  0.00    +0.000 A 
ATOM      8  N   UNL     1       4.906   5.424  17.063  0.00  0.00    +0.000 N 
ATOM      9  C   UNL     1       3.926   4.541  17.417  0.00  0.00    +0.000 A 
ATOM     10  N   UNL     1       4.046   3.207  17.299  0.00  0.00    +0.000 NA
ATOM     11  C   UNL     1       2.936   2.543  17.690  0.00  0.00    +0.000 A 
ATOM     12  C   UNL     1       1.764   3.128  18.148  0.00  0.00    +0.000 A 
ATOM     13  C   UNL     1       1.697   4.519  18.261  0.00  0.00    +0.000 A 
ATOM     14  C   UNL     1       2.834   5.264  17.898  0.00  0.00    +0.000 A 
ATOM     15  H   UNL     1       5.796   5.139  16.680  0.00  0.00    +0.000 HD
ENDBRANCH   3   6
BRANCH   1  19
ATOM     16  C   UNL     1      -0.881  10.759  22.901  0.00  0.00    +0.000 A 
ATOM     17  C   UNL     1      -0.255   9.525  23.057  0.00  0.00    +0.000 A 
ATOM     18  C   UNL     1       0.449   8.959  21.991  0.00  0.00    +0.000 A 
ATOM     19  C   UNL     1       0.539   9.621  20.755  0.00  0.00    +0.000 A 
ATOM     20  C   UNL     1      -0.097  10.860  20.613  0.00  0.00    +0.000 A 
ATOM     21  C   UNL     1      -0.803  11.426  21.680  0.00  0.00    +0.000 A 
ENDBRANCH   1  19
TORSDOF 2
ENDMDL
MODEL 6
REMARK VINA RESULT:      -7.7      1.108      1.108
REMARK  Name = 
REMARK  2 active torsions:
REMARK  status: ('A' for Active; 'I' for Inactive)
REMARK    1  A    between atoms: C_4  and  C_5
REMARK    2  A    between atoms: N_7  and  C_8
REMARK                            x       y       z     vdW  Elec       q    Type
REMARK                         _______ _______ _______ _____ _____    ______ ____
ROOT
ATOM      1  C   UNL     1       6.208   4.641  15.869  0.00  0.00    +0.000 A 
ATOM      2  C   UNL     1       4.990   4.975  16.409  0.00  0.00    +0.000 A 
ATOM      3  N   UNL     1       5.184   4.989  17.772  0.00  0.00    +0.000 N 
ATOM      4  N   UNL     1       6.483   4.708  18.037  0.00  0.00    +0.000 NA
ATOM      5  N   UNL     1       7.105   4.471  16.887  0.00  0.00    +0.000 NA
ENDROOT
BRANCH   3   6
ATOM      6  C   UNL     1       4.178   5.215  18.751  0.00  0.00    +0.000 A 
ATOM      7  C   UNL     1       3.521   6.417  18.959  0.00  0.00    +0.000 A 
ATOM      8  N   UNL     1       2.566   6.208  19.917  0.00  0.00    +0.000 N 
ATOM      9  C   UNL     1       2.614   4.912  20.345  0.00  0.00    +0.000 A 
ATOM     10  N   UNL     1       1.783   4.401  21.271  0.00  0.00    +0.000 NA
ATOM     11  C   UNL     1       2.038   3.104  21.548  0.00  0.00    +0.000 A 
ATOM     12  C   UNL     1       3.053   2.342  20.986  0.00  0.00    +0.000 A 
ATOM     13  C   UNL     1       3.881   2.920  20.021  0.00  0.00    +0.000 A 
ATOM     14  C   UNL     1       3.644   4.261  19.667  0.00  0.00    +0.000 A 
ATOM     15  H   UNL     1       1.903   6.884  20.270  0.00  0.00    +0.000 HD
ENDBRANCH   3   6
BRANCH   1  19
ATOM     16  C   UNL     1       7.120   4.221  11.722  0.00  0.00    +0.000 A 
ATOM     17  C   UNL     1       6.124   3.434  12.294  0.00  0.00    +0.000 A 
ATOM     18  C   UNL     1       5.823   3.565  13.652  0.00  0.00    +0.000 A 
ATOM     19  C   UNL     1       6.512   4.488  14.457  0.00  0.00    +0.000 A 
ATOM     20  C   UNL     1       7.512   5.272  13.867  0.00  0.00    +0.000 A 
ATOM     21  C   UNL     1       7.814   5.139  12.508  0.00  0.00    +0.000 A 
ENDBRANCH   1  19
TORSDOF 2
ENDMDL
MODEL 7
REMARK VINA RESULT:      -7.7      1.103      1.541
REMARK  Name = 
REMARK  2 active torsions:
REMARK  status: ('A' for Active; 'I' for Inactive)
REMARK    1  A    between atoms: C_4  and  C_5
REMARK    2  A    between atoms: N_7  and  C_8
REMARK                            x       y       z     vdW  Elec       q    Type
REMARK                         _______ _______ _______ _____ _____    ______ ____
ROOT
ATOM      1  C   UNL     1       6.231   4.621  15.944  0.00  0.00    +0.000 A 
ATOM      2  C   UNL     1       5.014   4.961  16.484  0.00  0.00    +0.000 A 
ATOM      3  N   UNL     1       5.200   4.941  17.847  0.00  0.00    +0.000 N 
ATOM      4  N   UNL     1       6.492   4.634  18.115  0.00  0.00    +0.000 NA
ATOM      5  N   UNL     1       7.119   4.415  16.964  0.00  0.00    +0.000 NA
ENDROOT
BRANCH   3   6
ATOM      6  C   UNL     1       4.190   5.159  18.825  0.00  0.00    +0.000 A 
ATOM      7  C   UNL     1       3.540   6.362  19.048  0.00  0.00    +0.000 A 
ATOM      8  N   UNL     1       2.579   6.145  19.998  0.00  0.00    +0.000 N 
ATOM      9  C   UNL     1       2.616   4.843  20.407  0.00  0.00    +0.000 A 
ATOM     10  N   UNL     1       1.777   4.324  21.320  0.00  0.00    +0.000 NA
ATOM     11  C   UNL     1       2.022   3.021  21.580  0.00  0.00    +0.000 A 
ATOM     12  C   UNL     1       3.035   2.261  21.011  0.00  0.00    +0.000 A 
ATOM     13  C   UNL     1       3.872   2.848  20.059  0.00  0.00    +0.000 A 
ATOM     14  C   UNL     1       3.645   4.195  19.724  0.00  0.00    +0.000 A 
ATOM     15  H   UNL     1       1.919   6.821  20.357  0.00  0.00    +0.000 HD
ENDBRANCH   3   6
BRANCH   1  19
ATOM     16  C   UNL     1       7.132   4.220  11.793  0.00  0.00    +0.000 A 
ATOM     17  C   UNL     1       7.839   5.135  12.568  0.00  0.00    +0.000 A 
ATOM     18  C   UNL     1       7.546   5.272  13.927  0.00  0.00    +0.000 A 
ATOM     19  C   UNL     1       6.543   4.495  14.531  0.00  0.00    +0.000 A 
ATOM     20  C   UNL     1       5.840   3.580  13.738  0.00  0.00    +0.000 A 
ATOM     21  C   UNL     1       6.132   3.443  12.376  0.00  0.00    +0.000 A 
ENDBRANCH   1  19
TORSDOF 2
ENDMDL
MODEL 8
REMARK VINA RESULT:      -7.7      1.749      2.742
REMARK  Name = 
REMARK  2 active torsions:
REMARK  status: ('A' for Active; 'I' for Inactive)
REMARK    1  A    between atoms: C_4  and  C_5
REMARK    2  A    between atoms: N_7  and  C_8
REMARK                            x       y       z     vdW  Elec       q    Type
REMARK                         _______ _______ _______ _____ _____    ______ ____
ROOT
ATOM      1  C   UNL     1       6.003   4.766  15.859  0.00  0.00    +0.000 A 
ATOM      2  C   UNL     1       4.823   5.288  16.330  0.00  0.00    +0.000 A 
ATOM      3  N   UNL     1       4.960   5.327  17.699  0.00  0.00    +0.000 N 
ATOM      4  N   UNL     1       6.193   4.876  18.035  0.00  0.00    +0.000 NA
ATOM      5  N   UNL     1       6.823   4.510  16.923  0.00  0.00    +0.000 NA
ENDROOT
BRANCH   3   6
ATOM      6  C   UNL     1       3.956   5.730  18.622  0.00  0.00    +0.000 A 
ATOM      7  C   UNL     1       3.596   5.034  19.765  0.00  0.00    +0.000 A 
ATOM      8  N   UNL     1       2.666   5.785  20.432  0.00  0.00    +0.000 N 
ATOM      9  C   UNL     1       2.403   6.928  19.733  0.00  0.00    +0.000 A 
ATOM     10  N   UNL     1       1.544   7.875  20.147  0.00  0.00    +0.000 NA
ATOM     11  C   UNL     1       1.431   8.901  19.276  0.00  0.00    +0.000 A 
ATOM     12  C   UNL     1       2.090   9.002  18.058  0.00  0.00    +0.000 A 
ATOM     13  C   UNL     1       2.979   7.994  17.681  0.00  0.00    +0.000 A 
ATOM     14  C   UNL     1       3.163   6.914  18.563  0.00  0.00    +0.000 A 
ATOM     15  H   UNL     1       2.228   5.563  21.315  0.00  0.00    +0.000 HD
ENDBRANCH   3   6
BRANCH   1  19
ATOM     16  C   UNL     1       7.018   4.063  11.775  0.00  0.00    +0.000 A 
ATOM     17  C   UNL     1       5.937   3.395  12.343  0.00  0.00    +0.000 A 
ATOM     18  C   UNL     1       5.602   3.619  13.680  0.00  0.00    +0.000 A 
ATOM     19  C   UNL     1       6.342   4.516  14.469  0.00  0.00    +0.000 A 
ATOM     20  C   UNL     1       7.427   5.180  13.883  0.00  0.00    +0.000 A 
ATOM     21  C   UNL     1       7.764   4.955  12.544  0.00  0.00    +0.000 A 
ENDBRANCH   1  19
TORSDOF 2
ENDMDL
MODEL 9
REMARK VINA RESULT:      -7.7      4.142      7.895
REMARK  Name = 
REMARK  2 active torsions:
REMARK  status: ('A' for Active; 'I' for Inactive)
REMARK    1  A    between atoms: C_4  and  C_5
REMARK    2  A    between atoms: N_7  and  C_8
REMARK                            x       y       z     vdW  Elec       q    Type
REMARK                         _______ _______ _______ _____ _____    ______ ____
ROOT
ATOM      1  C   UNL     1       1.383   8.970  19.567  0.00  0.00    +0.000 A 
ATOM      2  C   UNL     1       2.052   7.771  19.614  0.00  0.00    +0.000 A 
ATOM      3  N   UNL     1       2.556   7.583  18.346  0.00  0.00    +0.000 N 
ATOM      4  N   UNL     1       2.229   8.649  17.576  0.00  0.00    +0.000 NA
ATOM      5  N   UNL     1       1.496   9.485  18.305  0.00  0.00    +0.000 NA
ENDROOT
BRANCH   3   6
ATOM      6  C   UNL     1       3.264   6.434  17.898  0.00  0.00    +0.000 A 
ATOM      7  C   UNL     1       4.544   6.441  17.369  0.00  0.00    +0.000 A 
ATOM      8  N   UNL     1       4.908   5.140  17.146  0.00  0.00    +0.000 N 
ATOM      9  C   UNL     1       3.885   4.306  17.492  0.00  0.00    +0.000 A 
ATOM     10  N   UNL     1       3.952   2.966  17.403  0.00  0.00    +0.000 NA
ATOM     11  C   UNL     1       2.807   2.355  17.780  0.00  0.00    +0.000 A 
ATOM     12  C   UNL     1       1.649   2.997  18.197  0.00  0.00    +0.000 A 
ATOM     13  C   UNL     1       1.637   4.391  18.281  0.00  0.00    +0.000 A 
ATOM     14  C   UNL     1       2.812   5.082  17.932  0.00  0.00    +0.000 A 
ATOM     15  H   UNL     1       5.795   4.811  16.790  0.00  0.00    +0.000 HD
ENDBRANCH   3   6
BRANCH   1  19
ATOM     16  C   UNL     1      -0.729  10.795  22.794  0.00  0.00    +0.000 A 
ATOM     17  C   UNL     1      -0.322  11.568  21.710  0.00  0.00    +0.000 A 
ATOM     18  C   UNL     1       0.372  10.976  20.652  0.00  0.00    +0.000 A 
ATOM     19  C   UNL     1       0.668   9.602  20.662  0.00  0.00    +0.000 A 
ATOM     20  C   UNL     1       0.253   8.839  21.760  0.00  0.00    +0.000 A 
ATOM     21  C   UNL     1      -0.441   9.432  22.821  0.00  0.00    +0.000 A 
ENDBRANCH   1  19
TORSDOF 2
ENDMDL
