MODEL 1
REMARK VINA RESULT:      -7.3      0.000      0.000
REMARK  Name = 
REMARK  3 active torsions:
REMARK  status: ('A' for Active; 'I' for Inactive)
REMARK    1  A    between atoms: C_2  and  C_13
REMARK    2  A    between atoms: N_3  and  N_4
REMARK    3  A    between atoms: C_5  and  C_6
REMARK                            x       y       z     vdW  Elec       q    Type
REMARK                         _______ _______ _______ _____ _____    ______ ____
ROOT
ATOM      1  O   UNL     1       8.208   5.976  19.154  0.00  0.00    +0.000 OA
ATOM      2  C   UNL     1       7.573   6.485  18.234  0.00  0.00    +0.000 C 
ATOM      3  N   UNL     1       7.711   7.797  17.796  0.00  0.00    +0.000 N 
ATOM      4  H   UNL     1       7.228   8.135  16.977  0.00  0.00    +0.000 HD
ENDROOT
BRANCH   2   5
ATOM      5  C   UNL     1       6.593   5.651  17.483  0.00  0.00    +0.000 A 
ATOM      6  C   UNL     1       5.228   5.627  17.800  0.00  0.00    +0.000 A 
ATOM      7  C   UNL     1       4.354   4.823  17.065  0.00  0.00    +0.000 A 
ATOM      8  C   UNL     1       4.838   4.033  16.021  0.00  0.00    +0.000 A 
ATOM      9  C   UNL     1       6.196   4.039  15.713  0.00  0.00    +0.000 A 
ATOM     10  C   UNL     1       7.073   4.842  16.444  0.00  0.00    +0.000 A 
ENDBRANCH   2   5
BRANCH   3  11
ATOM     11  N   UNL     1       8.581   8.617  18.445  0.00  0.00    +0.000 NA
ATOM     12  C   UNL     1       8.683   9.826  17.998  0.00  0.00    +0.000 C 
BRANCH  12  13
ATOM     13  C   UNL     1       9.575  10.797  18.660  0.00  0.00    +0.000 A 
ATOM     14  C   UNL     1       9.561  10.929  20.055  0.00  0.00    +0.000 A 
ATOM     15  C   UNL     1      10.373  11.876  20.676  0.00  0.00    +0.000 A 
ATOM     16  C   UNL     1      11.199  12.692  19.905  0.00  0.00    +0.000 A 
ATOM     17  C   UNL     1      11.216  12.551  18.516  0.00  0.00    +0.000 A 
ATOM     18 CL   UNL     1      12.231  13.571  17.571  0.00  0.00    +0.000 Cl
ATOM     19  C   UNL     1      10.411  11.604  17.884  0.00  0.00    +0.000 A 
ENDBRANCH  12  13
ENDBRANCH   3  11
TORSDOF 3
ENDMDL
MODEL 2
REMARK VINA RESULT:      -7.0      3.124      8.035
REMARK  Name = 
REMARK  3 active torsions:
REMARK  status: ('A' for Active; 'I' for Inactive)
REMARK    1  A    between atoms: C_2  and  C_13
REMARK    2  A    between atoms: N_3  and  N_4
REMARK    3  A    between atoms: C_5  and  C_6
REMARK                            x       y       z     vdW  Elec       q    Type
REMARK                         _______ _______ _______ _____ _____    ______ ____
ROOT
ATOM      1  O   UNL     1       7.865  10.839  17.393  0.00  0.00    +0.000 OA
ATOM      2  C   UNL     1       8.641  10.217  18.114  0.00  0.00    +0.000 C 
ATOM      3  N   UNL     1       8.625   8.841  18.305  0.00  0.00    +0.000 N 
ATOM      4  H   UNL     1       9.344   8.373  18.838  0.00  0.00    +0.000 HD
ENDROOT
BRANCH   2   5
ATOM      5  C   UNL     1       9.717  10.959  18.828  0.00  0.00    +0.000 A 
ATOM      6  C   UNL     1       9.656  11.235  20.201  0.00  0.00    +0.000 A 
ATOM      7  C   UNL     1      10.693  11.939  20.819  0.00  0.00    +0.000 A 
ATOM      8  C   UNL     1      11.785  12.379  20.071  0.00  0.00    +0.000 A 
ATOM      9  C   UNL     1      11.843  12.123  18.702  0.00  0.00    +0.000 A 
ATOM     10  C   UNL     1      10.810  11.419  18.081  0.00  0.00    +0.000 A 
ENDBRANCH   2   5
BRANCH   3  11
ATOM     11  N   UNL     1       7.662   8.103  17.692  0.00  0.00    +0.000 NA
ATOM     12  C   UNL     1       7.630   6.841  17.970  0.00  0.00    +0.000 C 
BRANCH  12  13
ATOM     13  C   UNL     1       6.597   5.969  17.379  0.00  0.00    +0.000 A 
ATOM     14  C   UNL     1       5.419   5.693  18.085  0.00  0.00    +0.000 A 
ATOM     15  C   UNL     1       4.463   4.835  17.545  0.00  0.00    +0.000 A 
ATOM     16  C   UNL     1       4.683   4.251  16.298  0.00  0.00    +0.000 A 
ATOM     17  C   UNL     1       5.855   4.535  15.594  0.00  0.00    +0.000 A 
ATOM     18 CL   UNL     1       6.123   3.801  14.060  0.00  0.00    +0.000 Cl
ATOM     19  C   UNL     1       6.816   5.396  16.123  0.00  0.00    +0.000 A 
ENDBRANCH  12  13
ENDBRANCH   3  11
TORSDOF 3
ENDMDL
MODEL 3
REMARK VINA RESULT:      -7.0      0.623      1.191
REMARK  Name = 
REMARK  3 active torsions:
REMARK  status: ('A' for Active; 'I' for Inactive)
REMARK    1  A    between atoms: C_2  and  C_13
REMARK    2  A    between atoms: N_3  and  N_4
REMARK    3  A    between atoms: C_5  and  C_6
REMARK                            x       y       z     vdW  Elec       q    Type
REMARK                         _______ _______ _______ _____ _____    ______ ____
ROOT
ATOM      1  O   UNL     1       8.040   6.118  19.140  0.00  0.00    +0.000 OA
ATOM      2  C   UNL     1       7.383   6.520  18.183  0.00  0.00    +0.000 C 
ATOM      3  N   UNL     1       7.623   7.698  17.486  0.00  0.00    +0.000 N 
ATOM      4  H   UNL     1       7.107   7.933  16.651  0.00  0.00    +0.000 HD
ENDROOT
BRANCH   2   5
ATOM      5  C   UNL     1       6.254   5.688  17.681  0.00  0.00    +0.000 A 
ATOM      6  C   UNL     1       6.058   5.433  16.316  0.00  0.00    +0.000 A 
ATOM      7  C   UNL     1       4.980   4.648  15.901  0.00  0.00    +0.000 A 
ATOM      8  C   UNL     1       4.089   4.126  16.839  0.00  0.00    +0.000 A 
ATOM      9  C   UNL     1       4.269   4.391  18.195  0.00  0.00    +0.000 A 
ATOM     10  C   UNL     1       5.346   5.173  18.615  0.00  0.00    +0.000 A 
ENDBRANCH   2   5
BRANCH   3  11
ATOM     11  N   UNL     1       8.632   8.511  17.899  0.00  0.00    +0.000 NA
ATOM     12  C   UNL     1       8.303   9.708  18.259  0.00  0.00    +0.000 C 
BRANCH  12  13
ATOM     13  C   UNL     1       9.326  10.650  18.754  0.00  0.00    +0.000 A 
ATOM     14  C   UNL     1       9.457  10.888  20.129  0.00  0.00    +0.000 A 
ATOM     15  C   UNL     1      10.394  11.810  20.593  0.00  0.00    +0.000 A 
ATOM     16  C   UNL     1      11.201  12.493  19.685  0.00  0.00    +0.000 A 
ATOM     17  C   UNL     1      11.073  12.246  18.317  0.00  0.00    +0.000 A 
ATOM     18 CL   UNL     1      12.066  13.104  17.202  0.00  0.00    +0.000 Cl
ATOM     19  C   UNL     1      10.141  11.324  17.841  0.00  0.00    +0.000 A 
ENDBRANCH  12  13
ENDBRANCH   3  11
TORSDOF 3
ENDMDL
MODEL 4
REMARK VINA RESULT:      -7.0      1.594      2.134
REMARK  Name = 
REMARK  3 active torsions:
REMARK  status: ('A' for Active; 'I' for Inactive)
REMARK    1  A    between atoms: C_2  and  C_13
REMARK    2  A    between atoms: N_3  and  N_4
REMARK    3  A    between atoms: C_5  and  C_6
REMARK                            x       y       z     vdW  Elec       q    Type
REMARK                         _______ _______ _______ _____ _____    ______ ____
ROOT
ATOM      1  O   UNL     1       8.111   6.452  18.958  0.00  0.00    +0.000 OA
ATOM      2  C   UNL     1       7.660   6.951  17.930  0.00  0.00    +0.000 C 
ATOM      3  N   UNL     1       7.804   8.282  17.558  0.00  0.00    +0.000 N 
ATOM      4  H   UNL     1       7.491   8.617  16.658  0.00  0.00    +0.000 HD
ENDROOT
BRANCH   2   5
ATOM      5  C   UNL     1       6.926   6.084  16.966  0.00  0.00    +0.000 A 
ATOM      6  C   UNL     1       7.310   4.762  16.703  0.00  0.00    +0.000 A 
ATOM      7  C   UNL     1       6.587   3.995  15.786  0.00  0.00    +0.000 A 
ATOM      8  C   UNL     1       5.491   4.545  15.122  0.00  0.00    +0.000 A 
ATOM      9  C   UNL     1       5.115   5.864  15.366  0.00  0.00    +0.000 A 
ATOM     10  C   UNL     1       5.833   6.634  16.283  0.00  0.00    +0.000 A 
ENDBRANCH   2   5
BRANCH   3  11
ATOM     11  N   UNL     1       8.454   9.132  18.398  0.00  0.00    +0.000 NA
ATOM     12  C   UNL     1       9.043  10.148  17.856  0.00  0.00    +0.000 C 
BRANCH  12  13
ATOM     13  C   UNL     1       9.743  11.143  18.691  0.00  0.00    +0.000 A 
ATOM     14  C   UNL     1      10.891  11.784  18.209  0.00  0.00    +0.000 A 
ATOM     15  C   UNL     1      11.577  12.691  19.015  0.00  0.00    +0.000 A 
ATOM     16  C   UNL     1      11.115  12.958  20.303  0.00  0.00    +0.000 A 
ATOM     17  C   UNL     1       9.966  12.323  20.776  0.00  0.00    +0.000 A 
ATOM     18 CL   UNL     1       9.410  12.651  22.372  0.00  0.00    +0.000 Cl
ATOM     19  C   UNL     1       9.270  11.416  19.977  0.00  0.00    +0.000 A 
ENDBRANCH  12  13
ENDBRANCH   3  11
TORSDOF 3
ENDMDL
MODEL 5
REMARK VINA RESULT:      -6.9      1.398      1.760
REMARK  Name = 
REMARK  3 active torsions:
REMARK  status: ('A' for Active; 'I' for Inactive)
REMARK    1  A    between atoms: C_2  and  C_13
REMARK    2  A    between atoms: N_3  and  N_4
REMARK    3  A    between atoms: C_5  and  C_6
REMARK                            x       y       z     vdW  Elec       q    Type
REMARK                         _______ _______ _______ _____ _____    ______ ____
ROOT
ATOM      1  O   UNL     1       8.130   6.005  19.261  0.00  0.00    +0.000 OA
ATOM      2  C   UNL     1       7.596   6.527  18.285  0.00  0.00    +0.000 C 
ATOM      3  N   UNL     1       7.817   7.829  17.853  0.00  0.00    +0.000 N 
ATOM      4  H   UNL     1       7.420   8.175  16.991  0.00  0.00    +0.000 HD
ENDROOT
BRANCH   2   5
ATOM      5  C   UNL     1       6.658   5.719  17.456  0.00  0.00    +0.000 A 
ATOM      6  C   UNL     1       5.266   5.845  17.558  0.00  0.00    +0.000 A 
ATOM      7  C   UNL     1       4.433   5.059  16.758  0.00  0.00    +0.000 A 
ATOM      8  C   UNL     1       4.982   4.139  15.865  0.00  0.00    +0.000 A 
ATOM      9  C   UNL     1       6.366   3.996  15.772  0.00  0.00    +0.000 A 
ATOM     10  C   UNL     1       7.202   4.781  16.568  0.00  0.00    +0.000 A 
ENDBRANCH   2   5
BRANCH   3  11
ATOM     11  N   UNL     1       8.653   8.626  18.570  0.00  0.00    +0.000 NA
ATOM     12  C   UNL     1       8.714   9.869  18.221  0.00  0.00    +0.000 C 
BRANCH  12  13
ATOM     13  C   UNL     1       9.568  10.816  18.965  0.00  0.00    +0.000 A 
ATOM     14  C   UNL     1      10.808  11.204  18.443  0.00  0.00    +0.000 A 
ATOM     15  C   UNL     1      11.633  12.065  19.166  0.00  0.00    +0.000 A 
ATOM     16  C   UNL     1      11.218  12.539  20.409  0.00  0.00    +0.000 A 
ATOM     17  C   UNL     1       9.977  12.156  20.921  0.00  0.00    +0.000 A 
ATOM     18 CL   UNL     1       9.478  12.737  22.463  0.00  0.00    +0.000 Cl
ATOM     19  C   UNL     1       9.142  11.298  20.205  0.00  0.00    +0.000 A 
ENDBRANCH  12  13
ENDBRANCH   3  11
TORSDOF 3
ENDMDL
MODEL 6
REMARK VINA RESULT:      -6.9      3.240      8.204
REMARK  Name = 
REMARK  3 active torsions:
REMARK  status: ('A' for Active; 'I' for Inactive)
REMARK    1  A    between atoms: C_2  and  C_13
REMARK    2  A    between atoms: N_3  and  N_4
REMARK    3  A    between atoms: C_5  and  C_6
REMARK                            x       y       z     vdW  Elec       q    Type
REMARK                         _______ _______ _______ _____ _____    ______ ____
ROOT
ATOM      1  O   UNL     1       7.836  10.650  17.330  0.00  0.00    +0.000 OA
ATOM      2  C   UNL     1       8.581  10.072  18.117  0.00  0.00    +0.000 C 
ATOM      3  N   UNL     1       8.549   8.712  18.396  0.00  0.00    +0.000 N 
ATOM      4  H   UNL     1       9.245   8.275  18.983  0.00  0.00    +0.000 HD
ENDROOT
BRANCH   2   5
ATOM      5  C   UNL     1       9.638  10.854  18.819  0.00  0.00    +0.000 A 
ATOM      6  C   UNL     1      10.798  11.299  18.171  0.00  0.00    +0.000 A 
ATOM      7  C   UNL     1      11.758  12.026  18.880  0.00  0.00    +0.000 A 
ATOM      8  C   UNL     1      11.572  12.299  20.235  0.00  0.00    +0.000 A 
ATOM      9  C   UNL     1      10.429  11.843  20.889  0.00  0.00    +0.000 A 
ATOM     10  C   UNL     1       9.466  11.118  20.185  0.00  0.00    +0.000 A 
ENDBRANCH   2   5
BRANCH   3  11
ATOM     11  N   UNL     1       7.602   7.941  17.798  0.00  0.00    +0.000 NA
ATOM     12  C   UNL     1       7.661   6.669  18.022  0.00  0.00    +0.000 C 
BRANCH  12  13
ATOM     13  C   UNL     1       6.654   5.758  17.443  0.00  0.00    +0.000 A 
ATOM     14  C   UNL     1       7.026   4.827  16.465  0.00  0.00    +0.000 A 
ATOM     15  C   UNL     1       6.066   3.997  15.888  0.00  0.00    +0.000 A 
ATOM     16  C   UNL     1       4.735   4.096  16.289  0.00  0.00    +0.000 A 
ATOM     17  C   UNL     1       4.370   5.019  17.270  0.00  0.00    +0.000 A 
ATOM     18 CL   UNL     1       2.722   5.142  17.751  0.00  0.00    +0.000 Cl
ATOM     19  C   UNL     1       5.322   5.852  17.857  0.00  0.00    +0.000 A 
ENDBRANCH  12  13
ENDBRANCH   3  11
TORSDOF 3
ENDMDL
MODEL 7
REMARK VINA RESULT:      -6.9      3.133      8.098
REMARK  Name = 
REMARK  3 active torsions:
REMARK  status: ('A' for Active; 'I' for Inactive)
REMARK    1  A    between atoms: C_2  and  C_13
REMARK    2  A    between atoms: N_3  and  N_4
REMARK    3  A    between atoms: C_5  and  C_6
REMARK                            x       y       z     vdW  Elec       q    Type
REMARK                         _______ _______ _______ _____ _____    ______ ____
ROOT
ATOM      1  O   UNL     1       7.813  10.853  17.296  0.00  0.00    +0.000 OA
ATOM      2  C   UNL     1       8.599  10.237  18.011  0.00  0.00    +0.000 C 
ATOM      3  N   UNL     1       8.604   8.860  18.192  0.00  0.00    +0.000 N 
ATOM      4  H   UNL     1       9.331   8.398  18.719  0.00  0.00    +0.000 HD
ENDROOT
BRANCH   2   5
ATOM      5  C   UNL     1       9.667  10.989  18.727  0.00  0.00    +0.000 A 
ATOM      6  C   UNL     1      10.793  11.504  18.070  0.00  0.00    +0.000 A 
ATOM      7  C   UNL     1      11.766  12.199  18.792  0.00  0.00    +0.000 A 
ATOM      8  C   UNL     1      11.627  12.372  20.169  0.00  0.00    +0.000 A 
ATOM      9  C   UNL     1      10.519  11.847  20.831  0.00  0.00    +0.000 A 
ATOM     10  C   UNL     1       9.544  11.153  20.113  0.00  0.00    +0.000 A 
ENDBRANCH   2   5
BRANCH   3  11
ATOM     11  N   UNL     1       7.649   8.113  17.576  0.00  0.00    +0.000 NA
ATOM     12  C   UNL     1       7.586   6.864  17.904  0.00  0.00    +0.000 C 
BRANCH  12  13
ATOM     13  C   UNL     1       6.558   5.984  17.313  0.00  0.00    +0.000 A 
ATOM     14  C   UNL     1       5.376   5.714  18.014  0.00  0.00    +0.000 A 
ATOM     15  C   UNL     1       4.425   4.849  17.474  0.00  0.00    +0.000 A 
ATOM     16  C   UNL     1       4.655   4.254  16.234  0.00  0.00    +0.000 A 
ATOM     17  C   UNL     1       5.831   4.533  15.536  0.00  0.00    +0.000 A 
ATOM     18 CL   UNL     1       6.111   3.786  14.011  0.00  0.00    +0.000 Cl
ATOM     19  C   UNL     1       6.788   5.400  16.065  0.00  0.00    +0.000 A 
ENDBRANCH  12  13
ENDBRANCH   3  11
TORSDOF 3
ENDMDL
MODEL 8
REMARK VINA RESULT:      -6.9      7.016      8.403
REMARK  Name = 
REMARK  3 active torsions:
REMARK  status: ('A' for Active; 'I' for Inactive)
REMARK    1  A    between atoms: C_2  and  C_13
REMARK    2  A    between atoms: N_3  and  N_4
REMARK    3  A    between atoms: C_5  and  C_6
REMARK                            x       y       z     vdW  Elec       q    Type
REMARK                         _______ _______ _______ _____ _____    ______ ____
ROOT
ATOM      1  O   UNL     1       2.283   2.705  16.838  0.00  0.00    +0.000 OA
ATOM      2  C   UNL     1       3.000   3.284  17.650  0.00  0.00    +0.000 C 
ATOM      3  N   UNL     1       4.156   3.988  17.338  0.00  0.00    +0.000 N 
ATOM      4  H   UNL     1       4.656   4.521  18.035  0.00  0.00    +0.000 HD
ENDROOT
BRANCH   2   5
ATOM      5  C   UNL     1       2.611   3.282  19.089  0.00  0.00    +0.000 A 
ATOM      6  C   UNL     1       3.339   2.585  20.063  0.00  0.00    +0.000 A 
ATOM      7  C   UNL     1       2.926   2.614  21.397  0.00  0.00    +0.000 A 
ATOM      8  C   UNL     1       1.784   3.327  21.762  0.00  0.00    +0.000 A 
ATOM      9  C   UNL     1       1.046   4.007  20.796  0.00  0.00    +0.000 A 
ATOM     10  C   UNL     1       1.456   3.982  19.462  0.00  0.00    +0.000 A 
ENDBRANCH   2   5
BRANCH   3  11
ATOM     11  N   UNL     1       4.576   4.021  16.044  0.00  0.00    +0.000 NA
ATOM     12  C   UNL     1       5.835   4.234  15.847  0.00  0.00    +0.000 C 
BRANCH  12  13
ATOM     13  C   UNL     1       6.387   4.252  14.478  0.00  0.00    +0.000 A 
ATOM     14  C   UNL     1       7.331   5.220  14.112  0.00  0.00    +0.000 A 
ATOM     15  C   UNL     1       7.820   5.263  12.807  0.00  0.00    +0.000 A 
ATOM     16  C   UNL     1       7.365   4.339  11.867  0.00  0.00    +0.000 A 
ATOM     17  C   UNL     1       6.430   3.371  12.239  0.00  0.00    +0.000 A 
ATOM     18 CL   UNL     1       5.867   2.241  11.069  0.00  0.00    +0.000 Cl
ATOM     19  C   UNL     1       5.938   3.316  13.542  0.00  0.00    +0.000 A 
ENDBRANCH  12  13
ENDBRANCH   3  11
TORSDOF 3
ENDMDL
MODEL 9
REMARK VINA RESULT:      -6.8      6.526      7.952
REMARK  Name = 
REMARK  3 active torsions:
REMARK  status: ('A' for Active; 'I' for Inactive)
REMARK    1  A    between atoms: C_2  and  C_13
REMARK    2  A    between atoms: N_3  and  N_4
REMARK    3  A    between atoms: C_5  and  C_6
REMARK                            x       y       z     vdW  Elec       q    Type
REMARK                         _______ _______ _______ _____ _____    ______ ____
ROOT
ATOM      1  O   UNL     1       2.609   3.270  16.719  0.00  0.00    +0.000 OA
ATOM      2  C   UNL     1       3.167   3.802  17.675  0.00  0.00    +0.000 C 
ATOM      3  N   UNL     1       4.264   4.650  17.591  0.00  0.00    +0.000 N 
ATOM      4  H   UNL     1       4.624   5.130  18.403  0.00  0.00    +0.000 HD
ENDROOT
BRANCH   2   5
ATOM      5  C   UNL     1       2.630   3.569  19.046  0.00  0.00    +0.000 A 
ATOM      6  C   UNL     1       3.340   2.853  20.019  0.00  0.00    +0.000 A 
ATOM      7  C   UNL     1       2.787   2.661  21.288  0.00  0.00    +0.000 A 
ATOM      8  C   UNL     1       1.524   3.171  21.586  0.00  0.00    +0.000 A 
ATOM      9  C   UNL     1       0.805   3.868  20.617  0.00  0.00    +0.000 A 
ATOM     10  C   UNL     1       1.354   4.064  19.349  0.00  0.00    +0.000 A 
ENDBRANCH   2   5
BRANCH   3  11
ATOM     11  N   UNL     1       4.811   4.897  16.371  0.00  0.00    +0.000 NA
ATOM     12  C   UNL     1       5.423   3.912  15.799  0.00  0.00    +0.000 C 
BRANCH  12  13
ATOM     13  C   UNL     1       6.018   4.077  14.458  0.00  0.00    +0.000 A 
ATOM     14  C   UNL     1       5.535   3.327  13.377  0.00  0.00    +0.000 A 
ATOM     15  C   UNL     1       6.126   3.452  12.120  0.00  0.00    +0.000 A 
ATOM     16  C   UNL     1       7.198   4.325  11.943  0.00  0.00    +0.000 A 
ATOM     17  C   UNL     1       7.670   5.076  13.021  0.00  0.00    +0.000 A 
ATOM     18 CL   UNL     1       9.001   6.143  12.795  0.00  0.00    +0.000 Cl
ATOM     19  C   UNL     1       7.084   4.962  14.282  0.00  0.00    +0.000 A 
ENDBRANCH  12  13
ENDBRANCH   3  11
TORSDOF 3
ENDMDL
