MODEL 1
REMARK VINA RESULT:      -6.6      0.000      0.000
REMARK  Name = 
REMARK  2 active torsions:
REMARK  status: ('A' for Active; 'I' for Inactive)
REMARK    1  A    between atoms: C_1  and  N_2
REMARK    2  A    between atoms: C_5  and  C_6
REMARK                            x       y       z     vdW  Elec       q    Type
REMARK                         _______ _______ _______ _____ _____    ______ ____
ROOT
ATOM      1  C   UNL     1       2.199   4.531  21.145  0.00  0.00    +0.000 C 
ATOM      2  N   UNL     1       2.569   5.445  20.054  0.00  0.00    +0.000 N 
ATOM      3  C   UNL     1       3.324   4.970  18.956  0.00  0.00    +0.000 C 
ATOM      4  S   UNL     1       3.256   3.344  18.466  0.00  0.00    +0.000 S 
ATOM      5  C   UNL     1       4.275   5.998  18.308  0.00  0.00    +0.000 C 
ATOM      6  S   UNL     1       3.341   7.425  17.680  0.00  0.00    +0.000 S 
ATOM      7  C   UNL     1       2.303   7.735  19.087  0.00  0.00    +0.000 A 
ATOM      8  C   UNL     1       1.711   9.012  19.132  0.00  0.00    +0.000 A 
ATOM      9  C   UNL     1       0.807   9.350  20.134  0.00  0.00    +0.000 A 
ATOM     10  C   UNL     1       0.492   8.413  21.104  0.00  0.00    +0.000 A 
ATOM     11  C   UNL     1       1.094   7.152  21.083  0.00  0.00    +0.000 A 
ATOM     12  C   UNL     1       2.019   6.781  20.082  0.00  0.00    +0.000 A 
ENDROOT
BRANCH   5  13
ATOM     13  C   UNL     1       5.247   5.508  17.231  0.00  0.00    +0.000 A 
ATOM     14  C   UNL     1       4.948   5.619  15.859  0.00  0.00    +0.000 A 
ATOM     15  C   UNL     1       5.840   5.164  14.888  0.00  0.00    +0.000 A 
ATOM     16  C   UNL     1       7.058   4.607  15.270  0.00  0.00    +0.000 A 
ATOM     17  C   UNL     1       7.384   4.508  16.621  0.00  0.00    +0.000 A 
ATOM     18  C   UNL     1       6.485   4.950  17.595  0.00  0.00    +0.000 A 
ENDBRANCH   5  13
TORSDOF 1
ENDMDL
MODEL 2
REMARK VINA RESULT:      -6.5      0.059      1.139
REMARK  Name = 
REMARK  2 active torsions:
REMARK  status: ('A' for Active; 'I' for Inactive)
REMARK    1  A    between atoms: C_1  and  N_2
REMARK    2  A    between atoms: C_5  and  C_6
REMARK                            x       y       z     vdW  Elec       q    Type
REMARK                         _______ _______ _______ _____ _____    ______ ____
ROOT
ATOM      1  C   UNL     1       2.202   4.605  21.195  0.00  0.00    +0.000 C 
ATOM      2  N   UNL     1       2.567   5.503  20.091  0.00  0.00    +0.000 N 
ATOM      3  C   UNL     1       3.328   5.015  19.002  0.00  0.00    +0.000 C 
ATOM      4  S   UNL     1       3.275   3.380  18.540  0.00  0.00    +0.000 S 
ATOM      5  C   UNL     1       4.273   6.039  18.339  0.00  0.00    +0.000 C 
ATOM      6  S   UNL     1       3.330   7.449  17.685  0.00  0.00    +0.000 S 
ATOM      7  C   UNL     1       2.286   7.774  19.084  0.00  0.00    +0.000 A 
ATOM      8  C   UNL     1       1.684   9.047  19.106  0.00  0.00    +0.000 A 
ATOM      9  C   UNL     1       0.775   9.395  20.101  0.00  0.00    +0.000 A 
ATOM     10  C   UNL     1       0.465   8.472  21.085  0.00  0.00    +0.000 A 
ATOM     11  C   UNL     1       1.077   7.216  21.087  0.00  0.00    +0.000 A 
ATOM     12  C   UNL     1       2.007   6.835  20.094  0.00  0.00    +0.000 A 
ENDROOT
BRANCH   5  13
ATOM     13  C   UNL     1       5.252   5.538  17.273  0.00  0.00    +0.000 A 
ATOM     14  C   UNL     1       6.473   4.928  17.618  0.00  0.00    +0.000 A 
ATOM     15  C   UNL     1       7.358   4.481  16.637  0.00  0.00    +0.000 A 
ATOM     16  C   UNL     1       7.029   4.616  15.291  0.00  0.00    +0.000 A 
ATOM     17  C   UNL     1       5.815   5.196  14.927  0.00  0.00    +0.000 A 
ATOM     18  C   UNL     1       4.935   5.659  15.909  0.00  0.00    +0.000 A 
ENDBRANCH   5  13
TORSDOF 1
ENDMDL
MODEL 3
REMARK VINA RESULT:      -5.9      2.939      3.829
REMARK  Name = 
REMARK  2 active torsions:
REMARK  status: ('A' for Active; 'I' for Inactive)
REMARK    1  A    between atoms: C_1  and  N_2
REMARK    2  A    between atoms: C_5  and  C_6
REMARK                            x       y       z     vdW  Elec       q    Type
REMARK                         _______ _______ _______ _____ _____    ______ ____
ROOT
ATOM      1  C   UNL     1       2.326   9.204  17.453  0.00  0.00    +0.000 C 
ATOM      2  N   UNL     1       2.160   8.210  18.523  0.00  0.00    +0.000 N 
ATOM      3  C   UNL     1       2.784   6.945  18.419  0.00  0.00    +0.000 C 
ATOM      4  S   UNL     1       4.215   6.729  17.527  0.00  0.00    +0.000 S 
ATOM      5  C   UNL     1       2.028   5.773  19.080  0.00  0.00    +0.000 C 
ATOM      6  S   UNL     1       1.820   6.071  20.861  0.00  0.00    +0.000 S 
ATOM      7  C   UNL     1       1.258   7.755  20.810  0.00  0.00    +0.000 A 
ATOM      8  C   UNL     1       0.615   8.212  21.975  0.00  0.00    +0.000 A 
ATOM      9  C   UNL     1       0.206   9.537  22.097  0.00  0.00    +0.000 A 
ATOM     10  C   UNL     1       0.432  10.414  21.050  0.00  0.00    +0.000 A 
ATOM     11  C   UNL     1       1.046   9.962  19.878  0.00  0.00    +0.000 A 
ATOM     12  C   UNL     1       1.467   8.623  19.722  0.00  0.00    +0.000 A 
ENDROOT
BRANCH   5  13
ATOM     13  C   UNL     1       2.555   4.352  18.857  0.00  0.00    +0.000 A 
ATOM     14  C   UNL     1       3.532   3.785  19.698  0.00  0.00    +0.000 A 
ATOM     15  C   UNL     1       4.007   2.491  19.481  0.00  0.00    +0.000 A 
ATOM     16  C   UNL     1       3.498   1.732  18.430  0.00  0.00    +0.000 A 
ATOM     17  C   UNL     1       2.515   2.265  17.599  0.00  0.00    +0.000 A 
ATOM     18  C   UNL     1       2.049   3.567  17.806  0.00  0.00    +0.000 A 
ENDBRANCH   5  13
TORSDOF 1
ENDMDL
MODEL 4
REMARK VINA RESULT:      -5.9      1.728      3.739
REMARK  Name = 
REMARK  2 active torsions:
REMARK  status: ('A' for Active; 'I' for Inactive)
REMARK    1  A    between atoms: C_1  and  N_2
REMARK    2  A    between atoms: C_5  and  C_6
REMARK                            x       y       z     vdW  Elec       q    Type
REMARK                         _______ _______ _______ _____ _____    ______ ____
ROOT
ATOM      1  C   UNL     1       2.517   7.211  18.822  0.00  0.00    +0.000 C 
ATOM      2  N   UNL     1       3.078   5.905  18.446  0.00  0.00    +0.000 N 
ATOM      3  C   UNL     1       4.163   5.833  17.541  0.00  0.00    +0.000 C 
ATOM      4  S   UNL     1       5.281   7.105  17.389  0.00  0.00    +0.000 S 
ATOM      5  C   UNL     1       4.200   4.577  16.645  0.00  0.00    +0.000 C 
ATOM      6  S   UNL     1       4.306   3.072  17.658  0.00  0.00    +0.000 S 
ATOM      7  C   UNL     1       3.048   3.439  18.855  0.00  0.00    +0.000 A 
ATOM      8  C   UNL     1       2.562   2.333  19.580  0.00  0.00    +0.000 A 
ATOM      9  C   UNL     1       1.639   2.497  20.608  0.00  0.00    +0.000 A 
ATOM     10  C   UNL     1       1.189   3.770  20.916  0.00  0.00    +0.000 A 
ATOM     11  C   UNL     1       1.645   4.871  20.185  0.00  0.00    +0.000 A 
ATOM     12  C   UNL     1       2.578   4.736  19.133  0.00  0.00    +0.000 A 
ENDROOT
BRANCH   5  13
ATOM     13  C   UNL     1       5.245   4.516  15.526  0.00  0.00    +0.000 A 
ATOM     14  C   UNL     1       6.577   4.922  15.735  0.00  0.00    +0.000 A 
ATOM     15  C   UNL     1       7.517   4.867  14.706  0.00  0.00    +0.000 A 
ATOM     16  C   UNL     1       7.148   4.383  13.453  0.00  0.00    +0.000 A 
ATOM     17  C   UNL     1       5.841   3.955  13.231  0.00  0.00    +0.000 A 
ATOM     18  C   UNL     1       4.894   4.025  14.256  0.00  0.00    +0.000 A 
ENDBRANCH   5  13
TORSDOF 1
ENDMDL
MODEL 5
REMARK VINA RESULT:      -5.8      2.949      3.678
REMARK  Name = 
REMARK  2 active torsions:
REMARK  status: ('A' for Active; 'I' for Inactive)
REMARK    1  A    between atoms: C_1  and  N_2
REMARK    2  A    between atoms: C_5  and  C_6
REMARK                            x       y       z     vdW  Elec       q    Type
REMARK                         _______ _______ _______ _____ _____    ______ ____
ROOT
ATOM      1  C   UNL     1       2.281   9.217  17.457  0.00  0.00    +0.000 C 
ATOM      2  N   UNL     1       2.126   8.225  18.530  0.00  0.00    +0.000 N 
ATOM      3  C   UNL     1       2.747   6.958  18.420  0.00  0.00    +0.000 C 
ATOM      4  S   UNL     1       4.167   6.739  17.511  0.00  0.00    +0.000 S 
ATOM      5  C   UNL     1       1.997   5.789  19.091  0.00  0.00    +0.000 C 
ATOM      6  S   UNL     1       1.809   6.089  20.873  0.00  0.00    +0.000 S 
ATOM      7  C   UNL     1       1.250   7.773  20.828  0.00  0.00    +0.000 A 
ATOM      8  C   UNL     1       0.621   8.233  22.000  0.00  0.00    +0.000 A 
ATOM      9  C   UNL     1       0.216   9.559  22.126  0.00  0.00    +0.000 A 
ATOM     10  C   UNL     1       0.432  10.434  21.075  0.00  0.00    +0.000 A 
ATOM     11  C   UNL     1       1.031   9.980  19.896  0.00  0.00    +0.000 A 
ATOM     12  C   UNL     1       1.448   8.640  19.737  0.00  0.00    +0.000 A 
ENDROOT
BRANCH   5  13
ATOM     13  C   UNL     1       2.518   4.367  18.863  0.00  0.00    +0.000 A 
ATOM     14  C   UNL     1       2.065   3.577  17.788  0.00  0.00    +0.000 A 
ATOM     15  C   UNL     1       2.544   2.281  17.594  0.00  0.00    +0.000 A 
ATOM     16  C   UNL     1       3.502   1.758  18.459  0.00  0.00    +0.000 A 
ATOM     17  C   UNL     1       3.981   2.531  19.516  0.00  0.00    +0.000 A 
ATOM     18  C   UNL     1       3.490   3.823  19.720  0.00  0.00    +0.000 A 
ENDBRANCH   5  13
TORSDOF 1
ENDMDL
MODEL 6
REMARK VINA RESULT:      -5.8      1.750      3.613
REMARK  Name = 
REMARK  2 active torsions:
REMARK  status: ('A' for Active; 'I' for Inactive)
REMARK    1  A    between atoms: C_1  and  N_2
REMARK    2  A    between atoms: C_5  and  C_6
REMARK                            x       y       z     vdW  Elec       q    Type
REMARK                         _______ _______ _______ _____ _____    ______ ____
ROOT
ATOM      1  C   UNL     1       2.572   7.207  18.804  0.00  0.00    +0.000 C 
ATOM      2  N   UNL     1       3.113   5.894  18.424  0.00  0.00    +0.000 N 
ATOM      3  C   UNL     1       4.193   5.809  17.514  0.00  0.00    +0.000 C 
ATOM      4  S   UNL     1       5.326   7.067  17.357  0.00  0.00    +0.000 S 
ATOM      5  C   UNL     1       4.210   4.554  16.616  0.00  0.00    +0.000 C 
ATOM      6  S   UNL     1       4.301   3.047  17.627  0.00  0.00    +0.000 S 
ATOM      7  C   UNL     1       3.054   3.428  18.831  0.00  0.00    +0.000 A 
ATOM      8  C   UNL     1       2.558   2.328  19.557  0.00  0.00    +0.000 A 
ATOM      9  C   UNL     1       1.642   2.503  20.590  0.00  0.00    +0.000 A 
ATOM     10  C   UNL     1       1.210   3.781  20.902  0.00  0.00    +0.000 A 
ATOM     11  C   UNL     1       1.677   4.877  20.170  0.00  0.00    +0.000 A 
ATOM     12  C   UNL     1       2.602   4.731  19.112  0.00  0.00    +0.000 A 
ENDROOT
BRANCH   5  13
ATOM     13  C   UNL     1       5.247   4.481  15.492  0.00  0.00    +0.000 A 
ATOM     14  C   UNL     1       4.918   3.994  14.212  0.00  0.00    +0.000 A 
ATOM     15  C   UNL     1       5.873   3.928  13.197  0.00  0.00    +0.000 A 
ATOM     16  C   UNL     1       7.173   4.368  13.438  0.00  0.00    +0.000 A 
ATOM     17  C   UNL     1       7.515   4.874  14.690  0.00  0.00    +0.000 A 
ATOM     18  C   UNL     1       6.562   4.927  15.712  0.00  0.00    +0.000 A 
ENDBRANCH   5  13
TORSDOF 1
ENDMDL
MODEL 7
REMARK VINA RESULT:      -5.8      2.922      6.382
REMARK  Name = 
REMARK  2 active torsions:
REMARK  status: ('A' for Active; 'I' for Inactive)
REMARK    1  A    between atoms: C_1  and  N_2
REMARK    2  A    between atoms: C_5  and  C_6
REMARK                            x       y       z     vdW  Elec       q    Type
REMARK                         _______ _______ _______ _____ _____    ______ ____
ROOT
ATOM      1  C   UNL     1       6.250   7.181  17.692  0.00  0.00    +0.000 C 
ATOM      2  N   UNL     1       5.494   5.954  17.403  0.00  0.00    +0.000 N 
ATOM      3  C   UNL     1       4.382   5.601  18.203  0.00  0.00    +0.000 C 
ATOM      4  S   UNL     1       3.458   6.778  19.010  0.00  0.00    +0.000 S 
ATOM      5  C   UNL     1       4.134   4.087  18.369  0.00  0.00    +0.000 C 
ATOM      6  S   UNL     1       3.842   3.307  16.754  0.00  0.00    +0.000 S 
ATOM      7  C   UNL     1       5.177   4.032  15.835  0.00  0.00    +0.000 A 
ATOM      8  C   UNL     1       5.519   3.370  14.641  0.00  0.00    +0.000 A 
ATOM      9  C   UNL     1       6.488   3.885  13.785  0.00  0.00    +0.000 A 
ATOM     10  C   UNL     1       7.128   5.066  14.121  0.00  0.00    +0.000 A 
ATOM     11  C   UNL     1       6.814   5.717  15.318  0.00  0.00    +0.000 A 
ATOM     12  C   UNL     1       5.840   5.216  16.209  0.00  0.00    +0.000 A 
ENDROOT
BRANCH   5  13
ATOM     13  C   UNL     1       3.058   3.633  19.360  0.00  0.00    +0.000 A 
ATOM     14  C   UNL     1       1.695   3.597  19.006  0.00  0.00    +0.000 A 
ATOM     15  C   UNL     1       0.724   3.186  19.919  0.00  0.00    +0.000 A 
ATOM     16  C   UNL     1       1.100   2.782  21.198  0.00  0.00    +0.000 A 
ATOM     17  C   UNL     1       2.445   2.788  21.562  0.00  0.00    +0.000 A 
ATOM     18  C   UNL     1       3.417   3.215  20.653  0.00  0.00    +0.000 A 
ENDBRANCH   5  13
TORSDOF 1
ENDMDL
MODEL 8
REMARK VINA RESULT:      -5.7      2.903      6.474
REMARK  Name = 
REMARK  2 active torsions:
REMARK  status: ('A' for Active; 'I' for Inactive)
REMARK    1  A    between atoms: C_1  and  N_2
REMARK    2  A    between atoms: C_5  and  C_6
REMARK                            x       y       z     vdW  Elec       q    Type
REMARK                         _______ _______ _______ _____ _____    ______ ____
ROOT
ATOM      1  C   UNL     1       6.025   7.326  17.567  0.00  0.00    +0.000 C 
ATOM      2  N   UNL     1       5.347   6.044  17.325  0.00  0.00    +0.000 N 
ATOM      3  C   UNL     1       4.242   5.664  18.123  0.00  0.00    +0.000 C 
ATOM      4  S   UNL     1       3.236   6.820  18.859  0.00  0.00    +0.000 S 
ATOM      5  C   UNL     1       4.080   4.147  18.356  0.00  0.00    +0.000 C 
ATOM      6  S   UNL     1       3.864   3.278  16.775  0.00  0.00    +0.000 S 
ATOM      7  C   UNL     1       5.172   4.037  15.844  0.00  0.00    +0.000 A 
ATOM      8  C   UNL     1       5.573   3.342  14.688  0.00  0.00    +0.000 A 
ATOM      9  C   UNL     1       6.527   3.874  13.824  0.00  0.00    +0.000 A 
ATOM     10  C   UNL     1       7.090   5.104  14.115  0.00  0.00    +0.000 A 
ATOM     11  C   UNL     1       6.717   5.790  15.274  0.00  0.00    +0.000 A 
ATOM     12  C   UNL     1       5.757   5.274  16.173  0.00  0.00    +0.000 A 
ENDROOT
BRANCH   5  13
ATOM     13  C   UNL     1       3.014   3.676  19.349  0.00  0.00    +0.000 A 
ATOM     14  C   UNL     1       3.318   3.439  20.704  0.00  0.00    +0.000 A 
ATOM     15  C   UNL     1       2.339   3.005  21.598  0.00  0.00    +0.000 A 
ATOM     16  C   UNL     1       1.030   2.821  21.158  0.00  0.00    +0.000 A 
ATOM     17  C   UNL     1       0.702   3.072  19.827  0.00  0.00    +0.000 A 
ATOM     18  C   UNL     1       1.686   3.492  18.927  0.00  0.00    +0.000 A 
ENDBRANCH   5  13
TORSDOF 1
ENDMDL
MODEL 9
REMARK VINA RESULT:      -5.7      2.908      3.915
REMARK  Name = 
REMARK  2 active torsions:
REMARK  status: ('A' for Active; 'I' for Inactive)
REMARK    1  A    between atoms: C_1  and  N_2
REMARK    2  A    between atoms: C_5  and  C_6
REMARK                            x       y       z     vdW  Elec       q    Type
REMARK                         _______ _______ _______ _____ _____    ______ ____
ROOT
ATOM      1  C   UNL     1       4.053   1.600  17.236  0.00  0.00    +0.000 C 
ATOM      2  N   UNL     1       3.922   2.918  17.873  0.00  0.00    +0.000 N 
ATOM      3  C   UNL     1       4.799   3.969  17.515  0.00  0.00    +0.000 C 
ATOM      4  S   UNL     1       5.521   4.041  15.978  0.00  0.00    +0.000 S 
ATOM      5  C   UNL     1       5.128   4.974  18.640  0.00  0.00    +0.000 C 
ATOM      6  S   UNL     1       3.613   5.782  19.236  0.00  0.00    +0.000 S 
ATOM      7  C   UNL     1       2.571   4.355  19.409  0.00  0.00    +0.000 A 
ATOM      8  C   UNL     1       1.437   4.531  20.225  0.00  0.00    +0.000 A 
ATOM      9  C   UNL     1       0.493   3.517  20.372  0.00  0.00    +0.000 A 
ATOM     10  C   UNL     1       0.681   2.317  19.707  0.00  0.00    +0.000 A 
ATOM     11  C   UNL     1       1.818   2.124  18.917  0.00  0.00    +0.000 A 
ATOM     12  C   UNL     1       2.795   3.131  18.753  0.00  0.00    +0.000 A 
ENDROOT
BRANCH   5  13
ATOM     13  C   UNL     1       6.203   6.032  18.375  0.00  0.00    +0.000 A 
ATOM     14  C   UNL     1       6.003   7.073  17.448  0.00  0.00    +0.000 A 
ATOM     15  C   UNL     1       6.993   8.028  17.212  0.00  0.00    +0.000 A 
ATOM     16  C   UNL     1       8.193   7.972  17.916  0.00  0.00    +0.000 A 
ATOM     17  C   UNL     1       8.403   6.963  18.854  0.00  0.00    +0.000 A 
ATOM     18  C   UNL     1       7.419   5.997  19.080  0.00  0.00    +0.000 A 
ENDBRANCH   5  13
TORSDOF 1
ENDMDL
