MODEL 1
REMARK VINA RESULT:      -7.2      0.000      0.000
REMARK  Name = 
REMARK  7 active torsions:
REMARK  status: ('A' for Active; 'I' for Inactive)
REMARK    1  A    between atoms: C_1  and  C_2
REMARK    2  A    between atoms: C_2  and  N_3
REMARK    3  A    between atoms: C_5  and  C_6
REMARK    4  A    between atoms: C_11  and  O_12
REMARK    5  A    between atoms: O_12  and  C_13
REMARK    6  A    between atoms: N_17  and  C_18
REMARK    7  A    between atoms: C_18  and  C_19
REMARK                            x       y       z     vdW  Elec       q    Type
REMARK                         _______ _______ _______ _____ _____    ______ ____
ROOT
ATOM      1  C   UNL     1       3.194   6.638  18.435  0.00  0.00    +0.000 A 
ATOM      2  C   UNL     1       4.503   6.690  18.913  0.00  0.00    +0.000 A 
ATOM      3  C   UNL     1       5.103   5.503  19.234  0.00  0.00    +0.000 A 
ATOM      4  C   UNL     1       5.104   4.755  18.108  0.00  0.00    +0.000 A 
ATOM      5  C   UNL     1       6.357   4.505  17.597  0.00  0.00    +0.000 A 
ATOM      6  C   UNL     1       6.478   4.339  16.234  0.00  0.00    +0.000 A 
ATOM      7  C   UNL     1       5.325   4.129  15.465  0.00  0.00    +0.000 A 
ATOM      8  C   UNL     1       4.021   4.255  16.031  0.00  0.00    +0.000 A 
ATOM      9  C   UNL     1       3.899   4.680  17.358  0.00  0.00    +0.000 A 
ATOM     10  N   UNL     1       2.847   5.441  17.853  0.00  0.00    +0.000 N 
ENDROOT
BRANCH   1  13
ATOM     11  N   UNL     1       0.748   9.495  19.394  0.00  0.00    +0.000 N 
ATOM     12  C   UNL     1       1.551   8.317  19.443  0.00  0.00    +0.000 C 
ATOM     13  C   UNL     1       2.303   7.824  18.416  0.00  0.00    +0.000 C 
ATOM     14  C   UNL     1       1.561   7.616  20.733  0.00  0.00    +0.000 C 
ATOM     15  C   UNL     1       1.137   8.145  21.880  0.00  0.00    +0.000 C 
ATOM     16  C   UNL     1       0.409   9.395  21.840  0.00  0.00    +0.000 A 
ATOM     17  C   UNL     1      -0.137   9.864  23.044  0.00  0.00    +0.000 A 
ATOM     18  C   UNL     1      -1.047  10.916  23.025  0.00  0.00    +0.000 A 
ATOM     19  C   UNL     1      -1.356  11.520  21.817  0.00  0.00    +0.000 A 
ATOM     20  C   UNL     1      -0.742  11.101  20.625  0.00  0.00    +0.000 A 
ATOM     21  C   UNL     1       0.146  10.012  20.595  0.00  0.00    +0.000 A 
BRANCH  11  23
ATOM     22  C   UNL     1      -0.884   9.808  17.558  0.00  0.00    +0.000 C 
ATOM     23  C   UNL     1       0.452  10.238  18.155  0.00  0.00    +0.000 C 
ENDBRANCH  11  23
ENDBRANCH   1  13
BRANCH   6  24
ATOM     24  O   UNL     1       7.682   4.500  15.590  0.00  0.00    +0.000 OA
ATOM     25  C   UNL     1       7.596   4.982  14.233  0.00  0.00    +0.000 C 
ENDBRANCH   6  24
BRANCH  10  26
ATOM     26  C   UNL     1       1.533   4.819  18.194  0.00  0.00    +0.000 C 
ATOM     27  C   UNL     1       1.636   4.001  19.493  0.00  0.00    +0.000 C 
ENDBRANCH  10  26
TORSDOF 4
ENDMDL
MODEL 2
REMARK VINA RESULT:      -7.0      3.050      8.039
REMARK  Name = 
REMARK  7 active torsions:
REMARK  status: ('A' for Active; 'I' for Inactive)
REMARK    1  A    between atoms: C_1  and  C_2
REMARK    2  A    between atoms: C_2  and  N_3
REMARK    3  A    between atoms: C_5  and  C_6
REMARK    4  A    between atoms: C_11  and  O_12
REMARK    5  A    between atoms: O_12  and  C_13
REMARK    6  A    between atoms: N_17  and  C_18
REMARK    7  A    between atoms: C_18  and  C_19
REMARK                            x       y       z     vdW  Elec       q    Type
REMARK                         _______ _______ _______ _____ _____    ______ ____
ROOT
ATOM      1  C   UNL     1       0.639   9.455  20.267  0.00  0.00    +0.000 A 
ATOM      2  C   UNL     1       0.119   9.936  19.065  0.00  0.00    +0.000 A 
ATOM      3  C   UNL     1      -0.731  11.007  19.131  0.00  0.00    +0.000 A 
ATOM      4  C   UNL     1      -0.041  12.011  19.715  0.00  0.00    +0.000 A 
ATOM      5  C   UNL     1       0.204  13.084  18.889  0.00  0.00    +0.000 A 
ATOM      6  C   UNL     1       1.347  13.822  19.108  0.00  0.00    +0.000 A 
ATOM      7  C   UNL     1       2.046  13.659  20.312  0.00  0.00    +0.000 A 
ATOM      8  C   UNL     1       1.703  12.627  21.237  0.00  0.00    +0.000 A 
ATOM      9  C   UNL     1       0.704  11.714  20.889  0.00  0.00    +0.000 A 
ATOM     10  N   UNL     1       0.676  10.381  21.283  0.00  0.00    +0.000 N 
ENDROOT
BRANCH   1  13
ATOM     11  N   UNL     1       2.656   6.190  19.688  0.00  0.00    +0.000 N 
ATOM     12  C   UNL     1       2.056   7.470  19.500  0.00  0.00    +0.000 C 
ATOM     13  C   UNL     1       1.241   8.105  20.392  0.00  0.00    +0.000 C 
ATOM     14  C   UNL     1       2.386   8.140  18.236  0.00  0.00    +0.000 C 
ATOM     15  C   UNL     1       3.391   7.785  17.436  0.00  0.00    +0.000 C 
ATOM     16  C   UNL     1       4.068   6.531  17.689  0.00  0.00    +0.000 A 
ATOM     17  C   UNL     1       5.035   6.120  16.760  0.00  0.00    +0.000 A 
ATOM     18  C   UNL     1       5.536   4.822  16.813  0.00  0.00    +0.000 A 
ATOM     19  C   UNL     1       5.109   3.975  17.823  0.00  0.00    +0.000 A 
ATOM     20  C   UNL     1       4.204   4.420  18.801  0.00  0.00    +0.000 A 
ATOM     21  C   UNL     1       3.639   5.707  18.755  0.00  0.00    +0.000 A 
BRANCH  11  23
ATOM     22  C   UNL     1       1.119   4.396  20.432  0.00  0.00    +0.000 C 
ATOM     23  C   UNL     1       2.313   5.274  20.792  0.00  0.00    +0.000 C 
ENDBRANCH  11  23
ENDBRANCH   1  13
BRANCH   6  24
ATOM     24  O   UNL     1       1.893  14.618  18.130  0.00  0.00    +0.000 OA
ATOM     25  C   UNL     1       3.333  14.697  18.129  0.00  0.00    +0.000 C 
ENDBRANCH   6  24
BRANCH  10  26
ATOM     26  C   UNL     1       0.214   9.985  22.646  0.00  0.00    +0.000 C 
ATOM     27  C   UNL     1      -1.056  10.759  23.039  0.00  0.00    +0.000 C 
ENDBRANCH  10  26
TORSDOF 4
ENDMDL
MODEL 3
REMARK VINA RESULT:      -7.0      3.189      7.825
REMARK  Name = 
REMARK  7 active torsions:
REMARK  status: ('A' for Active; 'I' for Inactive)
REMARK    1  A    between atoms: C_1  and  C_2
REMARK    2  A    between atoms: C_2  and  N_3
REMARK    3  A    between atoms: C_5  and  C_6
REMARK    4  A    between atoms: C_11  and  O_12
REMARK    5  A    between atoms: O_12  and  C_13
REMARK    6  A    between atoms: N_17  and  C_18
REMARK    7  A    between atoms: C_18  and  C_19
REMARK                            x       y       z     vdW  Elec       q    Type
REMARK                         _______ _______ _______ _____ _____    ______ ____
ROOT
ATOM      1  C   UNL     1       1.686  10.016  18.094  0.00  0.00    +0.000 A 
ATOM      2  C   UNL     1       2.362  11.232  18.186  0.00  0.00    +0.000 A 
ATOM      3  C   UNL     1       1.623  12.375  18.045  0.00  0.00    +0.000 A 
ATOM      4  C   UNL     1       0.684  12.349  19.017  0.00  0.00    +0.000 A 
ATOM      5  C   UNL     1       0.826  13.333  19.967  0.00  0.00    +0.000 A 
ATOM      6  C   UNL     1       0.393  13.064  21.247  0.00  0.00    +0.000 A 
ATOM      7  C   UNL     1      -0.434  11.954  21.471  0.00  0.00    +0.000 A 
ATOM      8  C   UNL     1      -0.694  11.001  20.440  0.00  0.00    +0.000 A 
ATOM      9  C   UNL     1      -0.039  11.141  19.212  0.00  0.00    +0.000 A 
ATOM     10  N   UNL     1       0.346  10.084  18.395  0.00  0.00    +0.000 N 
ENDROOT
BRANCH   1  13
ATOM     11  N   UNL     1       3.103   6.412  18.361  0.00  0.00    +0.000 N 
ATOM     12  C   UNL     1       2.462   7.649  18.669  0.00  0.00    +0.000 C 
ATOM     13  C   UNL     1       2.385   8.732  17.842  0.00  0.00    +0.000 C 
ATOM     14  C   UNL     1       1.824   7.715  19.990  0.00  0.00    +0.000 C 
ATOM     15  C   UNL     1       1.557   6.654  20.751  0.00  0.00    +0.000 C 
ATOM     16  C   UNL     1       2.125   5.375  20.381  0.00  0.00    +0.000 A 
ATOM     17  C   UNL     1       1.936   4.303  21.266  0.00  0.00    +0.000 A 
ATOM     18  C   UNL     1       2.660   3.128  21.091  0.00  0.00    +0.000 A 
ATOM     19  C   UNL     1       3.515   3.017  20.007  0.00  0.00    +0.000 A 
ATOM     20  C   UNL     1       3.638   4.062  19.076  0.00  0.00    +0.000 A 
ATOM     21  C   UNL     1       2.961   5.283  19.243  0.00  0.00    +0.000 A 
BRANCH  11  23
ATOM     22  C   UNL     1       5.379   6.689  17.426  0.00  0.00    +0.000 C 
ATOM     23  C   UNL     1       3.956   6.199  17.177  0.00  0.00    +0.000 C 
ENDBRANCH  11  23
ENDBRANCH   1  13
BRANCH   6  24
ATOM     24  O   UNL     1       0.849  13.777  22.331  0.00  0.00    +0.000 OA
ATOM     25  C   UNL     1       0.869  15.209  22.164  0.00  0.00    +0.000 C 
ENDBRANCH   6  24
BRANCH  10  26
ATOM     26  C   UNL     1      -0.636   9.391  17.510  0.00  0.00    +0.000 C 
ATOM     27  C   UNL     1      -1.849  10.293  17.227  0.00  0.00    +0.000 C 
ENDBRANCH  10  26
TORSDOF 4
ENDMDL
MODEL 4
REMARK VINA RESULT:      -6.7      1.285      2.615
REMARK  Name = 
REMARK  7 active torsions:
REMARK  status: ('A' for Active; 'I' for Inactive)
REMARK    1  A    between atoms: C_1  and  C_2
REMARK    2  A    between atoms: C_2  and  N_3
REMARK    3  A    between atoms: C_5  and  C_6
REMARK    4  A    between atoms: C_11  and  O_12
REMARK    5  A    between atoms: O_12  and  C_13
REMARK    6  A    between atoms: N_17  and  C_18
REMARK    7  A    between atoms: C_18  and  C_19
REMARK                            x       y       z     vdW  Elec       q    Type
REMARK                         _______ _______ _______ _____ _____    ______ ____
ROOT
ATOM      1  C   UNL     1       3.873   5.344  19.348  0.00  0.00    +0.000 A 
ATOM      2  C   UNL     1       5.253   5.486  19.485  0.00  0.00    +0.000 A 
ATOM      3  C   UNL     1       6.036   4.435  19.090  0.00  0.00    +0.000 A 
ATOM      4  C   UNL     1       5.769   4.227  17.782  0.00  0.00    +0.000 A 
ATOM      5  C   UNL     1       6.826   4.488  16.941  0.00  0.00    +0.000 A 
ATOM      6  C   UNL     1       6.545   4.918  15.662  0.00  0.00    +0.000 A 
ATOM      7  C   UNL     1       5.240   4.787  15.168  0.00  0.00    +0.000 A 
ATOM      8  C   UNL     1       4.163   4.382  16.012  0.00  0.00    +0.000 A 
ATOM      9  C   UNL     1       4.408   4.197  17.376  0.00  0.00    +0.000 A 
ATOM     10  N   UNL     1       3.485   4.440  18.387  0.00  0.00    +0.000 N 
ENDROOT
BRANCH   1  13
ATOM     11  N   UNL     1       1.349   8.124  20.334  0.00  0.00    +0.000 N 
ATOM     12  C   UNL     1       2.316   7.354  19.622  0.00  0.00    +0.000 C 
ATOM     13  C   UNL     1       2.906   6.208  20.070  0.00  0.00    +0.000 C 
ATOM     14  C   UNL     1       2.662   7.858  18.287  0.00  0.00    +0.000 C 
ATOM     15  C   UNL     1       1.950   8.763  17.616  0.00  0.00    +0.000 C 
ATOM     16  C   UNL     1       0.900   9.473  18.313  0.00  0.00    +0.000 A 
ATOM     17  C   UNL     1       0.252  10.508  17.622  0.00  0.00    +0.000 A 
ATOM     18  C   UNL     1      -0.584  11.381  18.313  0.00  0.00    +0.000 A 
ATOM     19  C   UNL     1      -0.805  11.176  19.664  0.00  0.00    +0.000 A 
ATOM     20  C   UNL     1      -0.220  10.087  20.333  0.00  0.00    +0.000 A 
ATOM     21  C   UNL     1       0.667   9.211  19.683  0.00  0.00    +0.000 A 
BRANCH  11  23
ATOM     22  C   UNL     1       1.547   9.017  22.635  0.00  0.00    +0.000 C 
ATOM     23  C   UNL     1       1.000   7.902  21.750  0.00  0.00    +0.000 C 
ENDBRANCH  11  23
ENDBRANCH   1  13
BRANCH   6  24
ATOM     24  O   UNL     1       7.475   5.587  14.903  0.00  0.00    +0.000 OA
ATOM     25  C   UNL     1       7.593   5.143  13.536  0.00  0.00    +0.000 C 
ENDBRANCH   6  24
BRANCH  10  26
ATOM     26  C   UNL     1       2.404   3.460  18.702  0.00  0.00    +0.000 C 
ATOM     27  C   UNL     1       2.986   2.050  18.904  0.00  0.00    +0.000 C 
ENDBRANCH  10  26
TORSDOF 4
ENDMDL
MODEL 5
REMARK VINA RESULT:      -6.7      2.983      4.764
REMARK  Name = 
REMARK  7 active torsions:
REMARK  status: ('A' for Active; 'I' for Inactive)
REMARK    1  A    between atoms: C_1  and  C_2
REMARK    2  A    between atoms: C_2  and  N_3
REMARK    3  A    between atoms: C_5  and  C_6
REMARK    4  A    between atoms: C_11  and  O_12
REMARK    5  A    between atoms: O_12  and  C_13
REMARK    6  A    between atoms: N_17  and  C_18
REMARK    7  A    between atoms: C_18  and  C_19
REMARK                            x       y       z     vdW  Elec       q    Type
REMARK                         _______ _______ _______ _____ _____    ______ ____
ROOT
ATOM      1  C   UNL     1       1.430   8.915  18.973  0.00  0.00    +0.000 A 
ATOM      2  C   UNL     1       2.092   8.487  17.822  0.00  0.00    +0.000 A 
ATOM      3  C   UNL     1       3.232   7.747  17.991  0.00  0.00    +0.000 A 
ATOM      4  C   UNL     1       2.878   6.651  18.697  0.00  0.00    +0.000 A 
ATOM      5  C   UNL     1       2.991   5.469  18.001  0.00  0.00    +0.000 A 
ATOM      6  C   UNL     1       2.130   4.443  18.324  0.00  0.00    +0.000 A 
ATOM      7  C   UNL     1       1.396   4.516  19.517  0.00  0.00    +0.000 A 
ATOM      8  C   UNL     1       1.388   5.700  20.313  0.00  0.00    +0.000 A 
ATOM      9  C   UNL     1       2.060   6.833  19.845  0.00  0.00    +0.000 A 
ATOM     10  N   UNL     1       1.666   8.144  20.087  0.00  0.00    +0.000 N 
ENDROOT
BRANCH   1  13
ATOM     11  N   UNL     1      -0.308  12.386  18.942  0.00  0.00    +0.000 N 
ATOM     12  C   UNL     1       0.680  11.359  19.012  0.00  0.00    +0.000 C 
ATOM     13  C   UNL     1       0.437  10.017  18.958  0.00  0.00    +0.000 C 
ATOM     14  C   UNL     1       2.067  11.827  19.129  0.00  0.00    +0.000 C 
ATOM     15  C   UNL     1       2.463  13.075  18.882  0.00  0.00    +0.000 C 
ATOM     16  C   UNL     1       1.457  14.101  18.710  0.00  0.00    +0.000 A 
ATOM     17  C   UNL     1       1.900  15.425  18.578  0.00  0.00    +0.000 A 
ATOM     18  C   UNL     1       0.985  16.469  18.659  0.00  0.00    +0.000 A 
ATOM     19  C   UNL     1      -0.361  16.178  18.811  0.00  0.00    +0.000 A 
ATOM     20  C   UNL     1      -0.808  14.847  18.857  0.00  0.00    +0.000 A 
ATOM     21  C   UNL     1       0.089  13.765  18.827  0.00  0.00    +0.000 A 
BRANCH  11  23
ATOM     22  C   UNL     1      -2.296  11.631  17.674  0.00  0.00    +0.000 C 
ATOM     23  C   UNL     1      -1.760  12.137  19.009  0.00  0.00    +0.000 C 
ENDBRANCH  11  23
ENDBRANCH   1  13
BRANCH   6  24
ATOM     24  O   UNL     1       1.874   3.411  17.453  0.00  0.00    +0.000 OA
ATOM     25  C   UNL     1       2.423   2.132  17.830  0.00  0.00    +0.000 C 
ENDBRANCH   6  24
BRANCH  10  26
ATOM     26  C   UNL     1       1.961   8.814  21.388  0.00  0.00    +0.000 C 
ATOM     27  C   UNL     1       0.688   8.928  22.244  0.00  0.00    +0.000 C 
ENDBRANCH  10  26
TORSDOF 4
ENDMDL
MODEL 6
REMARK VINA RESULT:      -6.6      4.484      8.874
REMARK  Name = 
REMARK  7 active torsions:
REMARK  status: ('A' for Active; 'I' for Inactive)
REMARK    1  A    between atoms: C_1  and  C_2
REMARK    2  A    between atoms: C_2  and  N_3
REMARK    3  A    between atoms: C_5  and  C_6
REMARK    4  A    between atoms: C_11  and  O_12
REMARK    5  A    between atoms: O_12  and  C_13
REMARK    6  A    between atoms: N_17  and  C_18
REMARK    7  A    between atoms: C_18  and  C_19
REMARK                            x       y       z     vdW  Elec       q    Type
REMARK                         _______ _______ _______ _____ _____    ______ ____
ROOT
ATOM      1  C   UNL     1       1.122  12.406  19.422  0.00  0.00    +0.000 A 
ATOM      2  C   UNL     1       2.298  13.112  19.173  0.00  0.00    +0.000 A 
ATOM      3  C   UNL     1       2.268  14.058  18.184  0.00  0.00    +0.000 A 
ATOM      4  C   UNL     1       1.316  14.951  18.534  0.00  0.00    +0.000 A 
ATOM      5  C   UNL     1       1.797  16.206  18.824  0.00  0.00    +0.000 A 
ATOM      6  C   UNL     1       1.107  16.968  19.743  0.00  0.00    +0.000 A 
ATOM      7  C   UNL     1      -0.189  16.584  20.113  0.00  0.00    +0.000 A 
ATOM      8  C   UNL     1      -0.743  15.336  19.697  0.00  0.00    +0.000 A 
ATOM      9  C   UNL     1       0.062  14.448  18.976  0.00  0.00    +0.000 A 
ATOM     10  N   UNL     1      -0.027  13.063  19.047  0.00  0.00    +0.000 N 
ENDROOT
BRANCH   1  13
ATOM     11  N   UNL     1       1.399   8.674  20.453  0.00  0.00    +0.000 N 
ATOM     12  C   UNL     1       1.378   9.876  19.685  0.00  0.00    +0.000 C 
ATOM     13  C   UNL     1       1.103  11.123  20.166  0.00  0.00    +0.000 C 
ATOM     14  C   UNL     1       1.708   9.719  18.263  0.00  0.00    +0.000 C 
ATOM     15  C   UNL     1       2.288   8.639  17.739  0.00  0.00    +0.000 C 
ATOM     16  C   UNL     1       2.401   7.449  18.555  0.00  0.00    +0.000 A 
ATOM     17  C   UNL     1       2.898   6.290  17.941  0.00  0.00    +0.000 A 
ATOM     18  C   UNL     1       2.797   5.066  18.595  0.00  0.00    +0.000 A 
ATOM     19  C   UNL     1       2.257   5.024  19.870  0.00  0.00    +0.000 A 
ATOM     20  C   UNL     1       1.839   6.201  20.514  0.00  0.00    +0.000 A 
ATOM     21  C   UNL     1       1.879   7.450  19.869  0.00  0.00    +0.000 A 
BRANCH  11  23
ATOM     22  C   UNL     1      -0.602   8.595  21.910  0.00  0.00    +0.000 C 
ATOM     23  C   UNL     1       0.922   8.579  21.845  0.00  0.00    +0.000 C 
ENDBRANCH  11  23
ENDBRANCH   1  13
BRANCH   6  24
ATOM     24  O   UNL     1       1.699  18.019  20.401  0.00  0.00    +0.000 OA
ATOM     25  C   UNL     1       3.053  17.789  20.843  0.00  0.00    +0.000 C 
ENDBRANCH   6  24
BRANCH  10  26
ATOM     26  C   UNL     1      -1.085  12.315  18.305  0.00  0.00    +0.000 C 
ATOM     27  C   UNL     1      -2.283  12.010  19.221  0.00  0.00    +0.000 C 
ENDBRANCH  10  26
TORSDOF 4
ENDMDL
MODEL 7
REMARK VINA RESULT:      -6.6      3.197      8.045
REMARK  Name = 
REMARK  7 active torsions:
REMARK  status: ('A' for Active; 'I' for Inactive)
REMARK    1  A    between atoms: C_1  and  C_2
REMARK    2  A    between atoms: C_2  and  N_3
REMARK    3  A    between atoms: C_5  and  C_6
REMARK    4  A    between atoms: C_11  and  O_12
REMARK    5  A    between atoms: O_12  and  C_13
REMARK    6  A    between atoms: N_17  and  C_18
REMARK    7  A    between atoms: C_18  and  C_19
REMARK                            x       y       z     vdW  Elec       q    Type
REMARK                         _______ _______ _______ _____ _____    ______ ____
ROOT
ATOM      1  C   UNL     1       1.174   9.268  19.210  0.00  0.00    +0.000 A 
ATOM      2  C   UNL     1       0.221   9.647  18.265  0.00  0.00    +0.000 A 
ATOM      3  C   UNL     1      -0.937  10.210  18.730  0.00  0.00    +0.000 A 
ATOM      4  C   UNL     1      -0.579  11.314  19.422  0.00  0.00    +0.000 A 
ATOM      5  C   UNL     1      -0.996  12.496  18.855  0.00  0.00    +0.000 A 
ATOM      6  C   UNL     1      -0.225  13.619  19.059  0.00  0.00    +0.000 A 
ATOM      7  C   UNL     1       0.761  13.600  20.056  0.00  0.00    +0.000 A 
ATOM      8  C   UNL     1       1.101  12.396  20.743  0.00  0.00    +0.000 A 
ATOM      9  C   UNL     1       0.493  11.200  20.348  0.00  0.00    +0.000 A 
ATOM     10  N   UNL     1       1.096   9.950  20.403  0.00  0.00    +0.000 N 
ENDROOT
BRANCH   1  13
ATOM     11  N   UNL     1       3.479   6.153  18.999  0.00  0.00    +0.000 N 
ATOM     12  C   UNL     1       2.432   7.048  19.368  0.00  0.00    +0.000 C 
ATOM     13  C   UNL     1       2.272   8.320  18.900  0.00  0.00    +0.000 C 
ATOM     14  C   UNL     1       1.449   6.510  20.317  0.00  0.00    +0.000 C 
ATOM     15  C   UNL     1       1.310   5.216  20.603  0.00  0.00    +0.000 C 
ATOM     16  C   UNL     1       2.322   4.291  20.141  0.00  0.00    +0.000 A 
ATOM     17  C   UNL     1       2.220   2.957  20.563  0.00  0.00    +0.000 A 
ATOM     18  C   UNL     1       3.285   2.086  20.360  0.00  0.00    +0.000 A 
ATOM     19  C   UNL     1       4.410   2.539  19.691  0.00  0.00    +0.000 A 
ATOM     20  C   UNL     1       4.473   3.853  19.196  0.00  0.00    +0.000 A 
ATOM     21  C   UNL     1       3.438   4.777  19.421  0.00  0.00    +0.000 A 
BRANCH  11  23
ATOM     22  C   UNL     1       4.425   6.350  16.719  0.00  0.00    +0.000 C 
ATOM     23  C   UNL     1       4.662   6.549  18.213  0.00  0.00    +0.000 C 
ENDBRANCH  11  23
ENDBRANCH   1  13
BRANCH   6  24
ATOM     24  O   UNL     1      -0.306  14.713  18.231  0.00  0.00    +0.000 OA
ATOM     25  C   UNL     1      -0.279  15.994  18.894  0.00  0.00    +0.000 C 
ENDBRANCH   6  24
BRANCH  10  26
ATOM     26  C   UNL     1       1.190   9.188  21.684  0.00  0.00    +0.000 C 
ATOM     27  C   UNL     1      -0.135   9.262  22.461  0.00  0.00    +0.000 C 
ENDBRANCH  10  26
TORSDOF 4
ENDMDL
MODEL 8
REMARK VINA RESULT:      -6.5      1.430      2.765
REMARK  Name = 
REMARK  7 active torsions:
REMARK  status: ('A' for Active; 'I' for Inactive)
REMARK    1  A    between atoms: C_1  and  C_2
REMARK    2  A    between atoms: C_2  and  N_3
REMARK    3  A    between atoms: C_5  and  C_6
REMARK    4  A    between atoms: C_11  and  O_12
REMARK    5  A    between atoms: O_12  and  C_13
REMARK    6  A    between atoms: N_17  and  C_18
REMARK    7  A    between atoms: C_18  and  C_19
REMARK                            x       y       z     vdW  Elec       q    Type
REMARK                         _______ _______ _______ _____ _____    ______ ____
ROOT
ATOM      1  C   UNL     1       2.448   5.676  20.145  0.00  0.00    +0.000 A 
ATOM      2  C   UNL     1       3.794   5.940  19.892  0.00  0.00    +0.000 A 
ATOM      3  C   UNL     1       4.631   4.865  19.754  0.00  0.00    +0.000 A 
ATOM      4  C   UNL     1       4.152   4.133  18.724  0.00  0.00    +0.000 A 
ATOM      5  C   UNL     1       4.979   4.095  17.626  0.00  0.00    +0.000 A 
ATOM      6  C   UNL     1       4.399   3.958  16.383  0.00  0.00    +0.000 A 
ATOM      7  C   UNL     1       3.056   3.565  16.294  0.00  0.00    +0.000 A 
ATOM      8  C   UNL     1       2.231   3.472  17.455  0.00  0.00    +0.000 A 
ATOM      9  C   UNL     1       2.756   3.865  18.690  0.00  0.00    +0.000 A 
ATOM     10  N   UNL     1       2.019   4.440  19.718  0.00  0.00    +0.000 N 
ENDROOT
BRANCH   1  13
ATOM     11  N   UNL     1       0.351   8.888  20.736  0.00  0.00    +0.000 N 
ATOM     12  C   UNL     1       1.293   7.955  20.208  0.00  0.00    +0.000 C 
ATOM     13  C   UNL     1       1.523   6.699  20.690  0.00  0.00    +0.000 C 
ATOM     14  C   UNL     1       2.042   8.415  19.032  0.00  0.00    +0.000 C 
ATOM     15  C   UNL     1       1.703   9.467  18.288  0.00  0.00    +0.000 C 
ATOM     16  C   UNL     1       0.674  10.359  18.776  0.00  0.00    +0.000 A 
ATOM     17  C   UNL     1       0.426  11.525  18.037  0.00  0.00    +0.000 A 
ATOM     18  C   UNL     1      -0.365  12.532  18.583  0.00  0.00    +0.000 A 
ATOM     19  C   UNL     1      -0.942  12.338  19.827  0.00  0.00    +0.000 A 
ATOM     20  C   UNL     1      -0.758  11.134  20.526  0.00  0.00    +0.000 A 
ATOM     21  C   UNL     1       0.072  10.112  20.031  0.00  0.00    +0.000 A 
BRANCH  11  23
ATOM     22  C   UNL     1       0.363   9.394  23.160  0.00  0.00    +0.000 C 
ATOM     23  C   UNL     1      -0.365   8.703  22.012  0.00  0.00    +0.000 C 
ENDBRANCH  11  23
ENDBRANCH   1  13
BRANCH   6  24
ATOM     24  O   UNL     1       5.059   4.318  15.232  0.00  0.00    +0.000 OA
ATOM     25  C   UNL     1       6.498   4.349  15.329  0.00  0.00    +0.000 C 
ENDBRANCH   6  24
BRANCH  10  26
ATOM     26  C   UNL     1       1.172   3.610  20.624  0.00  0.00    +0.000 C 
ATOM     27  C   UNL     1       2.034   2.914  21.692  0.00  0.00    +0.000 C 
ENDBRANCH  10  26
TORSDOF 4
ENDMDL
MODEL 9
REMARK VINA RESULT:      -6.5      3.131      8.155
REMARK  Name = 
REMARK  7 active torsions:
REMARK  status: ('A' for Active; 'I' for Inactive)
REMARK    1  A    between atoms: C_1  and  C_2
REMARK    2  A    between atoms: C_2  and  N_3
REMARK    3  A    between atoms: C_5  and  C_6
REMARK    4  A    between atoms: C_11  and  O_12
REMARK    5  A    between atoms: O_12  and  C_13
REMARK    6  A    between atoms: N_17  and  C_18
REMARK    7  A    between atoms: C_18  and  C_19
REMARK                            x       y       z     vdW  Elec       q    Type
REMARK                         _______ _______ _______ _____ _____    ______ ____
ROOT
ATOM      1  C   UNL     1       1.377   9.087  18.642  0.00  0.00    +0.000 A 
ATOM      2  C   UNL     1       0.448   9.573  17.723  0.00  0.00    +0.000 A 
ATOM      3  C   UNL     1      -0.742  10.036  18.216  0.00  0.00    +0.000 A 
ATOM      4  C   UNL     1      -0.441  11.039  19.070  0.00  0.00    +0.000 A 
ATOM      5  C   UNL     1      -0.873  12.279  18.660  0.00  0.00    +0.000 A 
ATOM      6  C   UNL     1      -0.143  13.380  19.050  0.00  0.00    +0.000 A 
ATOM      7  C   UNL     1       0.807  13.244  20.072  0.00  0.00    +0.000 A 
ATOM      8  C   UNL     1       1.157  11.964  20.596  0.00  0.00    +0.000 A 
ATOM      9  C   UNL     1       0.599  10.821  20.013  0.00  0.00    +0.000 A 
ATOM     10  N   UNL     1       1.237   9.590  19.915  0.00  0.00    +0.000 N 
ENDROOT
BRANCH   1  13
ATOM     11  N   UNL     1       3.693   6.063  17.896  0.00  0.00    +0.000 N 
ATOM     12  C   UNL     1       2.597   6.861  18.341  0.00  0.00    +0.000 C 
ATOM     13  C   UNL     1       2.514   8.220  18.246  0.00  0.00    +0.000 C 
ATOM     14  C   UNL     1       1.474   6.117  18.924  0.00  0.00    +0.000 C 
ATOM     15  C   UNL     1       1.292   4.804  18.794  0.00  0.00    +0.000 C 
ATOM     16  C   UNL     1       2.368   4.006  18.248  0.00  0.00    +0.000 A 
ATOM     17  C   UNL     1       2.201   2.613  18.240  0.00  0.00    +0.000 A 
ATOM     18  C   UNL     1       3.287   1.789  17.962  0.00  0.00    +0.000 A 
ATOM     19  C   UNL     1       4.506   2.364  17.640  0.00  0.00    +0.000 A 
ATOM     20  C   UNL     1       4.646   3.760  17.566  0.00  0.00    +0.000 A 
ATOM     21  C   UNL     1       3.586   4.627  17.886  0.00  0.00    +0.000 A 
BRANCH  11  23
ATOM     22  C   UNL     1       5.053   6.724  15.935  0.00  0.00    +0.000 C 
ATOM     23  C   UNL     1       4.988   6.614  17.455  0.00  0.00    +0.000 C 
ENDBRANCH  11  23
ENDBRANCH   1  13
BRANCH   6  24
ATOM     24  O   UNL     1      -0.227  14.579  18.382  0.00  0.00    +0.000 OA
ATOM     25  C   UNL     1      -0.317  15.749  19.220  0.00  0.00    +0.000 C 
ENDBRANCH   6  24
BRANCH  10  26
ATOM     26  C   UNL     1       1.307   8.658  21.079  0.00  0.00    +0.000 C 
ATOM     27  C   UNL     1      -0.068   8.524  21.755  0.00  0.00    +0.000 C 
ENDBRANCH  10  26
TORSDOF 4
ENDMDL
