MODEL 1
REMARK VINA RESULT:      -8.7      0.000      0.000
REMARK  Name = 
REMARK  8 active torsions:
REMARK  status: ('A' for Active; 'I' for Inactive)
REMARK    1  A    between atoms: C_2  and  O_3
REMARK    2  A    between atoms: C_2  and  C_4
REMARK    3  A    between atoms: C_7  and  S_8
REMARK    4  A    between atoms: S_8  and  N_11
REMARK    5  A    between atoms: N_11  and  C_12
REMARK    6  A    between atoms: N_11  and  C_19
REMARK    7  A    between atoms: C_12  and  C_13
REMARK    8  A    between atoms: C_22  and  C_23
REMARK                            x       y       z     vdW  Elec       q    Type
REMARK                         _______ _______ _______ _____ _____    ______ ____
ROOT
ATOM      1  N   UNL     1       4.240   5.052  18.597  0.00  0.00    +0.000 N 
ENDROOT
BRANCH   1   2
ATOM      2  C   UNL     1       3.434   6.231  18.607  0.00  0.00    +0.000 A 
ATOM      3  N   UNL     1       3.492   7.002  17.502  0.00  0.00    +0.000 NA
ATOM      4  C   UNL     1       2.774   8.159  17.519  0.00  0.00    +0.000 A 
ATOM      5  C   UNL     1       1.979   8.575  18.584  0.00  0.00    +0.000 A 
ATOM      6  C   UNL     1       1.924   7.737  19.704  0.00  0.00    +0.000 A 
ATOM      7  C   UNL     1       2.670   6.564  19.722  0.00  0.00    +0.000 A 
ATOM      8  F   UNL     1       2.617   5.766  20.796  0.00  0.00    +0.000 F 
BRANCH   5   9
ATOM      9  C   UNL     1       1.218   9.867  18.526  0.00  0.00    +0.000 C 
ATOM     10  F   UNL     1       1.961  10.904  18.037  0.00  0.00    +0.000 F 
ATOM     11  F   UNL     1       0.121   9.782  17.735  0.00  0.00    +0.000 F 
ATOM     12  F   UNL     1       0.781  10.259  19.753  0.00  0.00    +0.000 F 
ENDBRANCH   5   9
ENDBRANCH   1   2
BRANCH   1  13
ATOM     13  S   UNL     1       5.823   5.326  18.042  0.00  0.00    +0.000 S 
ATOM     14  O   UNL     1       6.654   4.318  18.668  0.00  0.00    +0.000 OA
ATOM     15  O   UNL     1       6.163   6.725  18.187  0.00  0.00    +0.000 OA
BRANCH  13  19
ATOM     16  C   UNL     1       6.516   4.174  13.622  0.00  0.00    +0.000 A 
ATOM     17  C   UNL     1       5.251   3.965  14.189  0.00  0.00    +0.000 A 
ATOM     18  C   UNL     1       4.966   4.358  15.510  0.00  0.00    +0.000 A 
ATOM     19  C   UNL     1       5.960   4.965  16.276  0.00  0.00    +0.000 A 
ATOM     20  C   UNL     1       7.202   5.255  15.677  0.00  0.00    +0.000 A 
ATOM     21  C   UNL     1       7.482   4.863  14.361  0.00  0.00    +0.000 A 
BRANCH  16  23
ATOM     22  O   UNL     1       7.366   4.341  11.405  0.00  0.00    +0.000 OA
ATOM     23  C   UNL     1       6.775   3.676  12.241  0.00  0.00    +0.000 C 
BRANCH  23  24
ATOM     24  O   UNL     1       6.247   2.462  11.967  0.00  0.00    +0.000 OA
ATOM     25  H   UNL     1       5.293   2.441  11.778  0.00  0.00    +0.000 HD
ENDBRANCH  23  24
ENDBRANCH  16  23
ENDBRANCH  13  19
ENDBRANCH   1  13
BRANCH   1  26
ATOM     26  C   UNL     1       3.546   3.806  18.234  0.00  0.00    +0.000 C 
BRANCH  26  27
ATOM     27  C   UNL     1       2.694   3.033  19.234  0.00  0.00    +0.000 A 
ATOM     28  C   UNL     1       3.338   2.583  20.406  0.00  0.00    +0.000 A 
ATOM     29  C   UNL     1       2.638   2.475  21.608  0.00  0.00    +0.000 A 
ATOM     30  C   UNL     1       1.276   2.745  21.641  0.00  0.00    +0.000 A 
ATOM     31  C   UNL     1       0.596   2.998  20.451  0.00  0.00    +0.000 A 
ATOM     32  C   UNL     1       1.297   3.118  19.243  0.00  0.00    +0.000 A 
ENDBRANCH  26  27
ENDBRANCH   1  26
TORSDOF 8
ENDMDL
MODEL 2
REMARK VINA RESULT:      -8.4      0.298      1.128
REMARK  Name = 
REMARK  8 active torsions:
REMARK  status: ('A' for Active; 'I' for Inactive)
REMARK    1  A    between atoms: C_2  and  O_3
REMARK    2  A    between atoms: C_2  and  C_4
REMARK    3  A    between atoms: C_7  and  S_8
REMARK    4  A    between atoms: S_8  and  N_11
REMARK    5  A    between atoms: N_11  and  C_12
REMARK    6  A    between atoms: N_11  and  C_19
REMARK    7  A    between atoms: C_12  and  C_13
REMARK    8  A    between atoms: C_22  and  C_23
REMARK                            x       y       z     vdW  Elec       q    Type
REMARK                         _______ _______ _______ _____ _____    ______ ____
ROOT
ATOM      1  N   UNL     1       4.368   5.067  18.679  0.00  0.00    +0.000 N 
ENDROOT
BRANCH   1   2
ATOM      2  C   UNL     1       3.521   6.217  18.649  0.00  0.00    +0.000 A 
ATOM      3  N   UNL     1       3.575   6.967  17.530  0.00  0.00    +0.000 NA
ATOM      4  C   UNL     1       2.816   8.097  17.507  0.00  0.00    +0.000 A 
ATOM      5  C   UNL     1       1.984   8.505  18.547  0.00  0.00    +0.000 A 
ATOM      6  C   UNL     1       1.934   7.688  19.682  0.00  0.00    +0.000 A 
ATOM      7  C   UNL     1       2.721   6.544  19.740  0.00  0.00    +0.000 A 
ATOM      8  F   UNL     1       2.674   5.766  20.829  0.00  0.00    +0.000 F 
BRANCH   5   9
ATOM      9  C   UNL     1       1.178   9.768  18.446  0.00  0.00    +0.000 C 
ATOM     10  F   UNL     1       0.120   9.659  17.589  0.00  0.00    +0.000 F 
ATOM     11  F   UNL     1       0.661  10.143  19.641  0.00  0.00    +0.000 F 
ATOM     12  F   UNL     1       1.922  10.815  17.999  0.00  0.00    +0.000 F 
ENDBRANCH   5   9
ENDBRANCH   1   2
BRANCH   1  13
ATOM     13  S   UNL     1       5.961   5.395  18.185  0.00  0.00    +0.000 S 
ATOM     14  O   UNL     1       6.820   4.559  18.998  0.00  0.00    +0.000 OA
ATOM     15  O   UNL     1       6.184   6.825  18.146  0.00  0.00    +0.000 OA
BRANCH  13  19
ATOM     16  C   UNL     1       6.326   4.059  13.778  0.00  0.00    +0.000 A 
ATOM     17  C   UNL     1       7.388   4.762  14.365  0.00  0.00    +0.000 A 
ATOM     18  C   UNL     1       7.357   5.136  15.722  0.00  0.00    +0.000 A 
ATOM     19  C   UNL     1       6.249   4.804  16.501  0.00  0.00    +0.000 A 
ATOM     20  C   UNL     1       5.225   4.021  15.934  0.00  0.00    +0.000 A 
ATOM     21  C   UNL     1       5.259   3.650  14.583  0.00  0.00    +0.000 A 
BRANCH  16  23
ATOM     22  O   UNL     1       7.269   4.186  11.596  0.00  0.00    +0.000 OA
ATOM     23  C   UNL     1       6.389   3.749  12.320  0.00  0.00    +0.000 C 
BRANCH  23  24
ATOM     24  O   UNL     1       5.363   3.004  11.853  0.00  0.00    +0.000 OA
ATOM     25  H   UNL     1       5.580   2.361  11.157  0.00  0.00    +0.000 HD
ENDBRANCH  23  24
ENDBRANCH  16  23
ENDBRANCH  13  19
ENDBRANCH   1  13
BRANCH   1  26
ATOM     26  C   UNL     1       3.734   3.795  18.300  0.00  0.00    +0.000 C 
BRANCH  26  27
ATOM     27  C   UNL     1       2.805   3.040  19.244  0.00  0.00    +0.000 A 
ATOM     28  C   UNL     1       3.362   2.583  20.456  0.00  0.00    +0.000 A 
ATOM     29  C   UNL     1       2.583   2.491  21.610  0.00  0.00    +0.000 A 
ATOM     30  C   UNL     1       1.227   2.786  21.552  0.00  0.00    +0.000 A 
ATOM     31  C   UNL     1       0.631   3.047  20.320  0.00  0.00    +0.000 A 
ATOM     32  C   UNL     1       1.413   3.150  19.161  0.00  0.00    +0.000 A 
ENDBRANCH  26  27
ENDBRANCH   1  26
TORSDOF 8
ENDMDL
MODEL 3
REMARK VINA RESULT:      -8.2      2.888      6.389
REMARK  Name = 
REMARK  8 active torsions:
REMARK  status: ('A' for Active; 'I' for Inactive)
REMARK    1  A    between atoms: C_2  and  O_3
REMARK    2  A    between atoms: C_2  and  C_4
REMARK    3  A    between atoms: C_7  and  S_8
REMARK    4  A    between atoms: S_8  and  N_11
REMARK    5  A    between atoms: N_11  and  C_12
REMARK    6  A    between atoms: N_11  and  C_19
REMARK    7  A    between atoms: C_12  and  C_13
REMARK    8  A    between atoms: C_22  and  C_23
REMARK                            x       y       z     vdW  Elec       q    Type
REMARK                         _______ _______ _______ _____ _____    ______ ____
ROOT
ATOM      1  N   UNL     1       5.706   4.370  17.035  0.00  0.00    +0.000 N 
ENDROOT
BRANCH   1   2
ATOM      2  C   UNL     1       4.534   4.327  17.851  0.00  0.00    +0.000 A 
ATOM      3  N   UNL     1       4.192   5.478  18.464  0.00  0.00    +0.000 NA
ATOM      4  C   UNL     1       3.111   5.440  19.290  0.00  0.00    +0.000 A 
ATOM      5  C   UNL     1       2.337   4.305  19.519  0.00  0.00    +0.000 A 
ATOM      6  C   UNL     1       2.707   3.134  18.847  0.00  0.00    +0.000 A 
ATOM      7  C   UNL     1       3.824   3.141  18.019  0.00  0.00    +0.000 A 
ATOM      8  F   UNL     1       4.178   2.019  17.380  0.00  0.00    +0.000 F 
BRANCH   5   9
ATOM      9  C   UNL     1       1.159   4.343  20.448  0.00  0.00    +0.000 C 
ATOM     10  F   UNL     1       0.780   5.613  20.779  0.00  0.00    +0.000 F 
ATOM     11  F   UNL     1       0.065   3.748  19.915  0.00  0.00    +0.000 F 
ATOM     12  F   UNL     1       1.413   3.705  21.623  0.00  0.00    +0.000 F 
ENDBRANCH   5   9
ENDBRANCH   1   2
BRANCH   1  13
ATOM     13  S   UNL     1       7.122   4.706  17.913  0.00  0.00    +0.000 S 
ATOM     14  O   UNL     1       8.224   4.214  17.111  0.00  0.00    +0.000 OA
ATOM     15  O   UNL     1       6.976   4.257  19.281  0.00  0.00    +0.000 OA
BRANCH  13  19
ATOM     16  C   UNL     1       8.287   9.172  18.114  0.00  0.00    +0.000 A 
ATOM     17  C   UNL     1       7.310   8.765  17.193  0.00  0.00    +0.000 A 
ATOM     18  C   UNL     1       6.871   7.429  17.135  0.00  0.00    +0.000 A 
ATOM     19  C   UNL     1       7.417   6.487  18.006  0.00  0.00    +0.000 A 
ATOM     20  C   UNL     1       8.331   6.915  18.989  0.00  0.00    +0.000 A 
ATOM     21  C   UNL     1       8.766   8.246  19.045  0.00  0.00    +0.000 A 
BRANCH  16  23
ATOM     22  O   UNL     1       9.770  10.953  18.655  0.00  0.00    +0.000 OA
ATOM     23  C   UNL     1       8.757  10.587  18.082  0.00  0.00    +0.000 C 
BRANCH  23  24
ATOM     24  O   UNL     1       7.941  11.442  17.425  0.00  0.00    +0.000 OA
ATOM     25  H   UNL     1       6.991  11.233  17.450  0.00  0.00    +0.000 HD
ENDBRANCH  23  24
ENDBRANCH  16  23
ENDBRANCH  13  19
ENDBRANCH   1  13
BRANCH   1  26
ATOM     26  C   UNL     1       5.528   4.941  15.691  0.00  0.00    +0.000 C 
BRANCH  26  27
ATOM     27  C   UNL     1       6.358   4.480  14.499  0.00  0.00    +0.000 A 
ATOM     28  C   UNL     1       5.766   3.535  13.636  0.00  0.00    +0.000 A 
ATOM     29  C   UNL     1       6.070   3.521  12.275  0.00  0.00    +0.000 A 
ATOM     30  C   UNL     1       7.019   4.402  11.771  0.00  0.00    +0.000 A 
ATOM     31  C   UNL     1       7.749   5.202  12.647  0.00  0.00    +0.000 A 
ATOM     32  C   UNL     1       7.439   5.225  14.014  0.00  0.00    +0.000 A 
ENDBRANCH  26  27
ENDBRANCH   1  26
TORSDOF 8
ENDMDL
MODEL 4
REMARK VINA RESULT:      -8.1      4.001      6.979
REMARK  Name = 
REMARK  8 active torsions:
REMARK  status: ('A' for Active; 'I' for Inactive)
REMARK    1  A    between atoms: C_2  and  O_3
REMARK    2  A    between atoms: C_2  and  C_4
REMARK    3  A    between atoms: C_7  and  S_8
REMARK    4  A    between atoms: S_8  and  N_11
REMARK    5  A    between atoms: N_11  and  C_12
REMARK    6  A    between atoms: N_11  and  C_19
REMARK    7  A    between atoms: C_12  and  C_13
REMARK    8  A    between atoms: C_22  and  C_23
REMARK                            x       y       z     vdW  Elec       q    Type
REMARK                         _______ _______ _______ _____ _____    ______ ____
ROOT
ATOM      1  N   UNL     1       4.603   4.429  17.482  0.00  0.00    +0.000 N 
ENDROOT
BRANCH   1   2
ATOM      2  C   UNL     1       5.199   4.331  16.187  0.00  0.00    +0.000 A 
ATOM      3  N   UNL     1       4.352   4.361  15.138  0.00  0.00    +0.000 NA
ATOM      4  C   UNL     1       4.899   4.212  13.900  0.00  0.00    +0.000 A 
ATOM      5  C   UNL     1       6.261   4.054  13.656  0.00  0.00    +0.000 A 
ATOM      6  C   UNL     1       7.112   4.052  14.768  0.00  0.00    +0.000 A 
ATOM      7  C   UNL     1       6.575   4.175  16.044  0.00  0.00    +0.000 A 
ATOM      8  F   UNL     1       7.391   4.170  17.105  0.00  0.00    +0.000 F 
BRANCH   5   9
ATOM      9  C   UNL     1       6.786   3.893  12.259  0.00  0.00    +0.000 C 
ATOM     10  F   UNL     1       5.806   3.953  11.310  0.00  0.00    +0.000 F 
ATOM     11  F   UNL     1       7.686   4.852  11.935  0.00  0.00    +0.000 F 
ATOM     12  F   UNL     1       7.412   2.698  12.083  0.00  0.00    +0.000 F 
ENDBRANCH   5   9
ENDBRANCH   1   2
BRANCH   1  13
ATOM     13  S   UNL     1       4.998   5.870  18.294  0.00  0.00    +0.000 S 
ATOM     14  O   UNL     1       5.727   6.685  17.345  0.00  0.00    +0.000 OA
ATOM     15  O   UNL     1       5.588   5.568  19.580  0.00  0.00    +0.000 OA
BRANCH  13  19
ATOM     16  C   UNL     1       1.381   8.447  19.567  0.00  0.00    +0.000 A 
ATOM     17  C   UNL     1       1.979   8.683  18.320  0.00  0.00    +0.000 A 
ATOM     18  C   UNL     1       3.041   7.885  17.855  0.00  0.00    +0.000 A 
ATOM     19  C   UNL     1       3.513   6.839  18.647  0.00  0.00    +0.000 A 
ATOM     20  C   UNL     1       2.855   6.548  19.858  0.00  0.00    +0.000 A 
ATOM     21  C   UNL     1       1.797   7.344  20.318  0.00  0.00    +0.000 A 
BRANCH  16  23
ATOM     22  O   UNL     1      -0.081  10.315  19.364  0.00  0.00    +0.000 OA
ATOM     23  C   UNL     1       0.305   9.368  20.031  0.00  0.00    +0.000 C 
BRANCH  23  24
ATOM     24  O   UNL     1      -0.163   9.114  21.274  0.00  0.00    +0.000 OA
ATOM     25  H   UNL     1       0.169   9.688  21.985  0.00  0.00    +0.000 HD
ENDBRANCH  23  24
ENDBRANCH  16  23
ENDBRANCH  13  19
ENDBRANCH   1  13
BRANCH   1  26
ATOM     26  C   UNL     1       4.503   3.170  18.237  0.00  0.00    +0.000 C 
BRANCH  26  27
ATOM     27  C   UNL     1       3.263   2.810  19.048  0.00  0.00    +0.000 A 
ATOM     28  C   UNL     1       3.434   2.657  20.439  0.00  0.00    +0.000 A 
ATOM     29  C   UNL     1       2.403   2.973  21.325  0.00  0.00    +0.000 A 
ATOM     30  C   UNL     1       1.169   3.378  20.831  0.00  0.00    +0.000 A 
ATOM     31  C   UNL     1       0.932   3.342  19.458  0.00  0.00    +0.000 A 
ATOM     32  C   UNL     1       1.969   3.035  18.566  0.00  0.00    +0.000 A 
ENDBRANCH  26  27
ENDBRANCH   1  26
TORSDOF 8
ENDMDL
MODEL 5
REMARK VINA RESULT:      -8.1      0.948      1.035
REMARK  Name = 
REMARK  8 active torsions:
REMARK  status: ('A' for Active; 'I' for Inactive)
REMARK    1  A    between atoms: C_2  and  O_3
REMARK    2  A    between atoms: C_2  and  C_4
REMARK    3  A    between atoms: C_7  and  S_8
REMARK    4  A    between atoms: S_8  and  N_11
REMARK    5  A    between atoms: N_11  and  C_12
REMARK    6  A    between atoms: N_11  and  C_19
REMARK    7  A    between atoms: C_12  and  C_13
REMARK    8  A    between atoms: C_22  and  C_23
REMARK                            x       y       z     vdW  Elec       q    Type
REMARK                         _______ _______ _______ _____ _____    ______ ____
ROOT
ATOM      1  N   UNL     1       3.602   5.789  18.610  0.00  0.00    +0.000 N 
ENDROOT
BRANCH   1   2
ATOM      2  C   UNL     1       2.824   6.979  18.749  0.00  0.00    +0.000 A 
ATOM      3  N   UNL     1       2.861   7.840  17.711  0.00  0.00    +0.000 NA
ATOM      4  C   UNL     1       2.171   9.005  17.851  0.00  0.00    +0.000 A 
ATOM      5  C   UNL     1       1.422   9.344  18.975  0.00  0.00    +0.000 A 
ATOM      6  C   UNL     1       1.386   8.415  20.022  0.00  0.00    +0.000 A 
ATOM      7  C   UNL     1       2.106   7.231  19.914  0.00  0.00    +0.000 A 
ATOM      8  F   UNL     1       2.072   6.346  20.918  0.00  0.00    +0.000 F 
BRANCH   5   9
ATOM      9  C   UNL     1       0.689  10.651  19.053  0.00  0.00    +0.000 C 
ATOM     10  F   UNL     1       1.262  11.632  18.294  0.00  0.00    +0.000 F 
ATOM     11  F   UNL     1      -0.594  10.547  18.631  0.00  0.00    +0.000 F 
ATOM     12  F   UNL     1       0.640  11.135  20.324  0.00  0.00    +0.000 F 
ENDBRANCH   5   9
ENDBRANCH   1   2
BRANCH   1  13
ATOM     13  S   UNL     1       5.174   6.080  18.032  0.00  0.00    +0.000 S 
ATOM     14  O   UNL     1       6.075   5.415  18.952  0.00  0.00    +0.000 OA
ATOM     15  O   UNL     1       5.348   7.489  17.754  0.00  0.00    +0.000 OA
BRANCH  13  19
ATOM     16  C   UNL     1       6.145   4.223  13.915  0.00  0.00    +0.000 A 
ATOM     17  C   UNL     1       6.290   3.436  15.067  0.00  0.00    +0.000 A 
ATOM     18  C   UNL     1       5.946   3.930  16.339  0.00  0.00    +0.000 A 
ATOM     19  C   UNL     1       5.453   5.229  16.462  0.00  0.00    +0.000 A 
ATOM     20  C   UNL     1       5.224   5.985  15.296  0.00  0.00    +0.000 A 
ATOM     21  C   UNL     1       5.567   5.490  14.031  0.00  0.00    +0.000 A 
BRANCH  16  23
ATOM     22  O   UNL     1       7.314   4.282  11.843  0.00  0.00    +0.000 OA
ATOM     23  C   UNL     1       6.588   3.665  12.605  0.00  0.00    +0.000 C 
BRANCH  23  24
ATOM     24  O   UNL     1       6.071   2.454  12.300  0.00  0.00    +0.000 OA
ATOM     25  H   UNL     1       5.210   2.456  11.847  0.00  0.00    +0.000 HD
ENDBRANCH  23  24
ENDBRANCH  16  23
ENDBRANCH  13  19
ENDBRANCH   1  13
BRANCH   1  26
ATOM     26  C   UNL     1       2.870   4.595  18.161  0.00  0.00    +0.000 C 
BRANCH  26  27
ATOM     27  C   UNL     1       2.390   3.526  19.136  0.00  0.00    +0.000 A 
ATOM     28  C   UNL     1       3.355   2.973  20.003  0.00  0.00    +0.000 A 
ATOM     29  C   UNL     1       3.002   2.535  21.280  0.00  0.00    +0.000 A 
ATOM     30  C   UNL     1       1.673   2.579  21.681  0.00  0.00    +0.000 A 
ATOM     31  C   UNL     1       0.688   2.938  20.762  0.00  0.00    +0.000 A 
ATOM     32  C   UNL     1       1.041   3.388  19.482  0.00  0.00    +0.000 A 
ENDBRANCH  26  27
ENDBRANCH   1  26
TORSDOF 8
ENDMDL
MODEL 6
REMARK VINA RESULT:      -8.0      1.063      1.623
REMARK  Name = 
REMARK  8 active torsions:
REMARK  status: ('A' for Active; 'I' for Inactive)
REMARK    1  A    between atoms: C_2  and  O_3
REMARK    2  A    between atoms: C_2  and  C_4
REMARK    3  A    between atoms: C_7  and  S_8
REMARK    4  A    between atoms: S_8  and  N_11
REMARK    5  A    between atoms: N_11  and  C_12
REMARK    6  A    between atoms: N_11  and  C_19
REMARK    7  A    between atoms: C_12  and  C_13
REMARK    8  A    between atoms: C_22  and  C_23
REMARK                            x       y       z     vdW  Elec       q    Type
REMARK                         _______ _______ _______ _____ _____    ______ ____
ROOT
ATOM      1  N   UNL     1       4.427   5.137  18.740  0.00  0.00    +0.000 N 
ENDROOT
BRANCH   1   2
ATOM      2  C   UNL     1       3.597   6.300  18.715  0.00  0.00    +0.000 A 
ATOM      3  N   UNL     1       2.959   6.601  19.864  0.00  0.00    +0.000 NA
ATOM      4  C   UNL     1       2.120   7.673  19.841  0.00  0.00    +0.000 A 
ATOM      5  C   UNL     1       1.903   8.476  18.725  0.00  0.00    +0.000 A 
ATOM      6  C   UNL     1       2.601   8.149  17.557  0.00  0.00    +0.000 A 
ATOM      7  C   UNL     1       3.442   7.042  17.547  0.00  0.00    +0.000 A 
ATOM      8  F   UNL     1       4.107   6.729  16.428  0.00  0.00    +0.000 F 
BRANCH   5   9
ATOM      9  C   UNL     1       0.959   9.642  18.779  0.00  0.00    +0.000 C 
ATOM     10  F   UNL     1       0.155   9.731  17.679  0.00  0.00    +0.000 F 
ATOM     11  F   UNL     1       0.130   9.582  19.849  0.00  0.00    +0.000 F 
ATOM     12  F   UNL     1       1.617  10.830  18.865  0.00  0.00    +0.000 F 
ENDBRANCH   5   9
ENDBRANCH   1   2
BRANCH   1  13
ATOM     13  S   UNL     1       6.035   5.452  18.287  0.00  0.00    +0.000 S 
ATOM     14  O   UNL     1       6.865   4.598  19.112  0.00  0.00    +0.000 OA
ATOM     15  O   UNL     1       6.274   6.879  18.266  0.00  0.00    +0.000 OA
BRANCH  13  19
ATOM     16  C   UNL     1       6.456   4.067  13.899  0.00  0.00    +0.000 A 
ATOM     17  C   UNL     1       7.388   4.979  14.417  0.00  0.00    +0.000 A 
ATOM     18  C   UNL     1       7.345   5.384  15.764  0.00  0.00    +0.000 A 
ATOM     19  C   UNL     1       6.357   4.872  16.605  0.00  0.00    +0.000 A 
ATOM     20  C   UNL     1       5.479   3.890  16.108  0.00  0.00    +0.000 A 
ATOM     21  C   UNL     1       5.524   3.489  14.765  0.00  0.00    +0.000 A 
BRANCH  16  23
ATOM     22  O   UNL     1       7.284   4.279  11.678  0.00  0.00    +0.000 OA
ATOM     23  C   UNL     1       6.514   3.728  12.448  0.00  0.00    +0.000 C 
BRANCH  23  24
ATOM     24  O   UNL     1       5.604   2.815  12.042  0.00  0.00    +0.000 OA
ATOM     25  H   UNL     1       4.844   2.674  12.632  0.00  0.00    +0.000 HD
ENDBRANCH  23  24
ENDBRANCH  16  23
ENDBRANCH  13  19
ENDBRANCH   1  13
BRANCH   1  26
ATOM     26  C   UNL     1       3.783   3.883  18.320  0.00  0.00    +0.000 C 
BRANCH  26  27
ATOM     27  C   UNL     1       2.840   3.111  19.236  0.00  0.00    +0.000 A 
ATOM     28  C   UNL     1       3.374   2.647  20.456  0.00  0.00    +0.000 A 
ATOM     29  C   UNL     1       2.571   2.537  21.592  0.00  0.00    +0.000 A 
ATOM     30  C   UNL     1       1.214   2.821  21.507  0.00  0.00    +0.000 A 
ATOM     31  C   UNL     1       0.643   3.089  20.264  0.00  0.00    +0.000 A 
ATOM     32  C   UNL     1       1.449   3.211  19.123  0.00  0.00    +0.000 A 
ENDBRANCH  26  27
ENDBRANCH   1  26
TORSDOF 8
ENDMDL
MODEL 7
REMARK VINA RESULT:      -8.0      2.770      4.349
REMARK  Name = 
REMARK  8 active torsions:
REMARK  status: ('A' for Active; 'I' for Inactive)
REMARK    1  A    between atoms: C_2  and  O_3
REMARK    2  A    between atoms: C_2  and  C_4
REMARK    3  A    between atoms: C_7  and  S_8
REMARK    4  A    between atoms: S_8  and  N_11
REMARK    5  A    between atoms: N_11  and  C_12
REMARK    6  A    between atoms: N_11  and  C_19
REMARK    7  A    between atoms: C_12  and  C_13
REMARK    8  A    between atoms: C_22  and  C_23
REMARK                            x       y       z     vdW  Elec       q    Type
REMARK                         _______ _______ _______ _____ _____    ______ ____
ROOT
ATOM      1  N   UNL     1       5.323   4.722  17.462  0.00  0.00    +0.000 N 
ENDROOT
BRANCH   1   2
ATOM      2  C   UNL     1       4.407   5.789  17.716  0.00  0.00    +0.000 A 
ATOM      3  N   UNL     1       4.089   6.566  16.661  0.00  0.00    +0.000 NA
ATOM      4  C   UNL     1       3.262   7.621  16.898  0.00  0.00    +0.000 A 
ATOM      5  C   UNL     1       2.717   7.927  18.143  0.00  0.00    +0.000 A 
ATOM      6  C   UNL     1       3.050   7.084  19.210  0.00  0.00    +0.000 A 
ATOM      7  C   UNL     1       3.915   6.017  18.998  0.00  0.00    +0.000 A 
ATOM      8  F   UNL     1       4.233   5.214  20.021  0.00  0.00    +0.000 F 
BRANCH   5   9
ATOM      9  C   UNL     1       1.813   9.112  18.324  0.00  0.00    +0.000 C 
ATOM     10  F   UNL     1       2.393  10.289  17.946  0.00  0.00    +0.000 F 
ATOM     11  F   UNL     1       0.673   9.002  17.602  0.00  0.00    +0.000 F 
ATOM     12  F   UNL     1       1.437   9.274  19.622  0.00  0.00    +0.000 F 
ENDBRANCH   5   9
ENDBRANCH   1   2
BRANCH   1  13
ATOM     13  S   UNL     1       6.786   5.245  16.771  0.00  0.00    +0.000 S 
ATOM     14  O   UNL     1       6.479   5.625  15.407  0.00  0.00    +0.000 OA
ATOM     15  O   UNL     1       7.829   4.276  17.027  0.00  0.00    +0.000 OA
BRANCH  13  19
ATOM     16  C   UNL     1       8.607   9.023  18.709  0.00  0.00    +0.000 A 
ATOM     17  C   UNL     1       7.789   9.166  17.580  0.00  0.00    +0.000 A 
ATOM     18  C   UNL     1       7.155   8.056  16.989  0.00  0.00    +0.000 A 
ATOM     19  C   UNL     1       7.345   6.786  17.533  0.00  0.00    +0.000 A 
ATOM     20  C   UNL     1       8.094   6.656  18.719  0.00  0.00    +0.000 A 
ATOM     21  C   UNL     1       8.723   7.763  19.305  0.00  0.00    +0.000 A 
BRANCH  16  23
ATOM     22  O   UNL     1       9.911  11.006  18.534  0.00  0.00    +0.000 OA
ATOM     23  C   UNL     1       9.302  10.227  19.249  0.00  0.00    +0.000 C 
BRANCH  23  24
ATOM     24  O   UNL     1       9.259  10.351  20.594  0.00  0.00    +0.000 OA
ATOM     25  H   UNL     1       9.992  10.842  21.004  0.00  0.00    +0.000 HD
ENDBRANCH  23  24
ENDBRANCH  16  23
ENDBRANCH  13  19
ENDBRANCH   1  13
BRANCH   1  26
ATOM     26  C   UNL     1       4.721   3.454  17.022  0.00  0.00    +0.000 C 
BRANCH  26  27
ATOM     27  C   UNL     1       3.536   2.826  17.747  0.00  0.00    +0.000 A 
ATOM     28  C   UNL     1       3.785   2.281  19.023  0.00  0.00    +0.000 A 
ATOM     29  C   UNL     1       2.797   2.286  20.008  0.00  0.00    +0.000 A 
ATOM     30  C   UNL     1       1.529   2.769  19.710  0.00  0.00    +0.000 A 
ATOM     31  C   UNL     1       1.219   3.126  18.399  0.00  0.00    +0.000 A 
ATOM     32  C   UNL     1       2.212   3.133  17.411  0.00  0.00    +0.000 A 
ENDBRANCH  26  27
ENDBRANCH   1  26
TORSDOF 8
ENDMDL
MODEL 8
REMARK VINA RESULT:      -8.0      5.980     10.546
REMARK  Name = 
REMARK  8 active torsions:
REMARK  status: ('A' for Active; 'I' for Inactive)
REMARK    1  A    between atoms: C_2  and  O_3
REMARK    2  A    between atoms: C_2  and  C_4
REMARK    3  A    between atoms: C_7  and  S_8
REMARK    4  A    between atoms: S_8  and  N_11
REMARK    5  A    between atoms: N_11  and  C_12
REMARK    6  A    between atoms: N_11  and  C_19
REMARK    7  A    between atoms: C_12  and  C_13
REMARK    8  A    between atoms: C_22  and  C_23
REMARK                            x       y       z     vdW  Elec       q    Type
REMARK                         _______ _______ _______ _____ _____    ______ ____
ROOT
ATOM      1  N   UNL     1       0.026  10.703  19.229  0.00  0.00    +0.000 N 
ENDROOT
BRANCH   1   2
ATOM      2  C   UNL     1       0.950   9.623  19.086  0.00  0.00    +0.000 A 
ATOM      3  N   UNL     1       1.674   9.605  17.949  0.00  0.00    +0.000 NA
ATOM      4  C   UNL     1       2.519   8.553  17.771  0.00  0.00    +0.000 A 
ATOM      5  C   UNL     1       2.693   7.521  18.691  0.00  0.00    +0.000 A 
ATOM      6  C   UNL     1       1.943   7.586  19.872  0.00  0.00    +0.000 A 
ATOM      7  C   UNL     1       1.053   8.637  20.063  0.00  0.00    +0.000 A 
ATOM      8  F   UNL     1       0.335   8.694  21.192  0.00  0.00    +0.000 F 
BRANCH   5   9
ATOM      9  C   UNL     1       3.644   6.392  18.421  0.00  0.00    +0.000 C 
ATOM     10  F   UNL     1       3.067   5.358  17.740  0.00  0.00    +0.000 F 
ATOM     11  F   UNL     1       4.709   6.785  17.682  0.00  0.00    +0.000 F 
ATOM     12  F   UNL     1       4.144   5.859  19.569  0.00  0.00    +0.000 F 
ENDBRANCH   5   9
ENDBRANCH   1   2
BRANCH   1  13
ATOM     13  S   UNL     1       0.513  11.855  20.380  0.00  0.00    +0.000 S 
ATOM     14  O   UNL     1       0.631  13.113  19.671  0.00  0.00    +0.000 OA
ATOM     15  O   UNL     1       1.638  11.353  21.139  0.00  0.00    +0.000 OA
BRANCH  13  19
ATOM     16  C   UNL     1      -3.113  12.631  23.135  0.00  0.00    +0.000 A 
ATOM     17  C   UNL     1      -2.243  11.574  23.438  0.00  0.00    +0.000 A 
ATOM     18  C   UNL     1      -1.087  11.333  22.671  0.00  0.00    +0.000 A 
ATOM     19  C   UNL     1      -0.799  12.159  21.585  0.00  0.00    +0.000 A 
ATOM     20  C   UNL     1      -1.625  13.274  21.337  0.00  0.00    +0.000 A 
ATOM     21  C   UNL     1      -2.774  13.510  22.103  0.00  0.00    +0.000 A 
BRANCH  16  23
ATOM     22  O   UNL     1      -5.091  13.759  23.829  0.00  0.00    +0.000 OA
ATOM     23  C   UNL     1      -4.354  12.793  23.946  0.00  0.00    +0.000 C 
BRANCH  23  24
ATOM     24  O   UNL     1      -4.563  11.824  24.864  0.00  0.00    +0.000 OA
ATOM     25  H   UNL     1      -5.479  11.513  24.962  0.00  0.00    +0.000 HD
ENDBRANCH  23  24
ENDBRANCH  16  23
ENDBRANCH  13  19
ENDBRANCH   1  13
BRANCH   1  26
ATOM     26  C   UNL     1      -1.397  10.346  19.112  0.00  0.00    +0.000 C 
BRANCH  26  27
ATOM     27  C   UNL     1      -2.343  11.089  18.175  0.00  0.00    +0.000 A 
ATOM     28  C   UNL     1      -2.213  10.825  16.796  0.00  0.00    +0.000 A 
ATOM     29  C   UNL     1      -3.321  10.880  15.950  0.00  0.00    +0.000 A 
ATOM     30  C   UNL     1      -4.556  11.268  16.455  0.00  0.00    +0.000 A 
ATOM     31  C   UNL     1      -4.650  11.719  17.770  0.00  0.00    +0.000 A 
ATOM     32  C   UNL     1      -3.542  11.654  18.625  0.00  0.00    +0.000 A 
ENDBRANCH  26  27
ENDBRANCH   1  26
TORSDOF 8
ENDMDL
MODEL 9
REMARK VINA RESULT:      -7.9      1.013      1.236
REMARK  Name = 
REMARK  8 active torsions:
REMARK  status: ('A' for Active; 'I' for Inactive)
REMARK    1  A    between atoms: C_2  and  O_3
REMARK    2  A    between atoms: C_2  and  C_4
REMARK    3  A    between atoms: C_7  and  S_8
REMARK    4  A    between atoms: S_8  and  N_11
REMARK    5  A    between atoms: N_11  and  C_12
REMARK    6  A    between atoms: N_11  and  C_19
REMARK    7  A    between atoms: C_12  and  C_13
REMARK    8  A    between atoms: C_22  and  C_23
REMARK                            x       y       z     vdW  Elec       q    Type
REMARK                         _______ _______ _______ _____ _____    ______ ____
ROOT
ATOM      1  N   UNL     1       4.225   5.148  18.620  0.00  0.00    +0.000 N 
ENDROOT
BRANCH   1   2
ATOM      2  C   UNL     1       3.456   6.352  18.670  0.00  0.00    +0.000 A 
ATOM      3  N   UNL     1       2.845   6.619  19.843  0.00  0.00    +0.000 NA
ATOM      4  C   UNL     1       2.063   7.733  19.891  0.00  0.00    +0.000 A 
ATOM      5  C   UNL     1       1.877   8.608  18.824  0.00  0.00    +0.000 A 
ATOM      6  C   UNL     1       2.547   8.312  17.631  0.00  0.00    +0.000 A 
ATOM      7  C   UNL     1       3.329   7.165  17.549  0.00  0.00    +0.000 A 
ATOM      8  F   UNL     1       3.966   6.883  16.405  0.00  0.00    +0.000 F 
BRANCH   5   9
ATOM      9  C   UNL     1       0.996   9.816  18.955  0.00  0.00    +0.000 C 
ATOM     10  F   UNL     1       1.676  10.992  18.813  0.00  0.00    +0.000 F 
ATOM     11  F   UNL     1       0.009   9.835  18.028  0.00  0.00    +0.000 F 
ATOM     12  F   UNL     1       0.387   9.875  20.171  0.00  0.00    +0.000 F 
ENDBRANCH   5   9
ENDBRANCH   1   2
BRANCH   1  13
ATOM     13  S   UNL     1       5.813   5.390  18.062  0.00  0.00    +0.000 S 
ATOM     14  O   UNL     1       6.631   4.390  18.718  0.00  0.00    +0.000 OA
ATOM     15  O   UNL     1       6.168   6.789  18.169  0.00  0.00    +0.000 OA
BRANCH  13  19
ATOM     16  C   UNL     1       6.557   4.203  13.660  0.00  0.00    +0.000 A 
ATOM     17  C   UNL     1       5.408   3.726  14.308  0.00  0.00    +0.000 A 
ATOM     18  C   UNL     1       5.098   4.109  15.627  0.00  0.00    +0.000 A 
ATOM     19  C   UNL     1       5.950   4.978  16.307  0.00  0.00    +0.000 A 
ATOM     20  C   UNL     1       7.055   5.526  15.626  0.00  0.00    +0.000 A 
ATOM     21  C   UNL     1       7.360   5.142  14.313  0.00  0.00    +0.000 A 
BRANCH  16  23
ATOM     22  O   UNL     1       7.470   4.380  11.469  0.00  0.00    +0.000 OA
ATOM     23  C   UNL     1       6.863   3.708  12.287  0.00  0.00    +0.000 C 
BRANCH  23  24
ATOM     24  O   UNL     1       6.359   2.488  11.998  0.00  0.00    +0.000 OA
ATOM     25  H   UNL     1       5.499   2.272  12.398  0.00  0.00    +0.000 HD
ENDBRANCH  23  24
ENDBRANCH  16  23
ENDBRANCH  13  19
ENDBRANCH   1  13
BRANCH   1  26
ATOM     26  C   UNL     1       3.490   3.936  18.226  0.00  0.00    +0.000 C 
BRANCH  26  27
ATOM     27  C   UNL     1       2.671   3.125  19.224  0.00  0.00    +0.000 A 
ATOM     28  C   UNL     1       3.339   2.678  20.382  0.00  0.00    +0.000 A 
ATOM     29  C   UNL     1       2.656   2.533  21.590  0.00  0.00    +0.000 A 
ATOM     30  C   UNL     1       1.287   2.765  21.640  0.00  0.00    +0.000 A 
ATOM     31  C   UNL     1       0.587   3.016  20.461  0.00  0.00    +0.000 A 
ATOM     32  C   UNL     1       1.272   3.173  19.248  0.00  0.00    +0.000 A 
ENDBRANCH  26  27
ENDBRANCH   1  26
TORSDOF 8
ENDMDL
