MODEL 1
REMARK VINA RESULT:      -7.6      0.000      0.000
REMARK  Name = 
REMARK  10 active torsions:
REMARK  status: ('A' for Active; 'I' for Inactive)
REMARK    1  A    between atoms: C_1  and  C_2
REMARK    2  A    between atoms: C_6  and  C_7
REMARK    3  A    between atoms: C_13  and  C_14
REMARK    4  A    between atoms: C_14  and  C_15
REMARK    5  A    between atoms: N_17  and  CA_18
REMARK    6  A    between atoms: CA_18  and  CB_19
REMARK    7  A    between atoms: CA_18  and  C_20
REMARK    8  A    between atoms: C_20  and  OXT_22
REMARK    9  A    between atoms: C_23  and  C_24
REMARK   10  A    between atoms: C_26  and  C_27
REMARK                            x       y       z     vdW  Elec       q    Type
REMARK                         _______ _______ _______ _____ _____    ______ ____
ROOT
ATOM      1  C   UNK A   0       1.965   2.603  21.580  0.00  0.00    +0.000 C 
ATOM      2  C   UNK A   0       2.461   3.450  20.470  0.00  0.00    +0.000 A 
ATOM      3  O   UNK A   0       2.125   4.758  20.497  0.00  0.00    +0.000 OA
ATOM      4  C   UNK A   0       2.667   5.358  19.398  0.00  0.00    +0.000 A 
ATOM      5  C   UNK A   0       3.384   4.405  18.648  0.00  0.00    +0.000 A 
ATOM      6  C   UNK A   0       4.037   4.838  17.460  0.00  0.00    +0.000 A 
ATOM      7  C   UNK A   0       4.830   3.987  16.502  0.00  0.00    +0.000 C 
ATOM      8  C   UNK A   0       3.927   6.203  17.117  0.00  0.00    +0.000 A 
ATOM      9  C   UNK A   0       3.186   7.093  17.886  0.00  0.00    +0.000 A 
ATOM     10  O   UNK A   0       3.095   8.405  17.390  0.00  0.00    +0.000 OA
ATOM     11  C   UNK A   0       2.249   9.320  17.984  0.00  0.00    +0.000 A 
ATOM     12  O   UNK A   0       1.942  10.373  17.428  0.00  0.00    +0.000 OA
ATOM     13  C   UNK A   0       1.733   8.997  19.339  0.00  0.00    +0.000 A 
ATOM     14  C   UNK A   0       1.806   7.742  19.840  0.00  0.00    +0.000 A 
ATOM     15  C   UNK A   0       1.189   7.344  21.155  0.00  0.00    +0.000 C 
ATOM     16  C   UNK A   0       2.531   6.720  19.054  0.00  0.00    +0.000 A 
ATOM     17  C   UNK A   0       3.230   3.156  19.358  0.00  0.00    +0.000 A 
ATOM     18  C   UNK A   0       3.736   1.789  19.063  0.00  0.00    +0.000 C 
ENDROOT
BRANCH  13  19
ATOM     19  C   UNK A   0       1.181  10.214  20.050  0.00  0.00    +0.000 C 
BRANCH  19  20
ATOM     20  C   UNK A   0      -0.338  10.275  19.988  0.00  0.00    +0.000 C 
ATOM     21  O   UNK A   0      -1.040   9.872  20.910  0.00  0.00    +0.000 OA
ATOM     22  N   ALA A   1      -0.865  10.801  18.824  0.00  0.00    +0.000 N 
ATOM     23  H   ALA A   1      -0.230  11.277  18.185  0.00  0.00    +0.000 HD
BRANCH  22  24
ATOM     24  CA  ALA A   1      -2.311  11.066  18.711  0.00  0.00    +0.000 C 
ATOM     25  CB  ALA A   1      -2.706  12.338  19.454  0.00  0.00    +0.000 C 
BRANCH  24  26
ATOM     26  C   ALA A   1      -2.747  11.130  17.240  0.00  0.00    +0.000 C 
ATOM     27  O   ALA A   1      -3.701  10.529  16.766  0.00  0.00    +0.000 OA
BRANCH  26  28
ATOM     28  OXT ALA A   1      -1.897  11.857  16.472  0.00  0.00    +0.000 OA
ATOM     29  HXT ALA A   1      -1.721  12.731  16.877  0.00  0.00    +0.000 HD
ENDBRANCH  26  28
ENDBRANCH  24  26
ENDBRANCH  22  24
ENDBRANCH  19  20
ENDBRANCH  13  19
TORSDOF 5
ENDMDL
MODEL 2
REMARK VINA RESULT:      -7.5      3.048      8.166
REMARK  Name = 
REMARK  10 active torsions:
REMARK  status: ('A' for Active; 'I' for Inactive)
REMARK    1  A    between atoms: C_1  and  C_2
REMARK    2  A    between atoms: C_6  and  C_7
REMARK    3  A    between atoms: C_13  and  C_14
REMARK    4  A    between atoms: C_14  and  C_15
REMARK    5  A    between atoms: N_17  and  CA_18
REMARK    6  A    between atoms: CA_18  and  CB_19
REMARK    7  A    between atoms: CA_18  and  C_20
REMARK    8  A    between atoms: C_20  and  OXT_22
REMARK    9  A    between atoms: C_23  and  C_24
REMARK   10  A    between atoms: C_26  and  C_27
REMARK                            x       y       z     vdW  Elec       q    Type
REMARK                         _______ _______ _______ _____ _____    ______ ____
ROOT
ATOM      1  C   UNK A   0       1.544  12.877  18.229  0.00  0.00    +0.000 C 
ATOM      2  C   UNK A   0       1.320  11.743  19.157  0.00  0.00    +0.000 A 
ATOM      3  O   UNK A   0       1.751  10.527  18.757  0.00  0.00    +0.000 OA
ATOM      4  C   UNK A   0       1.449   9.627  19.737  0.00  0.00    +0.000 A 
ATOM      5  C   UNK A   0       0.814  10.290  20.805  0.00  0.00    +0.000 A 
ATOM      6  C   UNK A   0       0.426   9.521  21.938  0.00  0.00    +0.000 A 
ATOM      7  C   UNK A   0      -0.284  10.021  23.170  0.00  0.00    +0.000 C 
ATOM      8  C   UNK A   0       0.713   8.140  21.917  0.00  0.00    +0.000 A 
ATOM      9  C   UNK A   0       1.323   7.536  20.823  0.00  0.00    +0.000 A 
ATOM     10  O   UNK A   0       1.481   6.142  20.900  0.00  0.00    +0.000 OA
ATOM     11  C   UNK A   0       1.919   5.426  19.804  0.00  0.00    +0.000 A 
ATOM     12  O   UNK A   0       1.812   4.203  19.746  0.00  0.00    +0.000 OA
ATOM     13  C   UNK A   0       2.548   6.188  18.694  0.00  0.00    +0.000 A 
ATOM     14  C   UNK A   0       2.410   7.531  18.596  0.00  0.00    +0.000 A 
ATOM     15  C   UNK A   0       2.927   8.326  17.426  0.00  0.00    +0.000 C 
ATOM     16  C   UNK A   0       1.721   8.243  19.695  0.00  0.00    +0.000 A 
ATOM     17  C   UNK A   0       0.727  11.676  20.405  0.00  0.00    +0.000 A 
ATOM     18  C   UNK A   0       0.150  12.863  21.091  0.00  0.00    +0.000 C 
ENDROOT
BRANCH  13  19
ATOM     19  C   UNK A   0       3.350   5.299  17.768  0.00  0.00    +0.000 C 
BRANCH  19  20
ATOM     20  C   UNK A   0       4.831   5.295  18.119  0.00  0.00    +0.000 C 
ATOM     21  O   UNK A   0       5.277   4.615  19.037  0.00  0.00    +0.000 OA
ATOM     22  N   ALA A   1       5.628   6.114  17.343  0.00  0.00    +0.000 N 
ATOM     23  H   ALA A   1       5.225   6.506  16.492  0.00  0.00    +0.000 HD
BRANCH  22  24
ATOM     24  CA  ALA A   1       7.096   6.071  17.474  0.00  0.00    +0.000 C 
ATOM     25  CB  ALA A   1       7.532   6.226  18.927  0.00  0.00    +0.000 C 
BRANCH  24  26
ATOM     26  C   ALA A   1       7.667   4.782  16.864  0.00  0.00    +0.000 C 
ATOM     27  O   ALA A   1       7.549   4.451  15.691  0.00  0.00    +0.000 OA
BRANCH  26  28
ATOM     28  OXT ALA A   1       8.246   3.975  17.788  0.00  0.00    +0.000 OA
ATOM     29  HXT ALA A   1       9.211   3.910  17.639  0.00  0.00    +0.000 HD
ENDBRANCH  26  28
ENDBRANCH  24  26
ENDBRANCH  22  24
ENDBRANCH  19  20
ENDBRANCH  13  19
TORSDOF 5
ENDMDL
MODEL 3
REMARK VINA RESULT:      -7.4      1.645      3.485
REMARK  Name = 
REMARK  10 active torsions:
REMARK  status: ('A' for Active; 'I' for Inactive)
REMARK    1  A    between atoms: C_1  and  C_2
REMARK    2  A    between atoms: C_6  and  C_7
REMARK    3  A    between atoms: C_13  and  C_14
REMARK    4  A    between atoms: C_14  and  C_15
REMARK    5  A    between atoms: N_17  and  CA_18
REMARK    6  A    between atoms: CA_18  and  CB_19
REMARK    7  A    between atoms: CA_18  and  C_20
REMARK    8  A    between atoms: C_20  and  OXT_22
REMARK    9  A    between atoms: C_23  and  C_24
REMARK   10  A    between atoms: C_26  and  C_27
REMARK                            x       y       z     vdW  Elec       q    Type
REMARK                         _______ _______ _______ _____ _____    ______ ____
ROOT
ATOM      1  C   UNK A   0       4.986   6.328  16.293  0.00  0.00    +0.000 C 
ATOM      2  C   UNK A   0       4.092   6.301  17.475  0.00  0.00    +0.000 A 
ATOM      3  O   UNK A   0       3.405   7.430  17.753  0.00  0.00    +0.000 OA
ATOM      4  C   UNK A   0       2.653   7.206  18.869  0.00  0.00    +0.000 A 
ATOM      5  C   UNK A   0       2.857   5.885  19.314  0.00  0.00    +0.000 A 
ATOM      6  C   UNK A   0       2.148   5.449  20.469  0.00  0.00    +0.000 A 
ATOM      7  C   UNK A   0       2.237   4.096  21.127  0.00  0.00    +0.000 C 
ATOM      8  C   UNK A   0       1.280   6.373  21.088  0.00  0.00    +0.000 A 
ATOM      9  C   UNK A   0       1.137   7.673  20.615  0.00  0.00    +0.000 A 
ATOM     10  O   UNK A   0       0.300   8.512  21.369  0.00  0.00    +0.000 OA
ATOM     11  C   UNK A   0       0.222   9.861  21.085  0.00  0.00    +0.000 A 
ATOM     12  O   UNK A   0      -0.276  10.661  21.874  0.00  0.00    +0.000 OA
ATOM     13  C   UNK A   0       0.748  10.316  19.772  0.00  0.00    +0.000 A 
ATOM     14  C   UNK A   0       1.557   9.528  19.026  0.00  0.00    +0.000 A 
ATOM     15  C   UNK A   0       2.208   9.993  17.750  0.00  0.00    +0.000 C 
ATOM     16  C   UNK A   0       1.805   8.146  19.492  0.00  0.00    +0.000 A 
ATOM     17  C   UNK A   0       3.811   5.308  18.396  0.00  0.00    +0.000 A 
ATOM     18  C   UNK A   0       4.434   3.958  18.345  0.00  0.00    +0.000 C 
ENDROOT
BRANCH  13  19
ATOM     19  C   UNK A   0       0.243  11.692  19.395  0.00  0.00    +0.000 C 
BRANCH  19  20
ATOM     20  C   UNK A   0      -1.194  11.659  18.895  0.00  0.00    +0.000 C 
ATOM     21  O   UNK A   0      -2.123  12.100  19.566  0.00  0.00    +0.000 OA
ATOM     22  N   ALA A   1      -1.378  11.091  17.650  0.00  0.00    +0.000 N 
ATOM     23  H   ALA A   1      -0.551  10.912  17.080  0.00  0.00    +0.000 HD
BRANCH  22  24
ATOM     24  CA  ALA A   1      -2.693  11.150  16.988  0.00  0.00    +0.000 C 
ATOM     25  CB  ALA A   1      -2.611  10.686  15.537  0.00  0.00    +0.000 C 
BRANCH  24  26
ATOM     26  C   ALA A   1      -3.739  10.338  17.766  0.00  0.00    +0.000 C 
ATOM     27  O   ALA A   1      -3.733   9.120  17.885  0.00  0.00    +0.000 OA
BRANCH  26  28
ATOM     28  OXT ALA A   1      -4.752  11.105  18.241  0.00  0.00    +0.000 OA
ATOM     29  HXT ALA A   1      -5.600  10.616  18.222  0.00  0.00    +0.000 HD
ENDBRANCH  26  28
ENDBRANCH  24  26
ENDBRANCH  22  24
ENDBRANCH  19  20
ENDBRANCH  13  19
TORSDOF 5
ENDMDL
MODEL 4
REMARK VINA RESULT:      -7.4      1.077      1.282
REMARK  Name = 
REMARK  10 active torsions:
REMARK  status: ('A' for Active; 'I' for Inactive)
REMARK    1  A    between atoms: C_1  and  C_2
REMARK    2  A    between atoms: C_6  and  C_7
REMARK    3  A    between atoms: C_13  and  C_14
REMARK    4  A    between atoms: C_14  and  C_15
REMARK    5  A    between atoms: N_17  and  CA_18
REMARK    6  A    between atoms: CA_18  and  CB_19
REMARK    7  A    between atoms: CA_18  and  C_20
REMARK    8  A    between atoms: C_20  and  OXT_22
REMARK    9  A    between atoms: C_23  and  C_24
REMARK   10  A    between atoms: C_26  and  C_27
REMARK                            x       y       z     vdW  Elec       q    Type
REMARK                         _______ _______ _______ _____ _____    ______ ____
ROOT
ATOM      1  C   UNK A   0       1.478   2.900  21.576  0.00  0.00    +0.000 C 
ATOM      2  C   UNK A   0       2.074   3.737  20.508  0.00  0.00    +0.000 A 
ATOM      3  O   UNK A   0       1.766   5.053  20.515  0.00  0.00    +0.000 OA
ATOM      4  C   UNK A   0       2.402   5.642  19.461  0.00  0.00    +0.000 A 
ATOM      5  C   UNK A   0       3.150   4.675  18.763  0.00  0.00    +0.000 A 
ATOM      6  C   UNK A   0       3.899   5.095  17.628  0.00  0.00    +0.000 A 
ATOM      7  C   UNK A   0       4.741   4.227  16.729  0.00  0.00    +0.000 C 
ATOM      8  C   UNK A   0       3.846   6.462  17.282  0.00  0.00    +0.000 A 
ATOM      9  C   UNK A   0       3.070   7.368  17.998  0.00  0.00    +0.000 A 
ATOM     10  O   UNK A   0       3.047   8.682  17.501  0.00  0.00    +0.000 OA
ATOM     11  C   UNK A   0       2.180   9.615  18.034  0.00  0.00    +0.000 A 
ATOM     12  O   UNK A   0       1.939  10.676  17.461  0.00  0.00    +0.000 OA
ATOM     13  C   UNK A   0       1.557   9.302  19.346  0.00  0.00    +0.000 A 
ATOM     14  C   UNK A   0       1.565   8.044  19.847  0.00  0.00    +0.000 A 
ATOM     15  C   UNK A   0       0.843   7.659  21.111  0.00  0.00    +0.000 C 
ATOM     16  C   UNK A   0       2.323   7.007  19.113  0.00  0.00    +0.000 A 
ATOM     17  C   UNK A   0       2.916   3.428  19.456  0.00  0.00    +0.000 A 
ATOM     18  C   UNK A   0       3.411   2.050  19.194  0.00  0.00    +0.000 C 
ENDROOT
BRANCH  13  19
ATOM     19  C   UNK A   0       0.983  10.530  20.019  0.00  0.00    +0.000 C 
BRANCH  19  20
ATOM     20  C   UNK A   0      -0.074  11.212  19.161  0.00  0.00    +0.000 C 
ATOM     21  O   UNK A   0      -0.088  12.428  18.997  0.00  0.00    +0.000 OA
ATOM     22  N   ALA A   1      -1.012  10.372  18.595  0.00  0.00    +0.000 N 
ATOM     23  H   ALA A   1      -0.835   9.369  18.624  0.00  0.00    +0.000 HD
BRANCH  22  24
ATOM     24  CA  ALA A   1      -1.983  10.889  17.613  0.00  0.00    +0.000 C 
ATOM     25  CB  ALA A   1      -2.254   9.875  16.507  0.00  0.00    +0.000 C 
BRANCH  24  26
ATOM     26  C   ALA A   1      -3.288  11.316  18.299  0.00  0.00    +0.000 C 
ATOM     27  O   ALA A   1      -4.348  10.708  18.227  0.00  0.00    +0.000 OA
BRANCH  26  28
ATOM     28  OXT ALA A   1      -3.183  12.511  18.932  0.00  0.00    +0.000 OA
ATOM     29  HXT ALA A   1      -3.228  12.398  19.903  0.00  0.00    +0.000 HD
ENDBRANCH  26  28
ENDBRANCH  24  26
ENDBRANCH  22  24
ENDBRANCH  19  20
ENDBRANCH  13  19
TORSDOF 5
ENDMDL
MODEL 5
REMARK VINA RESULT:      -7.3      3.038      8.155
REMARK  Name = 
REMARK  10 active torsions:
REMARK  status: ('A' for Active; 'I' for Inactive)
REMARK    1  A    between atoms: C_1  and  C_2
REMARK    2  A    between atoms: C_6  and  C_7
REMARK    3  A    between atoms: C_13  and  C_14
REMARK    4  A    between atoms: C_14  and  C_15
REMARK    5  A    between atoms: N_17  and  CA_18
REMARK    6  A    between atoms: CA_18  and  CB_19
REMARK    7  A    between atoms: CA_18  and  C_20
REMARK    8  A    between atoms: C_20  and  OXT_22
REMARK    9  A    between atoms: C_23  and  C_24
REMARK   10  A    between atoms: C_26  and  C_27
REMARK                            x       y       z     vdW  Elec       q    Type
REMARK                         _______ _______ _______ _____ _____    ______ ____
ROOT
ATOM      1  C   UNK A   0       1.616  13.104  17.996  0.00  0.00    +0.000 C 
ATOM      2  C   UNK A   0       1.300  12.050  18.989  0.00  0.00    +0.000 A 
ATOM      3  O   UNK A   0       1.693  10.791  18.696  0.00  0.00    +0.000 OA
ATOM      4  C   UNK A   0       1.307   9.977  19.721  0.00  0.00    +0.000 A 
ATOM      5  C   UNK A   0       0.657  10.742  20.708  0.00  0.00    +0.000 A 
ATOM      6  C   UNK A   0       0.184  10.074  21.873  0.00  0.00    +0.000 A 
ATOM      7  C   UNK A   0      -0.556  10.690  23.032  0.00  0.00    +0.000 C 
ATOM      8  C   UNK A   0       0.408   8.683  21.962  0.00  0.00    +0.000 A 
ATOM      9  C   UNK A   0       1.038   7.977  20.943  0.00  0.00    +0.000 A 
ATOM     10  O   UNK A   0       1.128   6.587  21.124  0.00  0.00    +0.000 OA
ATOM     11  C   UNK A   0       1.581   5.776  20.103  0.00  0.00    +0.000 A 
ATOM     12  O   UNK A   0       1.421   4.557  20.125  0.00  0.00    +0.000 OA
ATOM     13  C   UNK A   0       2.293   6.429  18.974  0.00  0.00    +0.000 A 
ATOM     14  C   UNK A   0       2.220   7.766  18.775  0.00  0.00    +0.000 A 
ATOM     15  C   UNK A   0       2.825   8.453  17.579  0.00  0.00    +0.000 C 
ATOM     16  C   UNK A   0       1.517   8.583  19.788  0.00  0.00    +0.000 A 
ATOM     17  C   UNK A   0       0.650  12.098  20.209  0.00  0.00    +0.000 A 
ATOM     18  C   UNK A   0       0.098  13.355  20.783  0.00  0.00    +0.000 C 
ENDROOT
BRANCH  13  19
ATOM     19  C   UNK A   0       3.093   5.443  18.151  0.00  0.00    +0.000 C 
BRANCH  19  20
ATOM     20  C   UNK A   0       4.552   5.387  18.582  0.00  0.00    +0.000 C 
ATOM     21  O   UNK A   0       4.873   5.233  19.756  0.00  0.00    +0.000 OA
ATOM     22  N   ALA A   1       5.478   5.533  17.568  0.00  0.00    +0.000 N 
ATOM     23  H   ALA A   1       5.146   5.476  16.606  0.00  0.00    +0.000 HD
BRANCH  22  24
ATOM     24  CA  ALA A   1       6.914   5.331  17.833  0.00  0.00    +0.000 C 
ATOM     25  CB  ALA A   1       7.542   4.381  16.819  0.00  0.00    +0.000 C 
BRANCH  24  26
ATOM     26  C   ALA A   1       7.663   6.672  17.866  0.00  0.00    +0.000 C 
ATOM     27  O   ALA A   1       8.292   7.098  18.825  0.00  0.00    +0.000 OA
BRANCH  26  28
ATOM     28  OXT ALA A   1       7.478   7.405  16.740  0.00  0.00    +0.000 OA
ATOM     29  HXT ALA A   1       8.265   7.954  16.547  0.00  0.00    +0.000 HD
ENDBRANCH  26  28
ENDBRANCH  24  26
ENDBRANCH  22  24
ENDBRANCH  19  20
ENDBRANCH  13  19
TORSDOF 5
ENDMDL
MODEL 6
REMARK VINA RESULT:      -7.3      3.054      7.581
REMARK  Name = 
REMARK  10 active torsions:
REMARK  status: ('A' for Active; 'I' for Inactive)
REMARK    1  A    between atoms: C_1  and  C_2
REMARK    2  A    between atoms: C_6  and  C_7
REMARK    3  A    between atoms: C_13  and  C_14
REMARK    4  A    between atoms: C_14  and  C_15
REMARK    5  A    between atoms: N_17  and  CA_18
REMARK    6  A    between atoms: CA_18  and  CB_19
REMARK    7  A    between atoms: CA_18  and  C_20
REMARK    8  A    between atoms: C_20  and  OXT_22
REMARK    9  A    between atoms: C_23  and  C_24
REMARK   10  A    between atoms: C_26  and  C_27
REMARK                            x       y       z     vdW  Elec       q    Type
REMARK                         _______ _______ _______ _____ _____    ______ ____
ROOT
ATOM      1  C   UNK A   0      -0.368   9.446  23.615  0.00  0.00    +0.000 C 
ATOM      2  C   UNK A   0       0.068   9.715  22.224  0.00  0.00    +0.000 A 
ATOM      3  O   UNK A   0       0.720   8.722  21.581  0.00  0.00    +0.000 OA
ATOM      4  C   UNK A   0       1.038   9.164  20.329  0.00  0.00    +0.000 A 
ATOM      5  C   UNK A   0       0.564  10.480  20.162  0.00  0.00    +0.000 A 
ATOM      6  C   UNK A   0       0.788  11.120  18.910  0.00  0.00    +0.000 A 
ATOM      7  C   UNK A   0       0.391  12.523  18.529  0.00  0.00    +0.000 C 
ATOM      8  C   UNK A   0       1.468  10.387  17.916  0.00  0.00    +0.000 A 
ATOM      9  C   UNK A   0       1.934   9.097  18.148  0.00  0.00    +0.000 A 
ATOM     10  O   UNK A   0       2.662   8.508  17.100  0.00  0.00    +0.000 OA
ATOM     11  C   UNK A   0       3.309   7.304  17.288  0.00  0.00    +0.000 A 
ATOM     12  O   UNK A   0       4.162   6.898  16.501  0.00  0.00    +0.000 OA
ATOM     13  C   UNK A   0       2.922   6.495  18.473  0.00  0.00    +0.000 A 
ATOM     14  C   UNK A   0       2.223   7.038  19.497  0.00  0.00    +0.000 A 
ATOM     15  C   UNK A   0       1.915   6.291  20.768  0.00  0.00    +0.000 C 
ATOM     16  C   UNK A   0       1.739   8.428  19.351  0.00  0.00    +0.000 A 
ATOM     17  C   UNK A   0      -0.061  10.831  21.416  0.00  0.00    +0.000 A 
ATOM     18  C   UNK A   0      -0.728  12.082  21.867  0.00  0.00    +0.000 C 
ENDROOT
BRANCH  13  19
ATOM     19  C   UNK A   0       3.365   5.053  18.356  0.00  0.00    +0.000 C 
BRANCH  19  20
ATOM     20  C   UNK A   0       4.828   4.870  18.734  0.00  0.00    +0.000 C 
ATOM     21  O   UNK A   0       5.204   3.929  19.427  0.00  0.00    +0.000 OA
ATOM     22  N   ALA A   1       5.691   5.836  18.257  0.00  0.00    +0.000 N 
ATOM     23  H   ALA A   1       5.343   6.479  17.547  0.00  0.00    +0.000 HD
BRANCH  22  24
ATOM     24  CA  ALA A   1       7.149   5.680  18.414  0.00  0.00    +0.000 C 
ATOM     25  CB  ALA A   1       7.690   4.560  17.532  0.00  0.00    +0.000 C 
BRANCH  24  26
ATOM     26  C   ALA A   1       7.878   7.002  18.134  0.00  0.00    +0.000 C 
ATOM     27  O   ALA A   1       7.837   7.613  17.075  0.00  0.00    +0.000 OA
BRANCH  26  28
ATOM     28  OXT ALA A   1       8.673   7.392  19.162  0.00  0.00    +0.000 OA
ATOM     29  HXT ALA A   1       8.538   6.819  19.945  0.00  0.00    +0.000 HD
ENDBRANCH  26  28
ENDBRANCH  24  26
ENDBRANCH  22  24
ENDBRANCH  19  20
ENDBRANCH  13  19
TORSDOF 5
ENDMDL
MODEL 7
REMARK VINA RESULT:      -7.3      1.634      3.740
REMARK  Name = 
REMARK  10 active torsions:
REMARK  status: ('A' for Active; 'I' for Inactive)
REMARK    1  A    between atoms: C_1  and  C_2
REMARK    2  A    between atoms: C_6  and  C_7
REMARK    3  A    between atoms: C_13  and  C_14
REMARK    4  A    between atoms: C_14  and  C_15
REMARK    5  A    between atoms: N_17  and  CA_18
REMARK    6  A    between atoms: CA_18  and  CB_19
REMARK    7  A    between atoms: CA_18  and  C_20
REMARK    8  A    between atoms: C_20  and  OXT_22
REMARK    9  A    between atoms: C_23  and  C_24
REMARK   10  A    between atoms: C_26  and  C_27
REMARK                            x       y       z     vdW  Elec       q    Type
REMARK                         _______ _______ _______ _____ _____    ______ ____
ROOT
ATOM      1  C   UNK A   0       4.715   6.954  16.275  0.00  0.00    +0.000 C 
ATOM      2  C   UNK A   0       3.838   6.847  17.465  0.00  0.00    +0.000 A 
ATOM      3  O   UNK A   0       3.167   7.959  17.837  0.00  0.00    +0.000 OA
ATOM      4  C   UNK A   0       2.428   7.659  18.944  0.00  0.00    +0.000 A 
ATOM      5  C   UNK A   0       2.623   6.306  19.286  0.00  0.00    +0.000 A 
ATOM      6  C   UNK A   0       1.925   5.791  20.415  0.00  0.00    +0.000 A 
ATOM      7  C   UNK A   0       2.007   4.392  20.967  0.00  0.00    +0.000 C 
ATOM      8  C   UNK A   0       1.076   6.675  21.114  0.00  0.00    +0.000 A 
ATOM      9  C   UNK A   0       0.941   8.008  20.742  0.00  0.00    +0.000 A 
ATOM     10  O   UNK A   0       0.124   8.797  21.570  0.00  0.00    +0.000 OA
ATOM     11  C   UNK A   0       0.058  10.164  21.388  0.00  0.00    +0.000 A 
ATOM     12  O   UNK A   0      -0.421  10.907  22.243  0.00  0.00    +0.000 OA
ATOM     13  C   UNK A   0       0.571  10.711  20.106  0.00  0.00    +0.000 A 
ATOM     14  C   UNK A   0       1.361   9.974  19.292  0.00  0.00    +0.000 A 
ATOM     15  C   UNK A   0       2.000  10.527  18.045  0.00  0.00    +0.000 C 
ATOM     16  C   UNK A   0       1.600   8.558  19.648  0.00  0.00    +0.000 A 
ATOM     17  C   UNK A   0       3.558   5.790  18.313  0.00  0.00    +0.000 A 
ATOM     18  C   UNK A   0       4.165   4.441  18.151  0.00  0.00    +0.000 C 
ENDROOT
BRANCH  13  19
ATOM     19  C   UNK A   0       0.077  12.118  19.842  0.00  0.00    +0.000 C 
BRANCH  19  20
ATOM     20  C   UNK A   0      -0.852  12.182  18.637  0.00  0.00    +0.000 C 
ATOM     21  O   UNK A   0      -0.681  12.992  17.732  0.00  0.00    +0.000 OA
ATOM     22  N   ALA A   1      -1.897  11.279  18.643  0.00  0.00    +0.000 N 
ATOM     23  H   ALA A   1      -1.873  10.525  19.328  0.00  0.00    +0.000 HD
BRANCH  22  24
ATOM     24  CA  ALA A   1      -2.763  11.131  17.459  0.00  0.00    +0.000 C 
ATOM     25  CB  ALA A   1      -2.624   9.746  16.835  0.00  0.00    +0.000 C 
BRANCH  24  26
ATOM     26  C   ALA A   1      -4.228  11.433  17.806  0.00  0.00    +0.000 C 
ATOM     27  O   ALA A   1      -4.634  11.744  18.918  0.00  0.00    +0.000 OA
BRANCH  26  28
ATOM     28  OXT ALA A   1      -5.068  11.225  16.762  0.00  0.00    +0.000 OA
ATOM     29  HXT ALA A   1      -5.051  10.287  16.480  0.00  0.00    +0.000 HD
ENDBRANCH  26  28
ENDBRANCH  24  26
ENDBRANCH  22  24
ENDBRANCH  19  20
ENDBRANCH  13  19
TORSDOF 5
ENDMDL
MODEL 8
REMARK VINA RESULT:      -7.2      2.479      4.166
REMARK  Name = 
REMARK  10 active torsions:
REMARK  status: ('A' for Active; 'I' for Inactive)
REMARK    1  A    between atoms: C_1  and  C_2
REMARK    2  A    between atoms: C_6  and  C_7
REMARK    3  A    between atoms: C_13  and  C_14
REMARK    4  A    between atoms: C_14  and  C_15
REMARK    5  A    between atoms: N_17  and  CA_18
REMARK    6  A    between atoms: CA_18  and  CB_19
REMARK    7  A    between atoms: CA_18  and  C_20
REMARK    8  A    between atoms: C_20  and  OXT_22
REMARK    9  A    between atoms: C_23  and  C_24
REMARK   10  A    between atoms: C_26  and  C_27
REMARK                            x       y       z     vdW  Elec       q    Type
REMARK                         _______ _______ _______ _____ _____    ______ ____
ROOT
ATOM      1  C   UNK A   0       5.193   6.637  15.863  0.00  0.00    +0.000 C 
ATOM      2  C   UNK A   0       4.405   6.334  17.081  0.00  0.00    +0.000 A 
ATOM      3  O   UNK A   0       3.567   7.295  17.527  0.00  0.00    +0.000 OA
ATOM      4  C   UNK A   0       2.945   6.829  18.649  0.00  0.00    +0.000 A 
ATOM      5  C   UNK A   0       3.390   5.521  18.923  0.00  0.00    +0.000 A 
ATOM      6  C   UNK A   0       2.848   4.850  20.056  0.00  0.00    +0.000 A 
ATOM      7  C   UNK A   0       3.200   3.469  20.543  0.00  0.00    +0.000 C 
ATOM      8  C   UNK A   0       1.890   5.543  20.826  0.00  0.00    +0.000 A 
ATOM      9  C   UNK A   0       1.506   6.844  20.518  0.00  0.00    +0.000 A 
ATOM     10  O   UNK A   0       0.602   7.445  21.411  0.00  0.00    +0.000 OA
ATOM     11  C   UNK A   0       0.288   8.784  21.292  0.00  0.00    +0.000 A 
ATOM     12  O   UNK A   0      -0.273   9.400  22.196  0.00  0.00    +0.000 OA
ATOM     13  C   UNK A   0       0.636   9.459  20.015  0.00  0.00    +0.000 A 
ATOM     14  C   UNK A   0       1.505   8.903  19.139  0.00  0.00    +0.000 A 
ATOM     15  C   UNK A   0       1.977   9.605  17.893  0.00  0.00    +0.000 C 
ATOM     16  C   UNK A   0       2.005   7.541  19.424  0.00  0.00    +0.000 A 
ATOM     17  C   UNK A   0       4.355   5.214  17.892  0.00  0.00    +0.000 A 
ATOM     18  C   UNK A   0       5.182   4.002  17.648  0.00  0.00    +0.000 C 
ENDROOT
BRANCH  13  19
ATOM     19  C   UNK A   0      -0.110  10.764  19.832  0.00  0.00    +0.000 C 
BRANCH  19  20
ATOM     20  C   UNK A   0       0.782  11.973  20.074  0.00  0.00    +0.000 C 
ATOM     21  O   UNK A   0       1.503  12.057  21.063  0.00  0.00    +0.000 OA
ATOM     22  N   ALA A   1       0.714  12.964  19.115  0.00  0.00    +0.000 N 
ATOM     23  H   ALA A   1       0.237  12.750  18.240  0.00  0.00    +0.000 HD
BRANCH  22  24
ATOM     24  CA  ALA A   1       1.648  14.104  19.149  0.00  0.00    +0.000 C 
ATOM     25  CB  ALA A   1       2.840  13.878  18.224  0.00  0.00    +0.000 C 
BRANCH  24  26
ATOM     26  C   ALA A   1       0.929  15.417  18.809  0.00  0.00    +0.000 C 
ATOM     27  O   ALA A   1       1.454  16.523  18.811  0.00  0.00    +0.000 OA
BRANCH  26  28
ATOM     28  OXT ALA A   1      -0.399  15.249  18.595  0.00  0.00    +0.000 OA
ATOM     29  HXT ALA A   1      -0.558  14.661  17.827  0.00  0.00    +0.000 HD
ENDBRANCH  26  28
ENDBRANCH  24  26
ENDBRANCH  22  24
ENDBRANCH  19  20
ENDBRANCH  13  19
TORSDOF 5
ENDMDL
MODEL 9
REMARK VINA RESULT:      -7.2      2.990      8.028
REMARK  Name = 
REMARK  10 active torsions:
REMARK  status: ('A' for Active; 'I' for Inactive)
REMARK    1  A    between atoms: C_1  and  C_2
REMARK    2  A    between atoms: C_6  and  C_7
REMARK    3  A    between atoms: C_13  and  C_14
REMARK    4  A    between atoms: C_14  and  C_15
REMARK    5  A    between atoms: N_17  and  CA_18
REMARK    6  A    between atoms: CA_18  and  CB_19
REMARK    7  A    between atoms: CA_18  and  C_20
REMARK    8  A    between atoms: C_20  and  OXT_22
REMARK    9  A    between atoms: C_23  and  C_24
REMARK   10  A    between atoms: C_26  and  C_27
REMARK                            x       y       z     vdW  Elec       q    Type
REMARK                         _______ _______ _______ _____ _____    ______ ____
ROOT
ATOM      1  C   UNK A   0       1.111  12.773  18.367  0.00  0.00    +0.000 C 
ATOM      2  C   UNK A   0       1.053  11.584  19.251  0.00  0.00    +0.000 A 
ATOM      3  O   UNK A   0       1.537  10.424  18.755  0.00  0.00    +0.000 OA
ATOM      4  C   UNK A   0       1.389   9.460  19.709  0.00  0.00    +0.000 A 
ATOM      5  C   UNK A   0       0.801  10.024  20.858  0.00  0.00    +0.000 A 
ATOM      6  C   UNK A   0       0.571   9.177  21.979  0.00  0.00    +0.000 A 
ATOM      7  C   UNK A   0      -0.064   9.564  23.289  0.00  0.00    +0.000 C 
ATOM      8  C   UNK A   0       0.956   7.825  21.864  0.00  0.00    +0.000 A 
ATOM      9  C   UNK A   0       1.512   7.320  20.693  0.00  0.00    +0.000 A 
ATOM     10  O   UNK A   0       1.778   5.940  20.685  0.00  0.00    +0.000 OA
ATOM     11  C   UNK A   0       2.171   5.311  19.521  0.00  0.00    +0.000 A 
ATOM     12  O   UNK A   0       2.150   4.086  19.409  0.00  0.00    +0.000 OA
ATOM     13  C   UNK A   0       2.643   6.168  18.403  0.00  0.00    +0.000 A 
ATOM     14  C   UNK A   0       2.398   7.499  18.385  0.00  0.00    +0.000 A 
ATOM     15  C   UNK A   0       2.752   8.384  17.219  0.00  0.00    +0.000 C 
ATOM     16  C   UNK A   0       1.757   8.105  19.573  0.00  0.00    +0.000 A 
ATOM     17  C   UNK A   0       0.577  11.415  20.539  0.00  0.00    +0.000 A 
ATOM     18  C   UNK A   0      -0.024  12.522  21.331  0.00  0.00    +0.000 C 
ENDROOT
BRANCH  13  19
ATOM     19  C   UNK A   0       3.426   5.387  17.369  0.00  0.00    +0.000 C 
BRANCH  19  20
ATOM     20  C   UNK A   0       4.902   5.286  17.723  0.00  0.00    +0.000 C 
ATOM     21  O   UNK A   0       5.387   4.258  18.185  0.00  0.00    +0.000 OA
ATOM     22  N   ALA A   1       5.647   6.427  17.501  0.00  0.00    +0.000 N 
ATOM     23  H   ALA A   1       5.223   7.175  16.953  0.00  0.00    +0.000 HD
BRANCH  22  24
ATOM     24  CA  ALA A   1       7.114   6.403  17.647  0.00  0.00    +0.000 C 
ATOM     25  CB  ALA A   1       7.688   7.812  17.754  0.00  0.00    +0.000 C 
BRANCH  24  26
ATOM     26  C   ALA A   1       7.535   5.545  18.848  0.00  0.00    +0.000 C 
ATOM     27  O   ALA A   1       7.422   5.878  20.020  0.00  0.00    +0.000 OA
BRANCH  26  28
ATOM     28  OXT ALA A   1       8.149   4.392  18.480  0.00  0.00    +0.000 OA
ATOM     29  HXT ALA A   1       8.761   4.545  17.732  0.00  0.00    +0.000 HD
ENDBRANCH  26  28
ENDBRANCH  24  26
ENDBRANCH  22  24
ENDBRANCH  19  20
ENDBRANCH  13  19
TORSDOF 5
ENDMDL
