MODEL 1
REMARK VINA RESULT:      -7.2      0.000      0.000
REMARK  Name = 
REMARK  14 active torsions:
REMARK  status: ('A' for Active; 'I' for Inactive)
REMARK    1  A    between atoms: C_1  and  C_2
REMARK    2  A    between atoms: C_4  and  N_5
REMARK    3  A    between atoms: C_7  and  C_8
REMARK    4  A    between atoms: C_8  and  O_9
REMARK    5  A    between atoms: O_9  and  C_10
REMARK    6  A    between atoms: C_10  and  C_11
REMARK    7  A    between atoms: C_11  and  N_12
REMARK    8  A    between atoms: C_11  and  C_13
REMARK    9  A    between atoms: C_13  and  C_14
REMARK   10  A    between atoms: C_13  and  O_15
REMARK   11  A    between atoms: O_15  and  C_16
REMARK   12  A    between atoms: C_16  and  C_17
REMARK   13  A    between atoms: C_19  and  C_20
REMARK   14  A    between atoms: C_22  and  N_23
REMARK                            x       y       z     vdW  Elec       q    Type
REMARK                         _______ _______ _______ _____ _____    ______ ____
ROOT
ATOM      1  C   UNL     1       2.513   4.085  18.253  0.00  0.00    +0.000 C 
ENDROOT
BRANCH   1   2
ATOM      2  N   UNL     1       1.183   3.734  17.698  0.00  0.00    +0.000 NA
ATOM      3  H   UNL     1       0.873   4.520  17.124  0.00  0.00    +0.000 HD
ATOM      4  H   UNL     1       0.532   3.718  18.491  0.00  0.00    +0.000 HD
ENDBRANCH   1   2
BRANCH   1   5
ATOM      5  C   UNL     1       2.451   4.286  19.795  0.00  0.00    +0.000 C 
ATOM      6  C   UNL     1       1.049   3.967  20.321  0.00  0.00    +0.000 C 
BRANCH   5   7
ATOM      7  O   UNL     1       2.824   5.632  20.134  0.00  0.00    +0.000 OA
BRANCH   7   8
ATOM      8  C   UNL     1       2.624   6.547  19.047  0.00  0.00    +0.000 C 
BRANCH   8   9
ATOM      9  C   UNL     1       1.954   7.812  19.524  0.00  0.00    +0.000 A 
ATOM     10  C   UNL     1       1.480   7.900  20.829  0.00  0.00    +0.000 A 
ATOM     11  C   UNL     1       0.865   9.079  21.244  0.00  0.00    +0.000 A 
ATOM     12  C   UNL     1       0.349   9.231  22.641  0.00  0.00    +0.000 C 
ATOM     13  C   UNL     1       0.752  10.128  20.327  0.00  0.00    +0.000 A 
ATOM     14  C   UNL     1       1.239   9.959  19.040  0.00  0.00    +0.000 A 
ATOM     15  N   UNL     1       1.832   8.829  18.629  0.00  0.00    +0.000 NA
BRANCH  14  16
ATOM     16  N   UNL     1       1.171  10.996  18.113  0.00  0.00    +0.000 N 
ATOM     17  H   UNL     1       1.589  11.846  18.470  0.00  0.00    +0.000 HD
ATOM     18  H   UNL     1       0.188  11.119  17.884  0.00  0.00    +0.000 HD
ENDBRANCH  14  16
ENDBRANCH   8   9
ENDBRANCH   7   8
ENDBRANCH   5   7
ENDBRANCH   1   5
BRANCH   1  19
ATOM     19  C   UNL     1       3.556   3.033  17.814  0.00  0.00    +0.000 C 
BRANCH  19  20
ATOM     20  O   UNL     1       4.869   3.567  18.046  0.00  0.00    +0.000 OA
BRANCH  20  21
ATOM     21  C   UNL     1       5.078   4.776  17.309  0.00  0.00    +0.000 C 
BRANCH  21  27
ATOM     22  C   UNL     1       7.978   8.895  17.385  0.00  0.00    +0.000 C 
ATOM     23  C   UNL     1       7.614   7.541  17.917  0.00  0.00    +0.000 A 
ATOM     24  C   UNL     1       8.298   6.974  18.991  0.00  0.00    +0.000 A 
ATOM     25  C   UNL     1       7.918   5.721  19.448  0.00  0.00    +0.000 A 
ATOM     26  N   UNL     1       6.907   5.022  18.912  0.00  0.00    +0.000 NA
ATOM     27  C   UNL     1       6.244   5.563  17.859  0.00  0.00    +0.000 A 
ATOM     28  C   UNL     1       6.563   6.822  17.349  0.00  0.00    +0.000 A 
BRANCH  25  29
ATOM     29  N   UNL     1       8.564   5.141  20.539  0.00  0.00    +0.000 N 
ATOM     30  H   UNL     1       9.526   4.917  20.322  0.00  0.00    +0.000 HD
ATOM     31  H   UNL     1       8.028   4.313  20.785  0.00  0.00    +0.000 HD
ENDBRANCH  25  29
ENDBRANCH  21  27
ENDBRANCH  20  21
ENDBRANCH  19  20
ENDBRANCH   1  19
TORSDOF 11
ENDMDL
MODEL 2
REMARK VINA RESULT:      -7.1      3.150      5.726
REMARK  Name = 
REMARK  14 active torsions:
REMARK  status: ('A' for Active; 'I' for Inactive)
REMARK    1  A    between atoms: C_1  and  C_2
REMARK    2  A    between atoms: C_4  and  N_5
REMARK    3  A    between atoms: C_7  and  C_8
REMARK    4  A    between atoms: C_8  and  O_9
REMARK    5  A    between atoms: O_9  and  C_10
REMARK    6  A    between atoms: C_10  and  C_11
REMARK    7  A    between atoms: C_11  and  N_12
REMARK    8  A    between atoms: C_11  and  C_13
REMARK    9  A    between atoms: C_13  and  C_14
REMARK   10  A    between atoms: C_13  and  O_15
REMARK   11  A    between atoms: O_15  and  C_16
REMARK   12  A    between atoms: C_16  and  C_17
REMARK   13  A    between atoms: C_19  and  C_20
REMARK   14  A    between atoms: C_22  and  N_23
REMARK                            x       y       z     vdW  Elec       q    Type
REMARK                         _______ _______ _______ _____ _____    ______ ____
ROOT
ATOM      1  C   UNL     1       7.810   5.728  18.520  0.00  0.00    +0.000 C 
ENDROOT
BRANCH   1   2
ATOM      2  N   UNL     1       7.228   5.584  19.877  0.00  0.00    +0.000 NA
ATOM      3  H   UNL     1       6.368   5.041  19.786  0.00  0.00    +0.000 HD
ATOM      4  H   UNL     1       6.918   6.519  20.161  0.00  0.00    +0.000 HD
ENDBRANCH   1   2
BRANCH   1   5
ATOM      5  C   UNL     1       7.340   4.583  17.576  0.00  0.00    +0.000 C 
ATOM      6  C   UNL     1       7.022   5.134  16.183  0.00  0.00    +0.000 C 
BRANCH   5   7
ATOM      7  O   UNL     1       6.191   3.922  18.133  0.00  0.00    +0.000 OA
BRANCH   7   8
ATOM      8  C   UNL     1       5.044   3.999  17.275  0.00  0.00    +0.000 C 
BRANCH   8   9
ATOM      9  C   UNL     1       3.787   4.234  18.076  0.00  0.00    +0.000 A 
ATOM     10  C   UNL     1       3.606   5.437  18.751  0.00  0.00    +0.000 A 
ATOM     11  C   UNL     1       2.437   5.627  19.484  0.00  0.00    +0.000 A 
ATOM     12  C   UNL     1       2.185   6.908  20.218  0.00  0.00    +0.000 C 
ATOM     13  C   UNL     1       1.492   4.597  19.509  0.00  0.00    +0.000 A 
ATOM     14  C   UNL     1       1.752   3.422  18.819  0.00  0.00    +0.000 A 
ATOM     15  N   UNL     1       2.873   3.227  18.111  0.00  0.00    +0.000 NA
BRANCH  14  16
ATOM     16  N   UNL     1       0.817   2.390  18.797  0.00  0.00    +0.000 N 
ATOM     17  H   UNL     1       1.256   1.483  18.889  0.00  0.00    +0.000 HD
ATOM     18  H   UNL     1       0.302   2.481  17.925  0.00  0.00    +0.000 HD
ENDBRANCH  14  16
ENDBRANCH   8   9
ENDBRANCH   7   8
ENDBRANCH   5   7
ENDBRANCH   1   5
BRANCH   1  19
ATOM     19  C   UNL     1       7.507   7.139  17.970  0.00  0.00    +0.000 C 
BRANCH  19  20
ATOM     20  O   UNL     1       8.461   8.060  18.522  0.00  0.00    +0.000 OA
BRANCH  20  21
ATOM     21  C   UNL     1       8.246   9.389  18.036  0.00  0.00    +0.000 C 
BRANCH  21  27
ATOM     22  C   UNL     1      11.955  12.784  17.727  0.00  0.00    +0.000 C 
ATOM     23  C   UNL     1      10.949  12.015  18.530  0.00  0.00    +0.000 A 
ATOM     24  C   UNL     1      10.802  12.221  19.901  0.00  0.00    +0.000 A 
ATOM     25  C   UNL     1       9.853  11.486  20.596  0.00  0.00    +0.000 A 
ATOM     26  N   UNL     1       9.051  10.586  20.010  0.00  0.00    +0.000 NA
ATOM     27  C   UNL     1       9.196  10.372  18.678  0.00  0.00    +0.000 A 
ATOM     28  C   UNL     1      10.123  11.077  17.910  0.00  0.00    +0.000 A 
BRANCH  25  29
ATOM     29  N   UNL     1       9.662  11.692  21.961  0.00  0.00    +0.000 N 
ATOM     30  H   UNL     1       9.543  10.816  22.453  0.00  0.00    +0.000 HD
ATOM     31  H   UNL     1       8.846  12.292  22.052  0.00  0.00    +0.000 HD
ENDBRANCH  25  29
ENDBRANCH  21  27
ENDBRANCH  20  21
ENDBRANCH  19  20
ENDBRANCH   1  19
TORSDOF 11
ENDMDL
MODEL 3
REMARK VINA RESULT:      -6.9      2.911      7.590
REMARK  Name = 
REMARK  14 active torsions:
REMARK  status: ('A' for Active; 'I' for Inactive)
REMARK    1  A    between atoms: C_1  and  C_2
REMARK    2  A    between atoms: C_4  and  N_5
REMARK    3  A    between atoms: C_7  and  C_8
REMARK    4  A    between atoms: C_8  and  O_9
REMARK    5  A    between atoms: O_9  and  C_10
REMARK    6  A    between atoms: C_10  and  C_11
REMARK    7  A    between atoms: C_11  and  N_12
REMARK    8  A    between atoms: C_11  and  C_13
REMARK    9  A    between atoms: C_13  and  C_14
REMARK   10  A    between atoms: C_13  and  O_15
REMARK   11  A    between atoms: O_15  and  C_16
REMARK   12  A    between atoms: C_16  and  C_17
REMARK   13  A    between atoms: C_19  and  C_20
REMARK   14  A    between atoms: C_22  and  N_23
REMARK                            x       y       z     vdW  Elec       q    Type
REMARK                         _______ _______ _______ _____ _____    ______ ____
ROOT
ATOM      1  C   UNL     1       4.829   3.955  18.695  0.00  0.00    +0.000 C 
ENDROOT
BRANCH   1   2
ATOM      2  N   UNL     1       4.996   2.850  19.670  0.00  0.00    +0.000 NA
ATOM      3  H   UNL     1       4.612   2.005  19.244  0.00  0.00    +0.000 HD
ATOM      4  H   UNL     1       4.366   3.056  20.453  0.00  0.00    +0.000 HD
ENDBRANCH   1   2
BRANCH   1   5
ATOM      5  C   UNL     1       3.715   3.635  17.657  0.00  0.00    +0.000 C 
ATOM      6  C   UNL     1       3.194   2.209  17.852  0.00  0.00    +0.000 C 
BRANCH   5   7
ATOM      7  O   UNL     1       4.217   3.812  16.322  0.00  0.00    +0.000 OA
BRANCH   7   8
ATOM      8  C   UNL     1       5.494   4.467  16.297  0.00  0.00    +0.000 C 
BRANCH   8   9
ATOM      9  C   UNL     1       6.093   4.426  14.913  0.00  0.00    +0.000 A 
ATOM     10  C   UNL     1       5.527   3.618  13.932  0.00  0.00    +0.000 A 
ATOM     11  C   UNL     1       6.101   3.599  12.663  0.00  0.00    +0.000 A 
ATOM     12  C   UNL     1       5.523   2.759  11.566  0.00  0.00    +0.000 C 
ATOM     13  C   UNL     1       7.226   4.395  12.429  0.00  0.00    +0.000 A 
ATOM     14  C   UNL     1       7.739   5.163  13.464  0.00  0.00    +0.000 A 
ATOM     15  N   UNL     1       7.196   5.190  14.688  0.00  0.00    +0.000 NA
BRANCH  14  16
ATOM     16  N   UNL     1       8.839   5.991  13.254  0.00  0.00    +0.000 N 
ATOM     17  H   UNL     1       9.317   6.207  14.119  0.00  0.00    +0.000 HD
ATOM     18  H   UNL     1       8.491   6.827  12.789  0.00  0.00    +0.000 HD
ENDBRANCH  14  16
ENDBRANCH   8   9
ENDBRANCH   7   8
ENDBRANCH   5   7
ENDBRANCH   1   5
BRANCH   1  19
ATOM     19  C   UNL     1       4.602   5.285  19.447  0.00  0.00    +0.000 C 
BRANCH  19  20
ATOM     20  O   UNL     1       3.225   5.665  19.299  0.00  0.00    +0.000 OA
BRANCH  20  21
ATOM     21  C   UNL     1       3.089   6.816  18.458  0.00  0.00    +0.000 C 
BRANCH  21  27
ATOM     22  C   UNL     1       0.846   8.999  22.405  0.00  0.00    +0.000 C 
ATOM     23  C   UNL     1       1.066   8.878  20.927  0.00  0.00    +0.000 A 
ATOM     24  C   UNL     1       0.428   9.730  20.025  0.00  0.00    +0.000 A 
ATOM     25  C   UNL     1       0.669   9.578  18.668  0.00  0.00    +0.000 A 
ATOM     26  N   UNL     1       1.502   8.654  18.171  0.00  0.00    +0.000 NA
ATOM     27  C   UNL     1       2.118   7.814  19.042  0.00  0.00    +0.000 A 
ATOM     28  C   UNL     1       1.932   7.909  20.421  0.00  0.00    +0.000 A 
BRANCH  25  29
ATOM     29  N   UNL     1       0.070  10.434  17.745  0.00  0.00    +0.000 N 
ATOM     30  H   UNL     1       0.737  11.094  17.366  0.00  0.00    +0.000 HD
ATOM     31  H   UNL     1      -0.690  10.900  18.234  0.00  0.00    +0.000 HD
ENDBRANCH  25  29
ENDBRANCH  21  27
ENDBRANCH  20  21
ENDBRANCH  19  20
ENDBRANCH   1  19
TORSDOF 11
ENDMDL
MODEL 4
REMARK VINA RESULT:      -6.9      1.896      2.626
REMARK  Name = 
REMARK  14 active torsions:
REMARK  status: ('A' for Active; 'I' for Inactive)
REMARK    1  A    between atoms: C_1  and  C_2
REMARK    2  A    between atoms: C_4  and  N_5
REMARK    3  A    between atoms: C_7  and  C_8
REMARK    4  A    between atoms: C_8  and  O_9
REMARK    5  A    between atoms: O_9  and  C_10
REMARK    6  A    between atoms: C_10  and  C_11
REMARK    7  A    between atoms: C_11  and  N_12
REMARK    8  A    between atoms: C_11  and  C_13
REMARK    9  A    between atoms: C_13  and  C_14
REMARK   10  A    between atoms: C_13  and  O_15
REMARK   11  A    between atoms: O_15  and  C_16
REMARK   12  A    between atoms: C_16  and  C_17
REMARK   13  A    between atoms: C_19  and  C_20
REMARK   14  A    between atoms: C_22  and  N_23
REMARK                            x       y       z     vdW  Elec       q    Type
REMARK                         _______ _______ _______ _____ _____    ______ ____
ROOT
ATOM      1  C   UNL     1       1.465   3.294  19.137  0.00  0.00    +0.000 C 
ENDROOT
BRANCH   1   2
ATOM      2  N   UNL     1       0.126   2.664  19.248  0.00  0.00    +0.000 NA
ATOM      3  H   UNL     1      -0.222   2.514  18.299  0.00  0.00    +0.000 HD
ATOM      4  H   UNL     1      -0.497   3.375  19.645  0.00  0.00    +0.000 HD
ENDBRANCH   1   2
BRANCH   1   5
ATOM      5  C   UNL     1       2.005   3.728  20.530  0.00  0.00    +0.000 C 
ATOM      6  C   UNL     1       1.447   2.820  21.629  0.00  0.00    +0.000 C 
BRANCH   5   7
ATOM      7  O   UNL     1       1.664   5.101  20.787  0.00  0.00    +0.000 OA
BRANCH   7   8
ATOM      8  C   UNL     1       2.435   6.017  19.997  0.00  0.00    +0.000 C 
BRANCH   8   9
ATOM      9  C   UNL     1       1.833   7.400  20.034  0.00  0.00    +0.000 A 
ATOM     10  C   UNL     1       1.167   7.840  21.173  0.00  0.00    +0.000 A 
ATOM     11  C   UNL     1       0.620   9.120  21.180  0.00  0.00    +0.000 A 
ATOM     12  C   UNL     1      -0.095   9.649  22.384  0.00  0.00    +0.000 C 
ATOM     13  C   UNL     1       0.766   9.913  20.037  0.00  0.00    +0.000 A 
ATOM     14  C   UNL     1       1.433   9.397  18.936  0.00  0.00    +0.000 A 
ATOM     15  N   UNL     1       1.963   8.166  18.917  0.00  0.00    +0.000 NA
BRANCH  14  16
ATOM     16  N   UNL     1       1.624  10.172  17.794  0.00  0.00    +0.000 N 
ATOM     17  H   UNL     1       0.896  10.866  17.686  0.00  0.00    +0.000 HD
ATOM     18  H   UNL     1       1.660   9.529  17.007  0.00  0.00    +0.000 HD
ENDBRANCH  14  16
ENDBRANCH   8   9
ENDBRANCH   7   8
ENDBRANCH   5   7
ENDBRANCH   1   5
BRANCH   1  19
ATOM     19  C   UNL     1       2.423   2.353  18.375  0.00  0.00    +0.000 C 
BRANCH  19  20
ATOM     20  O   UNL     1       3.021   3.087  17.294  0.00  0.00    +0.000 OA
BRANCH  20  21
ATOM     21  C   UNL     1       3.862   4.138  17.780  0.00  0.00    +0.000 C 
BRANCH  21  27
ATOM     22  C   UNL     1       6.068   3.581  13.285  0.00  0.00    +0.000 C 
ATOM     23  C   UNL     1       6.000   4.222  14.639  0.00  0.00    +0.000 A 
ATOM     24  C   UNL     1       6.915   5.201  15.027  0.00  0.00    +0.000 A 
ATOM     25  C   UNL     1       6.805   5.765  16.288  0.00  0.00    +0.000 A 
ATOM     26  N   UNL     1       5.847   5.425  17.162  0.00  0.00    +0.000 NA
ATOM     27  C   UNL     1       4.960   4.465  16.796  0.00  0.00    +0.000 A 
ATOM     28  C   UNL     1       5.001   3.856  15.541  0.00  0.00    +0.000 A 
BRANCH  25  29
ATOM     29  N   UNL     1       7.686   6.767  16.693  0.00  0.00    +0.000 N 
ATOM     30  H   UNL     1       8.242   7.105  15.918  0.00  0.00    +0.000 HD
ATOM     31  H   UNL     1       8.263   6.366  17.427  0.00  0.00    +0.000 HD
ENDBRANCH  25  29
ENDBRANCH  21  27
ENDBRANCH  20  21
ENDBRANCH  19  20
ENDBRANCH   1  19
TORSDOF 11
ENDMDL
MODEL 5
REMARK VINA RESULT:      -6.8      1.990      2.566
REMARK  Name = 
REMARK  14 active torsions:
REMARK  status: ('A' for Active; 'I' for Inactive)
REMARK    1  A    between atoms: C_1  and  C_2
REMARK    2  A    between atoms: C_4  and  N_5
REMARK    3  A    between atoms: C_7  and  C_8
REMARK    4  A    between atoms: C_8  and  O_9
REMARK    5  A    between atoms: O_9  and  C_10
REMARK    6  A    between atoms: C_10  and  C_11
REMARK    7  A    between atoms: C_11  and  N_12
REMARK    8  A    between atoms: C_11  and  C_13
REMARK    9  A    between atoms: C_13  and  C_14
REMARK   10  A    between atoms: C_13  and  O_15
REMARK   11  A    between atoms: O_15  and  C_16
REMARK   12  A    between atoms: C_16  and  C_17
REMARK   13  A    between atoms: C_19  and  C_20
REMARK   14  A    between atoms: C_22  and  N_23
REMARK                            x       y       z     vdW  Elec       q    Type
REMARK                         _______ _______ _______ _____ _____    ______ ____
ROOT
ATOM      1  C   UNL     1       2.361   3.158  19.499  0.00  0.00    +0.000 C 
ENDROOT
BRANCH   1   2
ATOM      2  N   UNL     1       1.189   2.280  19.267  0.00  0.00    +0.000 NA
ATOM      3  H   UNL     1       1.316   1.441  19.836  0.00  0.00    +0.000 HD
ATOM      4  H   UNL     1       1.260   1.950  18.298  0.00  0.00    +0.000 HD
ENDBRANCH   1   2
BRANCH   1   5
ATOM      5  C   UNL     1       2.453   3.602  20.988  0.00  0.00    +0.000 C 
ATOM      6  C   UNL     1       1.515   2.760  21.857  0.00  0.00    +0.000 C 
BRANCH   5   7
ATOM      7  O   UNL     1       2.135   4.999  21.108  0.00  0.00    +0.000 OA
BRANCH   7   8
ATOM      8  C   UNL     1       2.587   5.765  19.982  0.00  0.00    +0.000 C 
BRANCH   8   9
ATOM      9  C   UNL     1       1.965   7.139  19.980  0.00  0.00    +0.000 A 
ATOM     10  C   UNL     1       1.257   7.585  21.092  0.00  0.00    +0.000 A 
ATOM     11  C   UNL     1       0.692   8.858  21.063  0.00  0.00    +0.000 A 
ATOM     12  C   UNL     1      -0.068   9.392  22.237  0.00  0.00    +0.000 C 
ATOM     13  C   UNL     1       0.863   9.636  19.914  0.00  0.00    +0.000 A 
ATOM     14  C   UNL     1       1.572   9.115  18.842  0.00  0.00    +0.000 A 
ATOM     15  N   UNL     1       2.119   7.892  18.858  0.00  0.00    +0.000 NA
BRANCH  14  16
ATOM     16  N   UNL     1       1.787   9.877  17.696  0.00  0.00    +0.000 N 
ATOM     17  H   UNL     1       1.501  10.839  17.826  0.00  0.00    +0.000 HD
ATOM     18  H   UNL     1       1.276   9.423  16.943  0.00  0.00    +0.000 HD
ENDBRANCH  14  16
ENDBRANCH   8   9
ENDBRANCH   7   8
ENDBRANCH   5   7
ENDBRANCH   1   5
BRANCH   1  19
ATOM     19  C   UNL     1       3.643   2.465  18.986  0.00  0.00    +0.000 C 
BRANCH  19  20
ATOM     20  O   UNL     1       3.630   2.487  17.550  0.00  0.00    +0.000 OA
BRANCH  20  21
ATOM     21  C   UNL     1       3.444   3.815  17.049  0.00  0.00    +0.000 C 
BRANCH  21  27
ATOM     22  C   UNL     1       7.518   6.756  17.414  0.00  0.00    +0.000 C 
ATOM     23  C   UNL     1       6.688   5.757  16.664  0.00  0.00    +0.000 A 
ATOM     24  C   UNL     1       7.098   5.251  15.431  0.00  0.00    +0.000 A 
ATOM     25  C   UNL     1       6.295   4.327  14.781  0.00  0.00    +0.000 A 
ATOM     26  N   UNL     1       5.137   3.878  15.286  0.00  0.00    +0.000 NA
ATOM     27  C   UNL     1       4.727   4.375  16.481  0.00  0.00    +0.000 A 
ATOM     28  C   UNL     1       5.483   5.302  17.199  0.00  0.00    +0.000 A 
BRANCH  25  29
ATOM     29  N   UNL     1       6.692   3.780  13.562  0.00  0.00    +0.000 N 
ATOM     30  H   UNL     1       6.549   2.779  13.542  0.00  0.00    +0.000 HD
ATOM     31  H   UNL     1       7.672   4.026  13.441  0.00  0.00    +0.000 HD
ENDBRANCH  25  29
ENDBRANCH  21  27
ENDBRANCH  20  21
ENDBRANCH  19  20
ENDBRANCH   1  19
TORSDOF 11
ENDMDL
MODEL 6
REMARK VINA RESULT:      -6.8      3.402      5.786
REMARK  Name = 
REMARK  14 active torsions:
REMARK  status: ('A' for Active; 'I' for Inactive)
REMARK    1  A    between atoms: C_1  and  C_2
REMARK    2  A    between atoms: C_4  and  N_5
REMARK    3  A    between atoms: C_7  and  C_8
REMARK    4  A    between atoms: C_8  and  O_9
REMARK    5  A    between atoms: O_9  and  C_10
REMARK    6  A    between atoms: C_10  and  C_11
REMARK    7  A    between atoms: C_11  and  N_12
REMARK    8  A    between atoms: C_11  and  C_13
REMARK    9  A    between atoms: C_13  and  C_14
REMARK   10  A    between atoms: C_13  and  O_15
REMARK   11  A    between atoms: O_15  and  C_16
REMARK   12  A    between atoms: C_16  and  C_17
REMARK   13  A    between atoms: C_19  and  C_20
REMARK   14  A    between atoms: C_22  and  N_23
REMARK                            x       y       z     vdW  Elec       q    Type
REMARK                         _______ _______ _______ _____ _____    ______ ____
ROOT
ATOM      1  C   UNL     1       8.041   5.925  18.472  0.00  0.00    +0.000 C 
ENDROOT
BRANCH   1   2
ATOM      2  N   UNL     1       7.880   6.012  19.944  0.00  0.00    +0.000 NA
ATOM      3  H   UNL     1       7.479   5.128  20.262  0.00  0.00    +0.000 HD
ATOM      4  H   UNL     1       7.146   6.708  20.115  0.00  0.00    +0.000 HD
ENDBRANCH   1   2
BRANCH   1   5
ATOM      5  C   UNL     1       7.416   4.615  17.909  0.00  0.00    +0.000 C 
ATOM      6  C   UNL     1       6.998   4.806  16.448  0.00  0.00    +0.000 C 
BRANCH   5   7
ATOM      7  O   UNL     1       6.289   4.220  18.709  0.00  0.00    +0.000 OA
BRANCH   7   8
ATOM      8  C   UNL     1       5.042   4.374  18.016  0.00  0.00    +0.000 C 
BRANCH   8   9
ATOM      9  C   UNL     1       3.910   4.600  18.988  0.00  0.00    +0.000 A 
ATOM     10  C   UNL     1       3.337   3.521  19.654  0.00  0.00    +0.000 A 
ATOM     11  C   UNL     1       2.294   3.758  20.545  0.00  0.00    +0.000 A 
ATOM     12  C   UNL     1       1.651   2.635  21.298  0.00  0.00    +0.000 C 
ATOM     13  C   UNL     1       1.866   5.075  20.734  0.00  0.00    +0.000 A 
ATOM     14  C   UNL     1       2.480   6.096  20.023  0.00  0.00    +0.000 A 
ATOM     15  N   UNL     1       3.485   5.880  19.163  0.00  0.00    +0.000 NA
BRANCH  14  16
ATOM     16  N   UNL     1       2.099   7.422  20.213  0.00  0.00    +0.000 N 
ATOM     17  H   UNL     1       1.093   7.523  20.240  0.00  0.00    +0.000 HD
ATOM     18  H   UNL     1       2.519   7.958  19.457  0.00  0.00    +0.000 HD
ENDBRANCH  14  16
ENDBRANCH   8   9
ENDBRANCH   7   8
ENDBRANCH   5   7
ENDBRANCH   1   5
BRANCH   1  19
ATOM     19  C   UNL     1       7.483   7.204  17.809  0.00  0.00    +0.000 C 
BRANCH  19  20
ATOM     20  O   UNL     1       8.296   8.318  18.210  0.00  0.00    +0.000 OA
BRANCH  20  21
ATOM     21  C   UNL     1       7.709   9.562  17.814  0.00  0.00    +0.000 C 
BRANCH  21  27
ATOM     22  C   UNL     1      12.055  11.419  19.559  0.00  0.00    +0.000 C 
ATOM     23  C   UNL     1      10.722  11.609  18.898  0.00  0.00    +0.000 A 
ATOM     24  C   UNL     1      10.304  12.862  18.451  0.00  0.00    +0.000 A 
ATOM     25  C   UNL     1       9.064  12.982  17.843  0.00  0.00    +0.000 A 
ATOM     26  N   UNL     1       8.240  11.943  17.649  0.00  0.00    +0.000 NA
ATOM     27  C   UNL     1       8.635  10.723  18.092  0.00  0.00    +0.000 A 
ATOM     28  C   UNL     1       9.871  10.520  18.706  0.00  0.00    +0.000 A 
BRANCH  25  29
ATOM     29  N   UNL     1       8.632  14.216  17.359  0.00  0.00    +0.000 N 
ATOM     30  H   UNL     1       9.235  14.554  16.620  0.00  0.00    +0.000 HD
ATOM     31  H   UNL     1       8.614  14.849  18.154  0.00  0.00    +0.000 HD
ENDBRANCH  25  29
ENDBRANCH  21  27
ENDBRANCH  20  21
ENDBRANCH  19  20
ENDBRANCH   1  19
TORSDOF 11
ENDMDL
MODEL 7
REMARK VINA RESULT:      -6.8      3.005      3.821
REMARK  Name = 
REMARK  14 active torsions:
REMARK  status: ('A' for Active; 'I' for Inactive)
REMARK    1  A    between atoms: C_1  and  C_2
REMARK    2  A    between atoms: C_4  and  N_5
REMARK    3  A    between atoms: C_7  and  C_8
REMARK    4  A    between atoms: C_8  and  O_9
REMARK    5  A    between atoms: O_9  and  C_10
REMARK    6  A    between atoms: C_10  and  C_11
REMARK    7  A    between atoms: C_11  and  N_12
REMARK    8  A    between atoms: C_11  and  C_13
REMARK    9  A    between atoms: C_13  and  C_14
REMARK   10  A    between atoms: C_13  and  O_15
REMARK   11  A    between atoms: O_15  and  C_16
REMARK   12  A    between atoms: C_16  and  C_17
REMARK   13  A    between atoms: C_19  and  C_20
REMARK   14  A    between atoms: C_22  and  N_23
REMARK                            x       y       z     vdW  Elec       q    Type
REMARK                         _______ _______ _______ _____ _____    ______ ____
ROOT
ATOM      1  C   UNL     1       3.526   2.920  18.450  0.00  0.00    +0.000 C 
ENDROOT
BRANCH   1   2
ATOM      2  N   UNL     1       4.006   1.569  18.829  0.00  0.00    +0.000 NA
ATOM      3  H   UNL     1       4.861   1.387  18.301  0.00  0.00    +0.000 HD
ATOM      4  H   UNL     1       3.322   0.902  18.456  0.00  0.00    +0.000 HD
ENDBRANCH   1   2
BRANCH   1   5
ATOM      5  C   UNL     1       2.590   3.518  19.540  0.00  0.00    +0.000 C 
ATOM      6  C   UNL     1       1.157   3.016  19.349  0.00  0.00    +0.000 C 
BRANCH   5   7
ATOM      7  O   UNL     1       2.633   4.955  19.494  0.00  0.00    +0.000 OA
BRANCH   7   8
ATOM      8  C   UNL     1       2.060   5.559  20.663  0.00  0.00    +0.000 C 
BRANCH   8   9
ATOM      9  C   UNL     1       1.680   6.994  20.397  0.00  0.00    +0.000 A 
ATOM     10  C   UNL     1       0.972   7.717  21.352  0.00  0.00    +0.000 A 
ATOM     11  C   UNL     1       0.634   9.040  21.080  0.00  0.00    +0.000 A 
ATOM     12  C   UNL     1      -0.115   9.867  22.078  0.00  0.00    +0.000 C 
ATOM     13  C   UNL     1       1.023   9.588  19.854  0.00  0.00    +0.000 A 
ATOM     14  C   UNL     1       1.717   8.798  18.948  0.00  0.00    +0.000 A 
ATOM     15  N   UNL     1       2.047   7.524  19.199  0.00  0.00    +0.000 NA
BRANCH  14  16
ATOM     16  N   UNL     1       2.147   9.324  17.732  0.00  0.00    +0.000 N 
ATOM     17  H   UNL     1       1.948   8.699  16.962  0.00  0.00    +0.000 HD
ATOM     18  H   UNL     1       3.143   9.508  17.830  0.00  0.00    +0.000 HD
ENDBRANCH  14  16
ENDBRANCH   8   9
ENDBRANCH   7   8
ENDBRANCH   5   7
ENDBRANCH   1   5
BRANCH   1  19
ATOM     19  C   UNL     1       4.731   3.826  18.113  0.00  0.00    +0.000 C 
BRANCH  19  20
ATOM     20  O   UNL     1       5.032   3.685  16.715  0.00  0.00    +0.000 OA
BRANCH  20  21
ATOM     21  C   UNL     1       5.611   4.881  16.183  0.00  0.00    +0.000 C 
BRANCH  21  27
ATOM     22  C   UNL     1       5.556   2.642  11.670  0.00  0.00    +0.000 C 
ATOM     23  C   UNL     1       6.170   3.596  12.650  0.00  0.00    +0.000 A 
ATOM     24  C   UNL     1       7.290   4.358  12.318  0.00  0.00    +0.000 A 
ATOM     25  C   UNL     1       7.816   5.230  13.259  0.00  0.00    +0.000 A 
ATOM     26  N   UNL     1       7.293   5.390  14.482  0.00  0.00    +0.000 NA
ATOM     27  C   UNL     1       6.210   4.643  14.816  0.00  0.00    +0.000 A 
ATOM     28  C   UNL     1       5.619   3.751  13.921  0.00  0.00    +0.000 A 
BRANCH  25  29
ATOM     29  N   UNL     1       8.916   6.027  12.946  0.00  0.00    +0.000 N 
ATOM     30  H   UNL     1       8.728   6.618  12.146  0.00  0.00    +0.000 HD
ATOM     31  H   UNL     1       9.693   5.394  12.776  0.00  0.00    +0.000 HD
ENDBRANCH  25  29
ENDBRANCH  21  27
ENDBRANCH  20  21
ENDBRANCH  19  20
ENDBRANCH   1  19
TORSDOF 11
ENDMDL
MODEL 8
REMARK VINA RESULT:      -6.7      3.008      3.901
REMARK  Name = 
REMARK  14 active torsions:
REMARK  status: ('A' for Active; 'I' for Inactive)
REMARK    1  A    between atoms: C_1  and  C_2
REMARK    2  A    between atoms: C_4  and  N_5
REMARK    3  A    between atoms: C_7  and  C_8
REMARK    4  A    between atoms: C_8  and  O_9
REMARK    5  A    between atoms: O_9  and  C_10
REMARK    6  A    between atoms: C_10  and  C_11
REMARK    7  A    between atoms: C_11  and  N_12
REMARK    8  A    between atoms: C_11  and  C_13
REMARK    9  A    between atoms: C_13  and  C_14
REMARK   10  A    between atoms: C_13  and  O_15
REMARK   11  A    between atoms: O_15  and  C_16
REMARK   12  A    between atoms: C_16  and  C_17
REMARK   13  A    between atoms: C_19  and  C_20
REMARK   14  A    between atoms: C_22  and  N_23
REMARK                            x       y       z     vdW  Elec       q    Type
REMARK                         _______ _______ _______ _____ _____    ______ ____
ROOT
ATOM      1  C   UNL     1       4.160   3.590  18.741  0.00  0.00    +0.000 C 
ENDROOT
BRANCH   1   2
ATOM      2  N   UNL     1       4.732   2.777  19.842  0.00  0.00    +0.000 NA
ATOM      3  H   UNL     1       4.981   3.417  20.598  0.00  0.00    +0.000 HD
ATOM      4  H   UNL     1       5.628   2.414  19.501  0.00  0.00    +0.000 HD
ENDBRANCH   1   2
BRANCH   1   5
ATOM      5  C   UNL     1       2.873   4.338  19.195  0.00  0.00    +0.000 C 
ATOM      6  C   UNL     1       1.850   4.382  18.057  0.00  0.00    +0.000 C 
BRANCH   5   7
ATOM      7  O   UNL     1       3.202   5.668  19.631  0.00  0.00    +0.000 OA
BRANCH   7   8
ATOM      8  C   UNL     1       2.922   6.659  18.631  0.00  0.00    +0.000 C 
BRANCH   8   9
ATOM      9  C   UNL     1       2.103   7.788  19.206  0.00  0.00    +0.000 A 
ATOM     10  C   UNL     1       1.800   7.808  20.564  0.00  0.00    +0.000 A 
ATOM     11  C   UNL     1       1.041   8.861  21.068  0.00  0.00    +0.000 A 
ATOM     12  C   UNL     1       0.699   8.939  22.524  0.00  0.00    +0.000 C 
ATOM     13  C   UNL     1       0.617   9.859  20.185  0.00  0.00    +0.000 A 
ATOM     14  C   UNL     1       0.950   9.760  18.842  0.00  0.00    +0.000 A 
ATOM     15  N   UNL     1       1.678   8.751  18.345  0.00  0.00    +0.000 NA
BRANCH  14  16
ATOM     16  N   UNL     1       0.570  10.754  17.943  0.00  0.00    +0.000 N 
ATOM     17  H   UNL     1       0.908  11.665  18.224  0.00  0.00    +0.000 HD
ATOM     18  H   UNL     1      -0.445  10.723  17.885  0.00  0.00    +0.000 HD
ENDBRANCH  14  16
ENDBRANCH   8   9
ENDBRANCH   7   8
ENDBRANCH   5   7
ENDBRANCH   1   5
BRANCH   1  19
ATOM     19  C   UNL     1       5.245   4.529  18.168  0.00  0.00    +0.000 C 
BRANCH  19  20
ATOM     20  O   UNL     1       5.439   4.211  16.781  0.00  0.00    +0.000 OA
BRANCH  20  21
ATOM     21  C   UNL     1       6.772   4.516  16.358  0.00  0.00    +0.000 C 
BRANCH  21  27
ATOM     22  C   UNL     1       5.384   2.692  11.872  0.00  0.00    +0.000 C 
ATOM     23  C   UNL     1       6.217   3.618  12.707  0.00  0.00    +0.000 A 
ATOM     24  C   UNL     1       7.103   4.524  12.124  0.00  0.00    +0.000 A 
ATOM     25  C   UNL     1       7.847   5.361  12.942  0.00  0.00    +0.000 A 
ATOM     26  N   UNL     1       7.750   5.354  14.279  0.00  0.00    +0.000 NA
ATOM     27  C   UNL     1       6.898   4.467  14.853  0.00  0.00    +0.000 A 
ATOM     28  C   UNL     1       6.111   3.598  14.097  0.00  0.00    +0.000 A 
BRANCH  25  29
ATOM     29  N   UNL     1       8.718   6.298  12.388  0.00  0.00    +0.000 N 
ATOM     30  H   UNL     1       8.889   7.064  13.026  0.00  0.00    +0.000 HD
ATOM     31  H   UNL     1       8.289   6.613  11.522  0.00  0.00    +0.000 HD
ENDBRANCH  25  29
ENDBRANCH  21  27
ENDBRANCH  20  21
ENDBRANCH  19  20
ENDBRANCH   1  19
TORSDOF 11
ENDMDL
MODEL 9
REMARK VINA RESULT:      -6.7      2.129      7.330
REMARK  Name = 
REMARK  14 active torsions:
REMARK  status: ('A' for Active; 'I' for Inactive)
REMARK    1  A    between atoms: C_1  and  C_2
REMARK    2  A    between atoms: C_4  and  N_5
REMARK    3  A    between atoms: C_7  and  C_8
REMARK    4  A    between atoms: C_8  and  O_9
REMARK    5  A    between atoms: O_9  and  C_10
REMARK    6  A    between atoms: C_10  and  C_11
REMARK    7  A    between atoms: C_11  and  N_12
REMARK    8  A    between atoms: C_11  and  C_13
REMARK    9  A    between atoms: C_13  and  C_14
REMARK   10  A    between atoms: C_13  and  O_15
REMARK   11  A    between atoms: O_15  and  C_16
REMARK   12  A    between atoms: C_16  and  C_17
REMARK   13  A    between atoms: C_19  and  C_20
REMARK   14  A    between atoms: C_22  and  N_23
REMARK                            x       y       z     vdW  Elec       q    Type
REMARK                         _______ _______ _______ _____ _____    ______ ____
ROOT
ATOM      1  C   UNL     1       2.461   5.846  19.503  0.00  0.00    +0.000 C 
ENDROOT
BRANCH   1   2
ATOM      2  N   UNL     1       1.939   6.479  20.739  0.00  0.00    +0.000 NA
ATOM      3  H   UNL     1       1.448   7.331  20.463  0.00  0.00    +0.000 HD
ATOM      4  H   UNL     1       2.756   6.807  21.265  0.00  0.00    +0.000 HD
ENDBRANCH   1   2
BRANCH   1   5
ATOM      5  C   UNL     1       1.724   4.510  19.194  0.00  0.00    +0.000 C 
ATOM      6  C   UNL     1       1.113   3.927  20.472  0.00  0.00    +0.000 C 
BRANCH   5   7
ATOM      7  O   UNL     1       2.633   3.571  18.594  0.00  0.00    +0.000 OA
BRANCH   7   8
ATOM      8  C   UNL     1       3.884   3.496  19.291  0.00  0.00    +0.000 C 
BRANCH   8   9
ATOM      9  C   UNL     1       5.014   4.000  18.427  0.00  0.00    +0.000 A 
ATOM     10  C   UNL     1       4.995   3.773  17.054  0.00  0.00    +0.000 A 
ATOM     11  C   UNL     1       6.050   4.248  16.280  0.00  0.00    +0.000 A 
ATOM     12  C   UNL     1       6.073   4.044  14.797  0.00  0.00    +0.000 C 
ATOM     13  C   UNL     1       7.086   4.937  16.917  0.00  0.00    +0.000 A 
ATOM     14  C   UNL     1       7.038   5.112  18.292  0.00  0.00    +0.000 A 
ATOM     15  N   UNL     1       6.028   4.659  19.048  0.00  0.00    +0.000 NA
BRANCH  14  16
ATOM     16  N   UNL     1       8.038   5.822  18.953  0.00  0.00    +0.000 N 
ATOM     17  H   UNL     1       8.544   6.432  18.323  0.00  0.00    +0.000 HD
ATOM     18  H   UNL     1       8.646   5.133  19.390  0.00  0.00    +0.000 HD
ENDBRANCH  14  16
ENDBRANCH   8   9
ENDBRANCH   7   8
ENDBRANCH   5   7
ENDBRANCH   1   5
BRANCH   1  19
ATOM     19  C   UNL     1       2.410   6.857  18.337  0.00  0.00    +0.000 C 
BRANCH  19  20
ATOM     20  O   UNL     1       2.441   8.185  18.882  0.00  0.00    +0.000 OA
BRANCH  20  21
ATOM     21  C   UNL     1       1.985   9.151  17.929  0.00  0.00    +0.000 C 
BRANCH  21  27
ATOM     22  C   UNL     1      -2.921  10.240  17.573  0.00  0.00    +0.000 C 
ATOM     23  C   UNL     1      -1.599  10.370  18.269  0.00  0.00    +0.000 A 
ATOM     24  C   UNL     1      -1.465  11.112  19.441  0.00  0.00    +0.000 A 
ATOM     25  C   UNL     1      -0.220  11.197  20.047  0.00  0.00    +0.000 A 
ATOM     26  N   UNL     1       0.871  10.585  19.567  0.00  0.00    +0.000 NA
ATOM     27  C   UNL     1       0.750   9.870  18.419  0.00  0.00    +0.000 A 
ATOM     28  C   UNL     1      -0.470   9.732  17.756  0.00  0.00    +0.000 A 
BRANCH  25  29
ATOM     29  N   UNL     1      -0.061  11.906  21.237  0.00  0.00    +0.000 N 
ATOM     30  H   UNL     1       0.680  11.514  21.803  0.00  0.00    +0.000 HD
ATOM     31  H   UNL     1      -0.959  11.877  21.713  0.00  0.00    +0.000 HD
ENDBRANCH  25  29
ENDBRANCH  21  27
ENDBRANCH  20  21
ENDBRANCH  19  20
ENDBRANCH   1  19
TORSDOF 11
ENDMDL
