MODEL 1
REMARK VINA RESULT:      -6.6      0.000      0.000
REMARK  Name = 
REMARK  8 active torsions:
REMARK  status: ('A' for Active; 'I' for Inactive)
REMARK    1  A    between atoms: C_1  and  C_2
REMARK    2  A    between atoms: C_2  and  CA_3
REMARK    3  A    between atoms: CA_3  and  C_4
REMARK    4  A    between atoms: CA_3  and  N_6
REMARK    5  A    between atoms: C_4  and  O_5
REMARK    6  A    between atoms: C_7  and  C_9
REMARK    7  A    between atoms: N_20  and  C_21
REMARK    8  A    between atoms: N_24  and  C_25
REMARK                            x       y       z     vdW  Elec       q    Type
REMARK                         _______ _______ _______ _____ _____    ______ ____
ROOT
ATOM      1  C   UNL     1       6.779   4.647  15.611  0.00  0.00    +0.000 C 
ATOM      2  C   UNL     1       6.592   4.122  17.063  0.00  0.00    +0.000 C 
ATOM      3  C   UNL     1       5.717   4.769  17.868  0.00  0.00    +0.000 C 
ATOM      4  C   UNL     1       4.993   4.105  18.971  0.00  0.00    +0.000 A 
ATOM      5  C   UNL     1       5.412   3.253  19.989  0.00  0.00    +0.000 A 
ATOM      6  C   UNL     1       4.467   2.457  20.667  0.00  0.00    +0.000 A 
ATOM      7  C   UNL     1       3.118   2.392  20.259  0.00  0.00    +0.000 A 
ATOM      8  C   UNL     1       2.720   3.297  19.272  0.00  0.00    +0.000 A 
ATOM      9  C   UNL     1       3.608   4.229  18.775  0.00  0.00    +0.000 A 
ATOM     10  C   UNL     1       2.889   5.204  18.045  0.00  0.00    +0.000 A 
ATOM     11  C   UNL     1       1.650   4.654  17.802  0.00  0.00    +0.000 A 
ATOM     12  N   UNL     1       1.574   3.473  18.521  0.00  0.00    +0.000 N 
ATOM     13  C   UNL     1       0.529   2.484  18.374  0.00  0.00    +0.000 C 
ATOM     14  C   UNL     1       3.628   6.441  17.608  0.00  0.00    +0.000 C 
ATOM     15  C   UNL     1       5.060   5.986  17.196  0.00  0.00    +0.000 C 
ATOM     16  N   UNL     1       6.089   6.917  16.643  0.00  0.00    +0.000 NA
ATOM     17  C   UNL     1       7.281   7.143  17.487  0.00  0.00    +0.000 C 
ATOM     18  C   UNL     1       6.559   6.213  15.415  0.00  0.00    +0.000 C 
ENDROOT
BRANCH   1  20
ATOM     19  N   UNL     1       6.312   3.512  13.408  0.00  0.00    +0.000 N 
ATOM     20  C   UNL     1       5.795   3.962  14.610  0.00  0.00    +0.000 C 
ATOM     21  O   UNL     1       4.605   3.812  14.902  0.00  0.00    +0.000 OA
ATOM     22  H   UNL     1       7.307   3.572  13.217  0.00  0.00    +0.000 HD
BRANCH  19  23
ATOM     23  CA  UNL     1       5.508   2.837  12.389  0.00  0.00    +0.000 C 
BRANCH  23  25
ATOM     24  C   UNL     1       3.555   3.220  10.768  0.00  0.00    +0.000 C 
ATOM     25  C   UNL     1       4.663   3.852  11.599  0.00  0.00    +0.000 C 
ENDBRANCH  23  25
BRANCH  23  26
ATOM     26  C   UNL     1       6.413   2.031  11.428  0.00  0.00    +0.000 C 
BRANCH  26  27
ATOM     27  O   UNL     1       6.073   0.645  11.401  0.00  0.00    +0.000 OA
ATOM     28  H   UNL     1       6.252   0.273  12.281  0.00  0.00    +0.000 HD
ENDBRANCH  26  27
ENDBRANCH  23  26
ENDBRANCH  19  23
ENDBRANCH   1  20
TORSDOF 5
ENDMDL
MODEL 2
REMARK VINA RESULT:      -6.4      9.456     12.300
REMARK  Name = 
REMARK  8 active torsions:
REMARK  status: ('A' for Active; 'I' for Inactive)
REMARK    1  A    between atoms: C_1  and  C_2
REMARK    2  A    between atoms: C_2  and  CA_3
REMARK    3  A    between atoms: CA_3  and  C_4
REMARK    4  A    between atoms: CA_3  and  N_6
REMARK    5  A    between atoms: C_4  and  O_5
REMARK    6  A    between atoms: C_7  and  C_9
REMARK    7  A    between atoms: N_20  and  C_21
REMARK    8  A    between atoms: N_24  and  C_25
REMARK                            x       y       z     vdW  Elec       q    Type
REMARK                         _______ _______ _______ _____ _____    ______ ____
ROOT
ATOM      1  C   UNL     1      -3.742  13.881  21.552  0.00  0.00    +0.000 C 
ATOM      2  C   UNL     1      -2.341  14.326  21.044  0.00  0.00    +0.000 C 
ATOM      3  C   UNL     1      -1.256  13.652  21.494  0.00  0.00    +0.000 C 
ATOM      4  C   UNL     1      -0.008  13.520  20.714  0.00  0.00    +0.000 A 
ATOM      5  C   UNL     1       0.764  14.444  20.016  0.00  0.00    +0.000 A 
ATOM      6  C   UNL     1       1.680  13.996  19.043  0.00  0.00    +0.000 A 
ATOM      7  C   UNL     1       1.749  12.642  18.653  0.00  0.00    +0.000 A 
ATOM      8  C   UNL     1       1.002  11.735  19.408  0.00  0.00    +0.000 A 
ATOM      9  C   UNL     1       0.283  12.162  20.506  0.00  0.00    +0.000 A 
ATOM     10  C   UNL     1      -0.112  11.034  21.263  0.00  0.00    +0.000 A 
ATOM     11  C   UNL     1       0.051   9.948  20.433  0.00  0.00    +0.000 A 
ATOM     12  N   UNL     1       0.692  10.395  19.289  0.00  0.00    +0.000 N 
ATOM     13  C   UNL     1       0.857   9.618  18.080  0.00  0.00    +0.000 C 
ATOM     14  C   UNL     1      -0.709  11.276  22.624  0.00  0.00    +0.000 C 
ATOM     15  C   UNL     1      -1.603  12.546  22.503  0.00  0.00    +0.000 C 
ATOM     16  N   UNL     1      -2.423  13.082  23.630  0.00  0.00    +0.000 NA
ATOM     17  C   UNL     1      -2.021  14.404  24.154  0.00  0.00    +0.000 C 
ATOM     18  C   UNL     1      -3.772  13.254  23.017  0.00  0.00    +0.000 C 
ENDROOT
BRANCH   1  20
ATOM     19  N   UNL     1      -3.935  12.724  19.320  0.00  0.00    +0.000 N 
ATOM     20  C   UNL     1      -4.385  12.801  20.626  0.00  0.00    +0.000 C 
ATOM     21  O   UNL     1      -5.248  12.032  21.062  0.00  0.00    +0.000 OA
ATOM     22  H   UNL     1      -3.170  13.309  19.000  0.00  0.00    +0.000 HD
BRANCH  19  23
ATOM     23  CA  UNL     1      -4.437  11.748  18.352  0.00  0.00    +0.000 C 
BRANCH  23  25
ATOM     24  C   UNL     1      -6.984  11.676  18.039  0.00  0.00    +0.000 C 
ATOM     25  C   UNL     1      -5.665  12.300  17.606  0.00  0.00    +0.000 C 
ENDBRANCH  23  25
BRANCH  23  26
ATOM     26  C   UNL     1      -3.329  11.361  17.345  0.00  0.00    +0.000 C 
BRANCH  26  27
ATOM     27  O   UNL     1      -2.140  12.129  17.529  0.00  0.00    +0.000 OA
ATOM     28  H   UNL     1      -1.659  12.148  16.685  0.00  0.00    +0.000 HD
ENDBRANCH  26  27
ENDBRANCH  23  26
ENDBRANCH  19  23
ENDBRANCH   1  20
TORSDOF 5
ENDMDL
MODEL 3
REMARK VINA RESULT:      -6.4     10.182     12.656
REMARK  Name = 
REMARK  8 active torsions:
REMARK  status: ('A' for Active; 'I' for Inactive)
REMARK    1  A    between atoms: C_1  and  C_2
REMARK    2  A    between atoms: C_2  and  CA_3
REMARK    3  A    between atoms: CA_3  and  C_4
REMARK    4  A    between atoms: CA_3  and  N_6
REMARK    5  A    between atoms: C_4  and  O_5
REMARK    6  A    between atoms: C_7  and  C_9
REMARK    7  A    between atoms: N_20  and  C_21
REMARK    8  A    between atoms: N_24  and  C_25
REMARK                            x       y       z     vdW  Elec       q    Type
REMARK                         _______ _______ _______ _____ _____    ______ ____
ROOT
ATOM      1  C   UNL     1      10.655  12.298  20.517  0.00  0.00    +0.000 C 
ATOM      2  C   UNL     1      10.824  13.712  19.891  0.00  0.00    +0.000 C 
ATOM      3  C   UNL     1      10.157  13.986  18.746  0.00  0.00    +0.000 C 
ATOM      4  C   UNL     1       9.723  15.349  18.372  0.00  0.00    +0.000 A 
ATOM      5  C   UNL     1      10.382  16.575  18.369  0.00  0.00    +0.000 A 
ATOM      6  C   UNL     1       9.634  17.769  18.343  0.00  0.00    +0.000 A 
ATOM      7  C   UNL     1       8.228  17.770  18.454  0.00  0.00    +0.000 A 
ATOM      8  C   UNL     1       7.596  16.525  18.401  0.00  0.00    +0.000 A 
ATOM      9  C   UNL     1       8.330  15.375  18.199  0.00  0.00    +0.000 A 
ATOM     10  C   UNL     1       7.447  14.319  17.873  0.00  0.00    +0.000 A 
ATOM     11  C   UNL     1       6.192  14.750  18.241  0.00  0.00    +0.000 A 
ATOM     12  N   UNL     1       6.303  16.083  18.601  0.00  0.00    +0.000 N 
ATOM     13  C   UNL     1       5.264  16.849  19.253  0.00  0.00    +0.000 C 
ATOM     14  C   UNL     1       8.047  13.026  17.385  0.00  0.00    +0.000 C 
ATOM     15  C   UNL     1       9.346  12.794  18.215  0.00  0.00    +0.000 C 
ATOM     16  N   UNL     1      10.203  11.579  18.073  0.00  0.00    +0.000 NA
ATOM     17  C   UNL     1      11.559  11.801  17.527  0.00  0.00    +0.000 C 
ATOM     18  C   UNL     1      10.376  11.119  19.481  0.00  0.00    +0.000 C 
ENDROOT
BRANCH   1  20
ATOM     19  N   UNL     1       9.311  13.318  22.391  0.00  0.00    +0.000 N 
ATOM     20  C   UNL     1       9.470  12.245  21.533  0.00  0.00    +0.000 C 
ATOM     21  O   UNL     1       8.694  11.284  21.543  0.00  0.00    +0.000 OA
ATOM     22  H   UNL     1       9.909  14.135  22.316  0.00  0.00    +0.000 HD
BRANCH  19  23
ATOM     23  CA  UNL     1       8.235  13.407  23.378  0.00  0.00    +0.000 C 
BRANCH  23  25
ATOM     24  C   UNL     1       6.463  14.576  21.935  0.00  0.00    +0.000 C 
ATOM     25  C   UNL     1       6.858  13.319  22.695  0.00  0.00    +0.000 C 
ENDBRANCH  23  25
BRANCH  23  26
ATOM     26  C   UNL     1       8.377  12.293  24.440  0.00  0.00    +0.000 C 
BRANCH  26  27
ATOM     27  O   UNL     1       7.470  11.214  24.215  0.00  0.00    +0.000 OA
ATOM     28  H   UNL     1       7.991  10.412  24.041  0.00  0.00    +0.000 HD
ENDBRANCH  26  27
ENDBRANCH  23  26
ENDBRANCH  19  23
ENDBRANCH   1  20
TORSDOF 5
ENDMDL
MODEL 4
REMARK VINA RESULT:      -6.3     10.948     13.448
REMARK  Name = 
REMARK  8 active torsions:
REMARK  status: ('A' for Active; 'I' for Inactive)
REMARK    1  A    between atoms: C_1  and  C_2
REMARK    2  A    between atoms: C_2  and  CA_3
REMARK    3  A    between atoms: CA_3  and  C_4
REMARK    4  A    between atoms: CA_3  and  N_6
REMARK    5  A    between atoms: C_4  and  O_5
REMARK    6  A    between atoms: C_7  and  C_9
REMARK    7  A    between atoms: N_20  and  C_21
REMARK    8  A    between atoms: N_24  and  C_25
REMARK                            x       y       z     vdW  Elec       q    Type
REMARK                         _______ _______ _______ _____ _____    ______ ____
ROOT
ATOM      1  C   UNL     1      -2.061  12.858  23.753  0.00  0.00    +0.000 C 
ATOM      2  C   UNL     1      -3.597  12.773  23.981  0.00  0.00    +0.000 C 
ATOM      3  C   UNL     1      -4.407  13.433  23.119  0.00  0.00    +0.000 C 
ATOM      4  C   UNL     1      -5.786  12.998  22.816  0.00  0.00    +0.000 A 
ATOM      5  C   UNL     1      -6.846  12.608  23.629  0.00  0.00    +0.000 A 
ATOM      6  C   UNL     1      -7.915  11.874  23.077  0.00  0.00    +0.000 A 
ATOM      7  C   UNL     1      -7.888  11.402  21.748  0.00  0.00    +0.000 A 
ATOM      8  C   UNL     1      -6.837  11.855  20.946  0.00  0.00    +0.000 A 
ATOM      9  C   UNL     1      -5.918  12.758  21.439  0.00  0.00    +0.000 A 
ATOM     10  C   UNL     1      -5.171  13.287  20.360  0.00  0.00    +0.000 A 
ATOM     11  C   UNL     1      -5.391  12.439  19.298  0.00  0.00    +0.000 A 
ATOM     12  N   UNL     1      -6.377  11.545  19.681  0.00  0.00    +0.000 N 
ATOM     13  C   UNL     1      -6.748  10.359  18.940  0.00  0.00    +0.000 C 
ATOM     14  C   UNL     1      -4.268  14.460  20.639  0.00  0.00    +0.000 C 
ATOM     15  C   UNL     1      -3.638  14.217  22.044  0.00  0.00    +0.000 C 
ATOM     16  N   UNL     1      -2.631  15.132  22.660  0.00  0.00    +0.000 NA
ATOM     17  C   UNL     1      -3.067  15.853  23.874  0.00  0.00    +0.000 C 
ATOM     18  C   UNL     1      -1.541  14.204  23.078  0.00  0.00    +0.000 C 
ENDROOT
BRANCH   1  20
ATOM     19  N   UNL     1      -1.215  12.025  21.528  0.00  0.00    +0.000 N 
ATOM     20  C   UNL     1      -1.541  11.706  22.834  0.00  0.00    +0.000 C 
ATOM     21  O   UNL     1      -1.408  10.561  23.276  0.00  0.00    +0.000 OA
ATOM     22  H   UNL     1      -1.254  12.986  21.203  0.00  0.00    +0.000 HD
BRANCH  19  23
ATOM     23  CA  UNL     1      -0.699  11.050  20.567  0.00  0.00    +0.000 C 
BRANCH  23  25
ATOM     24  C   UNL     1      -1.345  10.316  18.193  0.00  0.00    +0.000 C 
ATOM     25  C   UNL     1      -1.028  11.477  19.125  0.00  0.00    +0.000 C 
ENDBRANCH  23  25
BRANCH  23  26
ATOM     26  C   UNL     1       0.827  10.872  20.737  0.00  0.00    +0.000 C 
BRANCH  26  27
ATOM     27  O   UNL     1       1.481  12.099  21.058  0.00  0.00    +0.000 OA
ATOM     28  H   UNL     1       1.209  12.767  20.407  0.00  0.00    +0.000 HD
ENDBRANCH  26  27
ENDBRANCH  23  26
ENDBRANCH  19  23
ENDBRANCH   1  20
TORSDOF 5
ENDMDL
MODEL 5
REMARK VINA RESULT:      -6.3     10.500     12.610
REMARK  Name = 
REMARK  8 active torsions:
REMARK  status: ('A' for Active; 'I' for Inactive)
REMARK    1  A    between atoms: C_1  and  C_2
REMARK    2  A    between atoms: C_2  and  CA_3
REMARK    3  A    between atoms: CA_3  and  C_4
REMARK    4  A    between atoms: CA_3  and  N_6
REMARK    5  A    between atoms: C_4  and  O_5
REMARK    6  A    between atoms: C_7  and  C_9
REMARK    7  A    between atoms: N_20  and  C_21
REMARK    8  A    between atoms: N_24  and  C_25
REMARK                            x       y       z     vdW  Elec       q    Type
REMARK                         _______ _______ _______ _____ _____    ______ ____
ROOT
ATOM      1  C   UNL     1       9.194  16.567  17.688  0.00  0.00    +0.000 C 
ATOM      2  C   UNL     1       9.660  15.084  17.739  0.00  0.00    +0.000 C 
ATOM      3  C   UNL     1      10.377  14.677  18.813  0.00  0.00    +0.000 C 
ATOM      4  C   UNL     1      10.369  13.285  19.307  0.00  0.00    +0.000 A 
ATOM      5  C   UNL     1      10.503  12.060  18.661  0.00  0.00    +0.000 A 
ATOM      6  C   UNL     1      10.070  10.882  19.302  0.00  0.00    +0.000 A 
ATOM      7  C   UNL     1       9.378  10.913  20.531  0.00  0.00    +0.000 A 
ATOM      8  C   UNL     1       9.307  12.150  21.177  0.00  0.00    +0.000 A 
ATOM      9  C   UNL     1       9.935  13.256  20.643  0.00  0.00    +0.000 A 
ATOM     10  C   UNL     1       9.982  14.275  21.623  0.00  0.00    +0.000 A 
ATOM     11  C   UNL     1       9.072  13.910  22.590  0.00  0.00    +0.000 A 
ATOM     12  N   UNL     1       8.637  12.631  22.284  0.00  0.00    +0.000 N 
ATOM     13  C   UNL     1       7.522  11.966  22.922  0.00  0.00    +0.000 C 
ATOM     14  C   UNL     1      10.827  15.489  21.335  0.00  0.00    +0.000 C 
ATOM     15  C   UNL     1      10.655  15.805  19.819  0.00  0.00    +0.000 C 
ATOM     16  N   UNL     1      11.288  16.981  19.151  0.00  0.00    +0.000 NA
ATOM     17  C   UNL     1      12.323  16.674  18.141  0.00  0.00    +0.000 C 
ATOM     18  C   UNL     1      10.148  17.611  18.422  0.00  0.00    +0.000 C 
ENDROOT
BRANCH   1  20
ATOM     19  N   UNL     1       6.938  15.672  18.370  0.00  0.00    +0.000 N 
ATOM     20  C   UNL     1       7.788  16.762  18.339  0.00  0.00    +0.000 C 
ATOM     21  O   UNL     1       7.468  17.850  18.827  0.00  0.00    +0.000 OA
ATOM     22  H   UNL     1       7.246  14.764  18.035  0.00  0.00    +0.000 HD
BRANCH  19  23
ATOM     23  CA  UNL     1       5.602  15.710  18.965  0.00  0.00    +0.000 C 
BRANCH  23  25
ATOM     24  C   UNL     1       3.608  15.583  17.353  0.00  0.00    +0.000 C 
ATOM     25  C   UNL     1       4.628  14.813  18.180  0.00  0.00    +0.000 C 
ENDBRANCH  23  25
BRANCH  23  26
ATOM     26  C   UNL     1       5.654  15.273  20.448  0.00  0.00    +0.000 C 
BRANCH  26  27
ATOM     27  O   UNL     1       6.129  16.315  21.300  0.00  0.00    +0.000 OA
ATOM     28  H   UNL     1       6.693  15.913  21.983  0.00  0.00    +0.000 HD
ENDBRANCH  26  27
ENDBRANCH  23  26
ENDBRANCH  19  23
ENDBRANCH   1  20
TORSDOF 5
ENDMDL
MODEL 6
REMARK VINA RESULT:      -6.3     10.203     12.967
REMARK  Name = 
REMARK  8 active torsions:
REMARK  status: ('A' for Active; 'I' for Inactive)
REMARK    1  A    between atoms: C_1  and  C_2
REMARK    2  A    between atoms: C_2  and  CA_3
REMARK    3  A    between atoms: CA_3  and  C_4
REMARK    4  A    between atoms: CA_3  and  N_6
REMARK    5  A    between atoms: C_4  and  O_5
REMARK    6  A    between atoms: C_7  and  C_9
REMARK    7  A    between atoms: N_20  and  C_21
REMARK    8  A    between atoms: N_24  and  C_25
REMARK                            x       y       z     vdW  Elec       q    Type
REMARK                         _______ _______ _______ _____ _____    ______ ____
ROOT
ATOM      1  C   UNL     1      10.568  12.307  20.682  0.00  0.00    +0.000 C 
ATOM      2  C   UNL     1      10.785  13.708  20.042  0.00  0.00    +0.000 C 
ATOM      3  C   UNL     1      10.169  13.975  18.867  0.00  0.00    +0.000 C 
ATOM      4  C   UNL     1       9.772  15.338  18.456  0.00  0.00    +0.000 A 
ATOM      5  C   UNL     1      10.450  16.553  18.461  0.00  0.00    +0.000 A 
ATOM      6  C   UNL     1       9.723  17.758  18.386  0.00  0.00    +0.000 A 
ATOM      7  C   UNL     1       8.314  17.783  18.441  0.00  0.00    +0.000 A 
ATOM      8  C   UNL     1       7.665  16.547  18.382  0.00  0.00    +0.000 A 
ATOM      9  C   UNL     1       8.388  15.382  18.226  0.00  0.00    +0.000 A 
ATOM     10  C   UNL     1       7.501  14.335  17.880  0.00  0.00    +0.000 A 
ATOM     11  C   UNL     1       6.240  14.792  18.191  0.00  0.00    +0.000 A 
ATOM     12  N   UNL     1       6.357  16.128  18.535  0.00  0.00    +0.000 N 
ATOM     13  C   UNL     1       5.306  16.921  19.133  0.00  0.00    +0.000 C 
ATOM     14  C   UNL     1       8.100  13.026  17.437  0.00  0.00    +0.000 C 
ATOM     15  C   UNL     1       9.360  12.787  18.322  0.00  0.00    +0.000 C 
ATOM     16  N   UNL     1      10.203  11.557  18.232  0.00  0.00    +0.000 NA
ATOM     17  C   UNL     1      11.583  11.750  17.739  0.00  0.00    +0.000 C 
ATOM     18  C   UNL     1      10.312  11.117  19.654  0.00  0.00    +0.000 C 
ENDROOT
BRANCH   1  20
ATOM     19  N   UNL     1       9.055  13.449  22.344  0.00  0.00    +0.000 N 
ATOM     20  C   UNL     1       9.343  12.288  21.650  0.00  0.00    +0.000 C 
ATOM     21  O   UNL     1       8.648  11.274  21.764  0.00  0.00    +0.000 OA
ATOM     22  H   UNL     1       9.588  14.298  22.179  0.00  0.00    +0.000 HD
BRANCH  19  23
ATOM     23  CA  UNL     1       7.928  13.576  23.268  0.00  0.00    +0.000 C 
BRANCH  23  25
ATOM     24  C   UNL     1       7.944  12.377  25.538  0.00  0.00    +0.000 C 
ATOM     25  C   UNL     1       8.414  13.577  24.728  0.00  0.00    +0.000 C 
ENDBRANCH  23  25
BRANCH  23  26
ATOM     26  C   UNL     1       7.124  14.863  22.972  0.00  0.00    +0.000 C 
BRANCH  26  27
ATOM     27  O   UNL     1       7.433  15.410  21.691  0.00  0.00    +0.000 OA
ATOM     28  H   UNL     1       6.632  15.370  21.143  0.00  0.00    +0.000 HD
ENDBRANCH  26  27
ENDBRANCH  23  26
ENDBRANCH  19  23
ENDBRANCH   1  20
TORSDOF 5
ENDMDL
MODEL 7
REMARK VINA RESULT:      -6.2     10.519     13.342
REMARK  Name = 
REMARK  8 active torsions:
REMARK  status: ('A' for Active; 'I' for Inactive)
REMARK    1  A    between atoms: C_1  and  C_2
REMARK    2  A    between atoms: C_2  and  CA_3
REMARK    3  A    between atoms: CA_3  and  C_4
REMARK    4  A    between atoms: CA_3  and  N_6
REMARK    5  A    between atoms: C_4  and  O_5
REMARK    6  A    between atoms: C_7  and  C_9
REMARK    7  A    between atoms: N_20  and  C_21
REMARK    8  A    between atoms: N_24  and  C_25
REMARK                            x       y       z     vdW  Elec       q    Type
REMARK                         _______ _______ _______ _____ _____    ______ ____
ROOT
ATOM      1  C   UNL     1      -6.141  12.677  19.738  0.00  0.00    +0.000 C 
ATOM      2  C   UNL     1      -5.313  13.978  19.940  0.00  0.00    +0.000 C 
ATOM      3  C   UNL     1      -4.488  14.050  21.011  0.00  0.00    +0.000 C 
ATOM      4  C   UNL     1      -3.258  14.867  21.028  0.00  0.00    +0.000 A 
ATOM      5  C   UNL     1      -2.999  16.181  20.648  0.00  0.00    +0.000 A 
ATOM      6  C   UNL     1      -1.673  16.588  20.401  0.00  0.00    +0.000 A 
ATOM      7  C   UNL     1      -0.601  15.672  20.394  0.00  0.00    +0.000 A 
ATOM      8  C   UNL     1      -0.886  14.375  20.830  0.00  0.00    +0.000 A 
ATOM      9  C   UNL     1      -2.146  14.050  21.287  0.00  0.00    +0.000 A 
ATOM     10  C   UNL     1      -2.085  12.802  21.951  0.00  0.00    +0.000 A 
ATOM     11  C   UNL     1      -0.892  12.230  21.570  0.00  0.00    +0.000 A 
ATOM     12  N   UNL     1      -0.188  13.183  20.853  0.00  0.00    +0.000 N 
ATOM     13  C   UNL     1       1.013  12.920  20.092  0.00  0.00    +0.000 C 
ATOM     14  C   UNL     1      -3.297  12.361  22.729  0.00  0.00    +0.000 C 
ATOM     15  C   UNL     1      -4.544  12.801  21.904  0.00  0.00    +0.000 C 
ATOM     16  N   UNL     1      -5.947  12.491  22.312  0.00  0.00    +0.000 NA
ATOM     17  C   UNL     1      -6.788  13.650  22.677  0.00  0.00    +0.000 C 
ATOM     18  C   UNL     1      -6.538  11.904  21.074  0.00  0.00    +0.000 C 
ENDROOT
BRANCH   1  20
ATOM     19  N   UNL     1      -4.131  11.976  18.387  0.00  0.00    +0.000 N 
ATOM     20  C   UNL     1      -5.383  11.630  18.863  0.00  0.00    +0.000 C 
ATOM     21  O   UNL     1      -5.884  10.525  18.631  0.00  0.00    +0.000 OA
ATOM     22  H   UNL     1      -3.700  12.856  18.653  0.00  0.00    +0.000 HD
BRANCH  19  23
ATOM     23  CA  UNL     1      -3.305  11.084  17.573  0.00  0.00    +0.000 C 
BRANCH  23  25
ATOM     24  C   UNL     1      -2.936  10.250  15.173  0.00  0.00    +0.000 C 
ATOM     25  C   UNL     1      -3.604  11.278  16.075  0.00  0.00    +0.000 C 
ENDBRANCH  23  25
BRANCH  23  26
ATOM     26  C   UNL     1      -1.804  11.326  17.853  0.00  0.00    +0.000 C 
BRANCH  26  27
ATOM     27  O   UNL     1      -1.362  12.594  17.371  0.00  0.00    +0.000 OA
ATOM     28  H   UNL     1      -1.524  13.255  18.064  0.00  0.00    +0.000 HD
ENDBRANCH  26  27
ENDBRANCH  23  26
ENDBRANCH  19  23
ENDBRANCH   1  20
TORSDOF 5
ENDMDL
MODEL 8
REMARK VINA RESULT:      -6.2      9.995     12.841
REMARK  Name = 
REMARK  8 active torsions:
REMARK  status: ('A' for Active; 'I' for Inactive)
REMARK    1  A    between atoms: C_1  and  C_2
REMARK    2  A    between atoms: C_2  and  CA_3
REMARK    3  A    between atoms: CA_3  and  C_4
REMARK    4  A    between atoms: CA_3  and  N_6
REMARK    5  A    between atoms: C_4  and  O_5
REMARK    6  A    between atoms: C_7  and  C_9
REMARK    7  A    between atoms: N_20  and  C_21
REMARK    8  A    between atoms: N_24  and  C_25
REMARK                            x       y       z     vdW  Elec       q    Type
REMARK                         _______ _______ _______ _____ _____    ______ ____
ROOT
ATOM      1  C   UNL     1      -4.737  13.672  21.780  0.00  0.00    +0.000 C 
ATOM      2  C   UNL     1      -3.365  14.291  21.388  0.00  0.00    +0.000 C 
ATOM      3  C   UNL     1      -2.243  13.725  21.892  0.00  0.00    +0.000 C 
ATOM      4  C   UNL     1      -0.938  13.765  21.199  0.00  0.00    +0.000 A 
ATOM      5  C   UNL     1      -0.232  14.797  20.589  0.00  0.00    +0.000 A 
ATOM      6  C   UNL     1       0.792  14.494  19.670  0.00  0.00    +0.000 A 
ATOM      7  C   UNL     1       1.042  13.174  19.240  0.00  0.00    +0.000 A 
ATOM      8  C   UNL     1       0.353  12.159  19.910  0.00  0.00    +0.000 A 
ATOM      9  C   UNL     1      -0.482  12.457  20.967  0.00  0.00    +0.000 A 
ATOM     10  C   UNL     1      -0.795  11.262  21.656  0.00  0.00    +0.000 A 
ATOM     11  C   UNL     1      -0.454  10.236  20.804  0.00  0.00    +0.000 A 
ATOM     12  N   UNL     1       0.207  10.798  19.724  0.00  0.00    +0.000 N 
ATOM     13  C   UNL     1       0.540  10.095  18.504  0.00  0.00    +0.000 C 
ATOM     14  C   UNL     1      -1.506  11.380  22.978  0.00  0.00    +0.000 C 
ATOM     15  C   UNL     1      -2.529  12.546  22.836  0.00  0.00    +0.000 C 
ATOM     16  N   UNL     1      -3.478  12.941  23.919  0.00  0.00    +0.000 NA
ATOM     17  C   UNL     1      -3.266  14.277  24.513  0.00  0.00    +0.000 C 
ATOM     18  C   UNL     1      -4.794  12.986  23.217  0.00  0.00    +0.000 C 
ENDROOT
BRANCH   1  20
ATOM     19  N   UNL     1      -4.648  12.594  19.502  0.00  0.00    +0.000 N 
ATOM     20  C   UNL     1      -5.189  12.566  20.774  0.00  0.00    +0.000 C 
ATOM     21  O   UNL     1      -5.985  11.689  21.123  0.00  0.00    +0.000 OA
ATOM     22  H   UNL     1      -3.935  13.275  19.257  0.00  0.00    +0.000 HD
BRANCH  19  23
ATOM     23  CA  UNL     1      -4.969  11.610  18.469  0.00  0.00    +0.000 C 
BRANCH  23  25
ATOM     24  C   UNL     1      -6.497  13.531  17.717  0.00  0.00    +0.000 C 
ATOM     25  C   UNL     1      -5.758  12.261  17.319  0.00  0.00    +0.000 C 
ENDBRANCH  23  25
BRANCH  23  26
ATOM     26  C   UNL     1      -3.680  10.949  17.926  0.00  0.00    +0.000 C 
BRANCH  26  27
ATOM     27  O   UNL     1      -3.008  11.777  16.977  0.00  0.00    +0.000 OA
ATOM     28  H   UNL     1      -3.657  12.061  16.311  0.00  0.00    +0.000 HD
ENDBRANCH  26  27
ENDBRANCH  23  26
ENDBRANCH  19  23
ENDBRANCH   1  20
TORSDOF 5
ENDMDL
MODEL 9
REMARK VINA RESULT:      -6.2      9.392     12.093
REMARK  Name = 
REMARK  8 active torsions:
REMARK  status: ('A' for Active; 'I' for Inactive)
REMARK    1  A    between atoms: C_1  and  C_2
REMARK    2  A    between atoms: C_2  and  CA_3
REMARK    3  A    between atoms: CA_3  and  C_4
REMARK    4  A    between atoms: CA_3  and  N_6
REMARK    5  A    between atoms: C_4  and  O_5
REMARK    6  A    between atoms: C_7  and  C_9
REMARK    7  A    between atoms: N_20  and  C_21
REMARK    8  A    between atoms: N_24  and  C_25
REMARK                            x       y       z     vdW  Elec       q    Type
REMARK                         _______ _______ _______ _____ _____    ______ ____
ROOT
ATOM      1  C   UNL     1      -4.413  13.664  20.733  0.00  0.00    +0.000 C 
ATOM      2  C   UNL     1      -2.948  14.182  20.671  0.00  0.00    +0.000 C 
ATOM      3  C   UNL     1      -2.046  13.651  21.530  0.00  0.00    +0.000 C 
ATOM      4  C   UNL     1      -0.602  13.559  21.228  0.00  0.00    +0.000 A 
ATOM      5  C   UNL     1       0.311  14.480  20.725  0.00  0.00    +0.000 A 
ATOM      6  C   UNL     1       1.524  14.028  20.169  0.00  0.00    +0.000 A 
ATOM      7  C   UNL     1       1.793  12.656  19.982  0.00  0.00    +0.000 A 
ATOM      8  C   UNL     1       0.882  11.759  20.545  0.00  0.00    +0.000 A 
ATOM      9  C   UNL     1      -0.188  12.218  21.285  0.00  0.00    +0.000 A 
ATOM     10  C   UNL     1      -0.756  11.133  21.993  0.00  0.00    +0.000 A 
ATOM     11  C   UNL     1      -0.265   9.995  21.394  0.00  0.00    +0.000 A 
ATOM     12  N   UNL     1       0.702  10.391  20.485  0.00  0.00    +0.000 N 
ATOM     13  C   UNL     1       1.307   9.526  19.496  0.00  0.00    +0.000 C 
ATOM     14  C   UNL     1      -1.792  11.443  23.042  0.00  0.00    +0.000 C 
ATOM     15  C   UNL     1      -2.657  12.614  22.486  0.00  0.00    +0.000 C 
ATOM     16  N   UNL     1      -3.837  13.176  23.208  0.00  0.00    +0.000 NA
ATOM     17  C   UNL     1      -3.706  14.570  23.679  0.00  0.00    +0.000 C 
ATOM     18  C   UNL     1      -4.906  13.172  22.166  0.00  0.00    +0.000 C 
ENDROOT
BRANCH   1  20
ATOM     19  N   UNL     1      -3.637  12.132  18.887  0.00  0.00    +0.000 N 
ATOM     20  C   UNL     1      -4.646  12.452  19.776  0.00  0.00    +0.000 C 
ATOM     21  O   UNL     1      -5.691  11.796  19.837  0.00  0.00    +0.000 OA
ATOM     22  H   UNL     1      -2.753  12.631  18.904  0.00  0.00    +0.000 HD
BRANCH  19  23
ATOM     23  CA  UNL     1      -3.716  11.012  17.949  0.00  0.00    +0.000 C 
BRANCH  23  25
ATOM     24  C   UNL     1      -3.682  10.699  15.401  0.00  0.00    +0.000 C 
ATOM     25  C   UNL     1      -4.242  11.481  16.581  0.00  0.00    +0.000 C 
ENDBRANCH  23  25
BRANCH  23  26
ATOM     26  C   UNL     1      -2.333  10.338  17.788  0.00  0.00    +0.000 C 
BRANCH  26  27
ATOM     27  O   UNL     1      -1.270  11.289  17.757  0.00  0.00    +0.000 OA
ATOM     28  H   UNL     1      -1.579  12.104  18.187  0.00  0.00    +0.000 HD
ENDBRANCH  26  27
ENDBRANCH  23  26
ENDBRANCH  19  23
ENDBRANCH   1  20
TORSDOF 5
ENDMDL
