MODEL 1
REMARK VINA RESULT:      -7.5      0.000      0.000
REMARK  Name = 
REMARK  8 active torsions:
REMARK  status: ('A' for Active; 'I' for Inactive)
REMARK    1  A    between atoms: C_1  and  O_2
REMARK    2  A    between atoms: O_2  and  C_3
REMARK    3  A    between atoms: C_5  and  N_6
REMARK    4  A    between atoms: N_6  and  C_7
REMARK    5  A    between atoms: C_19  and  O_20
REMARK    6  A    between atoms: O_20  and  C_21
REMARK    7  A    between atoms: C_22  and  O_23
REMARK    8  A    between atoms: O_23  and  C_24
REMARK                            x       y       z     vdW  Elec       q    Type
REMARK                         _______ _______ _______ _____ _____    ______ ____
ROOT
ATOM      1  N   UNL     1       4.192   5.798  16.706  0.00  0.00    +0.000 N 
ATOM      2  H   UNL     1       4.291   4.851  16.306  0.00  0.00    +0.000 HD
ENDROOT
BRANCH   1   3
ATOM      3  C   UNL     1       5.515   6.390  16.307  0.00  0.00    +0.000 A 
ATOM      4  C   UNL     1       6.138   5.431  15.487  0.00  0.00    +0.000 A 
ATOM      5  C   UNL     1       6.770   4.436  16.203  0.00  0.00    +0.000 A 
ATOM      6  N   UNL     1       7.095   4.583  17.510  0.00  0.00    +0.000 NA
ATOM      7  C   UNL     1       7.111   5.849  17.959  0.00  0.00    +0.000 A 
ATOM      8  C   UNL     1       8.041   6.214  18.915  0.00  0.00    +0.000 A 
ATOM      9  C   UNL     1       8.546   7.522  18.934  0.00  0.00    +0.000 A 
ATOM     10  C   UNL     1       8.077   8.442  18.007  0.00  0.00    +0.000 A 
ATOM     11  F   UNL     1       8.726   9.611  17.854  0.00  0.00    +0.000 F 
ATOM     12  C   UNL     1       7.000   8.138  17.192  0.00  0.00    +0.000 A 
ATOM     13  C   UNL     1       6.423   6.845  17.247  0.00  0.00    +0.000 A 
ENDBRANCH   1   3
BRANCH   1  16
ATOM     14  C   UNL     1       2.260   5.723  19.989  0.00  0.00    +0.000 A 
ATOM     15  C   UNL     1       2.746   6.227  18.733  0.00  0.00    +0.000 A 
ATOM     16  C   UNL     1       3.493   5.420  17.890  0.00  0.00    +0.000 A 
ATOM     17  C   UNL     1       3.721   4.092  18.308  0.00  0.00    +0.000 A 
ATOM     18  C   UNL     1       3.284   3.577  19.537  0.00  0.00    +0.000 A 
ATOM     19  C   UNL     1       2.559   4.402  20.416  0.00  0.00    +0.000 A 
BRANCH  14  21
ATOM     20  C   UNL     1       1.614   7.915  20.632  0.00  0.00    +0.000 C 
ATOM     21  O   UNL     1       1.523   6.510  20.849  0.00  0.00    +0.000 OA
ENDBRANCH  14  21
BRANCH  18  22
ATOM     22  O   UNL     1       3.701   2.281  19.730  0.00  0.00    +0.000 OA
ATOM     23  C   UNL     1       3.658   1.361  18.646  0.00  0.00    +0.000 C 
ENDBRANCH  18  22
BRANCH  19  24
ATOM     24  O   UNL     1       2.197   3.790  21.582  0.00  0.00    +0.000 OA
ATOM     25  C   UNL     1       1.292   2.709  21.680  0.00  0.00    +0.000 C 
ENDBRANCH  19  24
ENDBRANCH   1  16
TORSDOF 5
ENDMDL
MODEL 2
REMARK VINA RESULT:      -7.4      4.237      6.980
REMARK  Name = 
REMARK  8 active torsions:
REMARK  status: ('A' for Active; 'I' for Inactive)
REMARK    1  A    between atoms: C_1  and  O_2
REMARK    2  A    between atoms: O_2  and  C_3
REMARK    3  A    between atoms: C_5  and  N_6
REMARK    4  A    between atoms: N_6  and  C_7
REMARK    5  A    between atoms: C_19  and  O_20
REMARK    6  A    between atoms: O_20  and  C_21
REMARK    7  A    between atoms: C_22  and  O_23
REMARK    8  A    between atoms: O_23  and  C_24
REMARK                            x       y       z     vdW  Elec       q    Type
REMARK                         _______ _______ _______ _____ _____    ______ ____
ROOT
ATOM      1  N   UNL     1       2.198   7.433  18.991  0.00  0.00    +0.000 N 
ATOM      2  H   UNL     1       1.334   7.049  18.574  0.00  0.00    +0.000 HD
ENDROOT
BRANCH   1   3
ATOM      3  C   UNL     1       2.767   6.186  19.609  0.00  0.00    +0.000 A 
ATOM      4  C   UNL     1       3.948   5.904  18.898  0.00  0.00    +0.000 A 
ATOM      5  C   UNL     1       3.719   5.242  17.710  0.00  0.00    +0.000 A 
ATOM      6  N   UNL     1       2.557   4.591  17.460  0.00  0.00    +0.000 NA
ATOM      7  C   UNL     1       1.810   4.313  18.540  0.00  0.00    +0.000 A 
ATOM      8  C   UNL     1       1.078   3.140  18.570  0.00  0.00    +0.000 A 
ATOM      9  C   UNL     1       0.850   2.490  19.791  0.00  0.00    +0.000 A 
ATOM     10  C   UNL     1       1.339   3.056  20.961  0.00  0.00    +0.000 A 
ATOM     11  F   UNL     1       1.345   2.329  22.093  0.00  0.00    +0.000 F 
ATOM     12  C   UNL     1       1.883   4.329  20.956  0.00  0.00    +0.000 A 
ATOM     13  C   UNL     1       2.020   5.028  19.730  0.00  0.00    +0.000 A 
ENDBRANCH   1   3
BRANCH   1  16
ATOM     14  C   UNL     1       1.119  11.078  19.257  0.00  0.00    +0.000 A 
ATOM     15  C   UNL     1       1.512   9.840  18.641  0.00  0.00    +0.000 A 
ATOM     16  C   UNL     1       1.657   8.689  19.398  0.00  0.00    +0.000 A 
ATOM     17  C   UNL     1       1.375   8.788  20.776  0.00  0.00    +0.000 A 
ATOM     18  C   UNL     1       1.014   9.984  21.413  0.00  0.00    +0.000 A 
ATOM     19  C   UNL     1       0.904  11.166  20.658  0.00  0.00    +0.000 A 
BRANCH  14  21
ATOM     20  C   UNL     1       2.183  12.951  18.259  0.00  0.00    +0.000 C 
ATOM     21  O   UNL     1       0.978  12.239  18.525  0.00  0.00    +0.000 OA
ENDBRANCH  14  21
BRANCH  18  22
ATOM     22  O   UNL     1       0.867   9.821  22.771  0.00  0.00    +0.000 OA
ATOM     23  C   UNL     1      -0.417   9.526  23.307  0.00  0.00    +0.000 C 
ENDBRANCH  18  22
BRANCH  19  24
ATOM     24  O   UNL     1       0.557  12.264  21.391  0.00  0.00    +0.000 OA
ATOM     25  C   UNL     1      -0.746  12.808  21.464  0.00  0.00    +0.000 C 
ENDBRANCH  19  24
ENDBRANCH   1  16
TORSDOF 5
ENDMDL
MODEL 3
REMARK VINA RESULT:      -7.2      4.245      6.946
REMARK  Name = 
REMARK  8 active torsions:
REMARK  status: ('A' for Active; 'I' for Inactive)
REMARK    1  A    between atoms: C_1  and  O_2
REMARK    2  A    between atoms: O_2  and  C_3
REMARK    3  A    between atoms: C_5  and  N_6
REMARK    4  A    between atoms: N_6  and  C_7
REMARK    5  A    between atoms: C_19  and  O_20
REMARK    6  A    between atoms: O_20  and  C_21
REMARK    7  A    between atoms: C_22  and  O_23
REMARK    8  A    between atoms: O_23  and  C_24
REMARK                            x       y       z     vdW  Elec       q    Type
REMARK                         _______ _______ _______ _____ _____    ______ ____
ROOT
ATOM      1  N   UNL     1       2.363   7.586  19.034  0.00  0.00    +0.000 N 
ATOM      2  H   UNL     1       1.804   7.185  18.262  0.00  0.00    +0.000 HD
ENDROOT
BRANCH   1   3
ATOM      3  C   UNL     1       2.871   6.324  19.672  0.00  0.00    +0.000 A 
ATOM      4  C   UNL     1       4.079   6.016  19.019  0.00  0.00    +0.000 A 
ATOM      5  C   UNL     1       3.894   5.365  17.818  0.00  0.00    +0.000 A 
ATOM      6  N   UNL     1       2.731   4.743  17.507  0.00  0.00    +0.000 NA
ATOM      7  C   UNL     1       1.925   4.477  18.548  0.00  0.00    +0.000 A 
ATOM      8  C   UNL     1       1.165   3.322  18.535  0.00  0.00    +0.000 A 
ATOM      9  C   UNL     1       0.862   2.673  19.740  0.00  0.00    +0.000 A 
ATOM     10  C   UNL     1       1.305   3.223  20.936  0.00  0.00    +0.000 A 
ATOM     11  F   UNL     1       1.238   2.490  22.062  0.00  0.00    +0.000 F 
ATOM     12  C   UNL     1       1.879   4.482  20.964  0.00  0.00    +0.000 A 
ATOM     13  C   UNL     1       2.092   5.183  19.750  0.00  0.00    +0.000 A 
ENDBRANCH   1   3
BRANCH   1  16
ATOM     14  C   UNL     1       0.161  10.693  18.931  0.00  0.00    +0.000 A 
ATOM     15  C   UNL     1       0.858   9.531  18.453  0.00  0.00    +0.000 A 
ATOM     16  C   UNL     1       1.492   8.674  19.338  0.00  0.00    +0.000 A 
ATOM     17  C   UNL     1       1.394   8.981  20.711  0.00  0.00    +0.000 A 
ATOM     18  C   UNL     1       0.744  10.120  21.209  0.00  0.00    +0.000 A 
ATOM     19  C   UNL     1       0.132  11.016  20.314  0.00  0.00    +0.000 A 
BRANCH  14  21
ATOM     20  C   UNL     1      -1.702  11.110  17.520  0.00  0.00    +0.000 C 
ATOM     21  O   UNL     1      -0.470  11.566  18.069  0.00  0.00    +0.000 OA
ENDBRANCH  14  21
BRANCH  18  22
ATOM     22  O   UNL     1       0.858  10.221  22.575  0.00  0.00    +0.000 OA
ATOM     23  C   UNL     1      -0.031   9.489  23.410  0.00  0.00    +0.000 C 
ENDBRANCH  18  22
BRANCH  19  24
ATOM     24  O   UNL     1      -0.459  12.089  20.918  0.00  0.00    +0.000 OA
ATOM     25  C   UNL     1      -1.828  12.172  21.257  0.00  0.00    +0.000 C 
ENDBRANCH  19  24
ENDBRANCH   1  16
TORSDOF 5
ENDMDL
MODEL 4
REMARK VINA RESULT:      -7.2      3.041      4.898
REMARK  Name = 
REMARK  8 active torsions:
REMARK  status: ('A' for Active; 'I' for Inactive)
REMARK    1  A    between atoms: C_1  and  O_2
REMARK    2  A    between atoms: O_2  and  C_3
REMARK    3  A    between atoms: C_5  and  N_6
REMARK    4  A    between atoms: N_6  and  C_7
REMARK    5  A    between atoms: C_19  and  O_20
REMARK    6  A    between atoms: O_20  and  C_21
REMARK    7  A    between atoms: C_22  and  O_23
REMARK    8  A    between atoms: O_23  and  C_24
REMARK                            x       y       z     vdW  Elec       q    Type
REMARK                         _______ _______ _______ _____ _____    ______ ____
ROOT
ATOM      1  N   UNL     1       4.551   5.779  16.516  0.00  0.00    +0.000 N 
ATOM      2  H   UNL     1       3.833   6.035  15.819  0.00  0.00    +0.000 HD
ENDROOT
BRANCH   1   3
ATOM      3  C   UNL     1       5.077   4.514  15.896  0.00  0.00    +0.000 A 
ATOM      4  C   UNL     1       6.032   4.008  16.797  0.00  0.00    +0.000 A 
ATOM      5  C   UNL     1       7.266   4.612  16.673  0.00  0.00    +0.000 A 
ATOM      6  N   UNL     1       7.621   5.305  15.564  0.00  0.00    +0.000 NA
ATOM      7  C   UNL     1       6.877   5.063  14.473  0.00  0.00    +0.000 A 
ATOM      8  C   UNL     1       7.479   5.082  13.228  0.00  0.00    +0.000 A 
ATOM      9  C   UNL     1       7.000   4.247  12.208  0.00  0.00    +0.000 A 
ATOM     10  C   UNL     1       5.901   3.436  12.458  0.00  0.00    +0.000 A 
ATOM     11  F   UNL     1       5.590   2.462  11.584  0.00  0.00    +0.000 F 
ATOM     12  C   UNL     1       5.172   3.573  13.627  0.00  0.00    +0.000 A 
ATOM     13  C   UNL     1       5.601   4.493  14.616  0.00  0.00    +0.000 A 
ENDBRANCH   1   3
BRANCH   1  16
ATOM     14  C   UNL     1       2.561   5.956  19.760  0.00  0.00    +0.000 A 
ATOM     15  C   UNL     1       3.446   5.423  18.759  0.00  0.00    +0.000 A 
ATOM     16  C   UNL     1       3.831   6.194  17.675  0.00  0.00    +0.000 A 
ATOM     17  C   UNL     1       3.342   7.516  17.621  0.00  0.00    +0.000 A 
ATOM     18  C   UNL     1       2.458   8.058  18.566  0.00  0.00    +0.000 A 
ATOM     19  C   UNL     1       2.031   7.268  19.649  0.00  0.00    +0.000 A 
BRANCH  14  21
ATOM     20  C   UNL     1       1.127   4.253  20.585  0.00  0.00    +0.000 C 
ATOM     21  O   UNL     1       2.155   5.204  20.843  0.00  0.00    +0.000 OA
ENDBRANCH  14  21
BRANCH  18  22
ATOM     22  O   UNL     1       2.080   9.339  18.240  0.00  0.00    +0.000 OA
ATOM     23  C   UNL     1       0.723   9.608  17.910  0.00  0.00    +0.000 C 
ENDBRANCH  18  22
BRANCH  19  24
ATOM     24  O   UNL     1       1.167   7.904  20.493  0.00  0.00    +0.000 OA
ATOM     25  C   UNL     1       1.547   8.619  21.651  0.00  0.00    +0.000 C 
ENDBRANCH  19  24
ENDBRANCH   1  16
TORSDOF 5
ENDMDL
MODEL 5
REMARK VINA RESULT:      -7.2      4.404      7.013
REMARK  Name = 
REMARK  8 active torsions:
REMARK  status: ('A' for Active; 'I' for Inactive)
REMARK    1  A    between atoms: C_1  and  O_2
REMARK    2  A    between atoms: O_2  and  C_3
REMARK    3  A    between atoms: C_5  and  N_6
REMARK    4  A    between atoms: N_6  and  C_7
REMARK    5  A    between atoms: C_19  and  O_20
REMARK    6  A    between atoms: O_20  and  C_21
REMARK    7  A    between atoms: C_22  and  O_23
REMARK    8  A    between atoms: O_23  and  C_24
REMARK                            x       y       z     vdW  Elec       q    Type
REMARK                         _______ _______ _______ _____ _____    ______ ____
ROOT
ATOM      1  N   UNL     1       2.257   7.529  19.156  0.00  0.00    +0.000 N 
ATOM      2  H   UNL     1       1.546   7.137  18.516  0.00  0.00    +0.000 HD
ENDROOT
BRANCH   1   3
ATOM      3  C   UNL     1       2.808   6.259  19.743  0.00  0.00    +0.000 A 
ATOM      4  C   UNL     1       3.998   5.991  19.042  0.00  0.00    +0.000 A 
ATOM      5  C   UNL     1       3.784   5.368  17.830  0.00  0.00    +0.000 A 
ATOM      6  N   UNL     1       2.622   4.734  17.541  0.00  0.00    +0.000 NA
ATOM      7  C   UNL     1       1.856   4.427  18.600  0.00  0.00    +0.000 A 
ATOM      8  C   UNL     1       1.116   3.258  18.581  0.00  0.00    +0.000 A 
ATOM      9  C   UNL     1       0.864   2.572  19.778  0.00  0.00    +0.000 A 
ATOM     10  C   UNL     1       1.338   3.098  20.973  0.00  0.00    +0.000 A 
ATOM     11  F   UNL     1       1.321   2.335  22.080  0.00  0.00    +0.000 F 
ATOM     12  C   UNL     1       1.891   4.367  21.016  0.00  0.00    +0.000 A 
ATOM     13  C   UNL     1       2.051   5.103  19.816  0.00  0.00    +0.000 A 
ENDBRANCH   1   3
BRANCH   1  16
ATOM     14  C   UNL     1       0.415  10.224  21.119  0.00  0.00    +0.000 A 
ATOM     15  C   UNL     1       1.349   9.165  20.854  0.00  0.00    +0.000 A 
ATOM     16  C   UNL     1       1.515   8.675  19.568  0.00  0.00    +0.000 A 
ATOM     17  C   UNL     1       0.754   9.281  18.547  0.00  0.00    +0.000 A 
ATOM     18  C   UNL     1      -0.184  10.299  18.775  0.00  0.00    +0.000 A 
ATOM     19  C   UNL     1      -0.387  10.774  20.084  0.00  0.00    +0.000 A 
BRANCH  14  21
ATOM     20  C   UNL     1      -0.736  10.033  23.187  0.00  0.00    +0.000 C 
ATOM     21  O   UNL     1       0.225  10.722  22.392  0.00  0.00    +0.000 OA
ENDBRANCH  14  21
BRANCH  18  22
ATOM     22  O   UNL     1      -0.840  10.661  17.623  0.00  0.00    +0.000 OA
ATOM     23  C   UNL     1      -1.958   9.899  17.182  0.00  0.00    +0.000 C 
ENDBRANCH  18  22
BRANCH  19  24
ATOM     24  O   UNL     1      -1.330  11.756  20.178  0.00  0.00    +0.000 OA
ATOM     25  C   UNL     1      -1.062  13.143  20.121  0.00  0.00    +0.000 C 
ENDBRANCH  19  24
ENDBRANCH   1  16
TORSDOF 5
ENDMDL
MODEL 6
REMARK VINA RESULT:      -7.1      0.633      2.717
REMARK  Name = 
REMARK  8 active torsions:
REMARK  status: ('A' for Active; 'I' for Inactive)
REMARK    1  A    between atoms: C_1  and  O_2
REMARK    2  A    between atoms: O_2  and  C_3
REMARK    3  A    between atoms: C_5  and  N_6
REMARK    4  A    between atoms: N_6  and  C_7
REMARK    5  A    between atoms: C_19  and  O_20
REMARK    6  A    between atoms: O_20  and  C_21
REMARK    7  A    between atoms: C_22  and  O_23
REMARK    8  A    between atoms: O_23  and  C_24
REMARK                            x       y       z     vdW  Elec       q    Type
REMARK                         _______ _______ _______ _____ _____    ______ ____
ROOT
ATOM      1  N   UNL     1       4.387   5.763  16.548  0.00  0.00    +0.000 N 
ATOM      2  H   UNL     1       4.350   5.019  15.831  0.00  0.00    +0.000 HD
ENDROOT
BRANCH   1   3
ATOM      3  C   UNL     1       5.724   6.371  16.226  0.00  0.00    +0.000 A 
ATOM      4  C   UNL     1       6.407   5.417  15.449  0.00  0.00    +0.000 A 
ATOM      5  C   UNL     1       7.008   4.433  16.205  0.00  0.00    +0.000 A 
ATOM      6  N   UNL     1       7.253   4.589  17.529  0.00  0.00    +0.000 NA
ATOM      7  C   UNL     1       7.225   5.857  17.972  0.00  0.00    +0.000 A 
ATOM      8  C   UNL     1       8.092   6.237  18.981  0.00  0.00    +0.000 A 
ATOM      9  C   UNL     1       8.578   7.552  19.024  0.00  0.00    +0.000 A 
ATOM     10  C   UNL     1       8.153   8.463  18.066  0.00  0.00    +0.000 A 
ATOM     11  F   UNL     1       8.794   9.640  17.946  0.00  0.00    +0.000 F 
ATOM     12  C   UNL     1       7.130   8.141  17.190  0.00  0.00    +0.000 A 
ATOM     13  C   UNL     1       6.567   6.841  17.217  0.00  0.00    +0.000 A 
ENDBRANCH   1   3
BRANCH   1  16
ATOM     14  C   UNL     1       2.747   3.098  18.722  0.00  0.00    +0.000 A 
ATOM     15  C   UNL     1       3.563   3.660  17.680  0.00  0.00    +0.000 A 
ATOM     16  C   UNL     1       3.761   5.028  17.599  0.00  0.00    +0.000 A 
ATOM     17  C   UNL     1       3.156   5.825  18.593  0.00  0.00    +0.000 A 
ATOM     18  C   UNL     1       2.335   5.312  19.608  0.00  0.00    +0.000 A 
ATOM     19  C   UNL     1       2.096   3.928  19.673  0.00  0.00    +0.000 A 
BRANCH  14  21
ATOM     20  C   UNL     1       3.693   0.922  18.809  0.00  0.00    +0.000 C 
ATOM     21  O   UNL     1       2.526   1.740  18.818  0.00  0.00    +0.000 OA
ENDBRANCH  14  21
BRANCH  18  22
ATOM     22  O   UNL     1       1.813   6.308  20.400  0.00  0.00    +0.000 OA
ATOM     23  C   UNL     1       1.924   7.665  19.986  0.00  0.00    +0.000 C 
ENDBRANCH  18  22
BRANCH  19  24
ATOM     24  O   UNL     1       1.274   3.553  20.698  0.00  0.00    +0.000 OA
ATOM     25  C   UNL     1       1.676   2.792  21.819  0.00  0.00    +0.000 C 
ENDBRANCH  19  24
ENDBRANCH   1  16
TORSDOF 5
ENDMDL
MODEL 7
REMARK VINA RESULT:      -7.0      2.927      4.277
REMARK  Name = 
REMARK  8 active torsions:
REMARK  status: ('A' for Active; 'I' for Inactive)
REMARK    1  A    between atoms: C_1  and  O_2
REMARK    2  A    between atoms: O_2  and  C_3
REMARK    3  A    between atoms: C_5  and  N_6
REMARK    4  A    between atoms: N_6  and  C_7
REMARK    5  A    between atoms: C_19  and  O_20
REMARK    6  A    between atoms: O_20  and  C_21
REMARK    7  A    between atoms: C_22  and  O_23
REMARK    8  A    between atoms: O_23  and  C_24
REMARK                            x       y       z     vdW  Elec       q    Type
REMARK                         _______ _______ _______ _____ _____    ______ ____
ROOT
ATOM      1  N   UNL     1       4.558   6.072  16.795  0.00  0.00    +0.000 N 
ATOM      2  H   UNL     1       4.260   6.588  15.951  0.00  0.00    +0.000 HD
ENDROOT
BRANCH   1   3
ATOM      3  C   UNL     1       4.960   4.764  16.174  0.00  0.00    +0.000 A 
ATOM      4  C   UNL     1       5.799   4.130  17.109  0.00  0.00    +0.000 A 
ATOM      5  C   UNL     1       7.101   4.583  17.062  0.00  0.00    +0.000 A 
ATOM      6  N   UNL     1       7.595   5.248  15.989  0.00  0.00    +0.000 NA
ATOM      7  C   UNL     1       6.886   5.117  14.856  0.00  0.00    +0.000 A 
ATOM      8  C   UNL     1       7.552   5.083  13.645  0.00  0.00    +0.000 A 
ATOM      9  C   UNL     1       7.030   4.331  12.582  0.00  0.00    +0.000 A 
ATOM     10  C   UNL     1       5.830   3.654  12.756  0.00  0.00    +0.000 A 
ATOM     11  F   UNL     1       5.452   2.740  11.845  0.00  0.00    +0.000 F 
ATOM     12  C   UNL     1       5.063   3.859  13.890  0.00  0.00    +0.000 A 
ATOM     13  C   UNL     1       5.546   4.702  14.921  0.00  0.00    +0.000 A 
ENDBRANCH   1   3
BRANCH   1  16
ATOM     14  C   UNL     1       2.137   8.267  18.754  0.00  0.00    +0.000 A 
ATOM     15  C   UNL     1       2.992   7.848  17.677  0.00  0.00    +0.000 A 
ATOM     16  C   UNL     1       3.563   6.586  17.679  0.00  0.00    +0.000 A 
ATOM     17  C   UNL     1       3.241   5.737  18.758  0.00  0.00    +0.000 A 
ATOM     18  C   UNL     1       2.431   6.123  19.837  0.00  0.00    +0.000 A 
ATOM     19  C   UNL     1       1.881   7.417  19.862  0.00  0.00    +0.000 A 
BRANCH  14  21
ATOM     20  C   UNL     1       2.153  10.486  17.911  0.00  0.00    +0.000 C 
ATOM     21  O   UNL     1       1.565   9.522  18.780  0.00  0.00    +0.000 OA
ENDBRANCH  14  21
BRANCH  18  22
ATOM     22  O   UNL     1       2.338   5.135  20.789  0.00  0.00    +0.000 OA
ATOM     23  C   UNL     1       1.402   4.078  20.613  0.00  0.00    +0.000 C 
ENDBRANCH  18  22
BRANCH  19  24
ATOM     24  O   UNL     1       1.120   7.675  20.966  0.00  0.00    +0.000 OA
ATOM     25  C   UNL     1       1.323   8.758  21.852  0.00  0.00    +0.000 C 
ENDBRANCH  19  24
ENDBRANCH   1  16
TORSDOF 5
ENDMDL
MODEL 8
REMARK VINA RESULT:      -7.0      3.108      4.968
REMARK  Name = 
REMARK  8 active torsions:
REMARK  status: ('A' for Active; 'I' for Inactive)
REMARK    1  A    between atoms: C_1  and  O_2
REMARK    2  A    between atoms: O_2  and  C_3
REMARK    3  A    between atoms: C_5  and  N_6
REMARK    4  A    between atoms: N_6  and  C_7
REMARK    5  A    between atoms: C_19  and  O_20
REMARK    6  A    between atoms: O_20  and  C_21
REMARK    7  A    between atoms: C_22  and  O_23
REMARK    8  A    between atoms: O_23  and  C_24
REMARK                            x       y       z     vdW  Elec       q    Type
REMARK                         _______ _______ _______ _____ _____    ______ ____
ROOT
ATOM      1  N   UNL     1       2.956   5.864  19.439  0.00  0.00    +0.000 N 
ATOM      2  H   UNL     1       3.883   6.168  19.781  0.00  0.00    +0.000 HD
ENDROOT
BRANCH   1   3
ATOM      3  C   UNL     1       3.370   5.062  18.238  0.00  0.00    +0.000 A 
ATOM      4  C   UNL     1       3.149   3.714  18.575  0.00  0.00    +0.000 A 
ATOM      5  C   UNL     1       4.171   3.169  19.324  0.00  0.00    +0.000 A 
ATOM      6  N   UNL     1       5.404   3.730  19.377  0.00  0.00    +0.000 NA
ATOM      7  C   UNL     1       5.679   4.605  18.396  0.00  0.00    +0.000 A 
ATOM      8  C   UNL     1       6.969   4.681  17.904  0.00  0.00    +0.000 A 
ATOM      9  C   UNL     1       7.185   5.017  16.560  0.00  0.00    +0.000 A 
ATOM     10  C   UNL     1       6.093   5.300  15.749  0.00  0.00    +0.000 A 
ATOM     11  F   UNL     1       6.264   5.377  14.417  0.00  0.00    +0.000 F 
ATOM     12  C   UNL     1       4.826   5.431  16.292  0.00  0.00    +0.000 A 
ATOM     13  C   UNL     1       4.627   5.190  17.674  0.00  0.00    +0.000 A 
ENDBRANCH   1   3
BRANCH   1  16
ATOM     14  C   UNL     1       0.621   8.518  20.862  0.00  0.00    +0.000 A 
ATOM     15  C   UNL     1       1.396   7.309  20.805  0.00  0.00    +0.000 A 
ATOM     16  C   UNL     1       2.252   7.068  19.743  0.00  0.00    +0.000 A 
ATOM     17  C   UNL     1       2.344   8.068  18.753  0.00  0.00    +0.000 A 
ATOM     18  C   UNL     1       1.584   9.247  18.764  0.00  0.00    +0.000 A 
ATOM     19  C   UNL     1       0.683   9.480  19.819  0.00  0.00    +0.000 A 
BRANCH  14  21
ATOM     20  C   UNL     1       0.320   9.449  23.025  0.00  0.00    +0.000 C 
ATOM     21  O   UNL     1      -0.246   8.776  21.904  0.00  0.00    +0.000 OA
ENDBRANCH  14  21
BRANCH  18  22
ATOM     22  O   UNL     1       1.811  10.015  17.647  0.00  0.00    +0.000 OA
ATOM     23  C   UNL     1       2.458  11.275  17.781  0.00  0.00    +0.000 C 
ENDBRANCH  18  22
BRANCH  19  24
ATOM     24  O   UNL     1      -0.004  10.655  19.713  0.00  0.00    +0.000 OA
ATOM     25  C   UNL     1      -1.273  10.797  19.107  0.00  0.00    +0.000 C 
ENDBRANCH  19  24
ENDBRANCH   1  16
TORSDOF 5
ENDMDL
MODEL 9
REMARK VINA RESULT:      -6.8      4.352      7.043
REMARK  Name = 
REMARK  8 active torsions:
REMARK  status: ('A' for Active; 'I' for Inactive)
REMARK    1  A    between atoms: C_1  and  O_2
REMARK    2  A    between atoms: O_2  and  C_3
REMARK    3  A    between atoms: C_5  and  N_6
REMARK    4  A    between atoms: N_6  and  C_7
REMARK    5  A    between atoms: C_19  and  O_20
REMARK    6  A    between atoms: O_20  and  C_21
REMARK    7  A    between atoms: C_22  and  O_23
REMARK    8  A    between atoms: O_23  and  C_24
REMARK                            x       y       z     vdW  Elec       q    Type
REMARK                         _______ _______ _______ _____ _____    ______ ____
ROOT
ATOM      1  N   UNL     1       2.301   7.361  19.209  0.00  0.00    +0.000 N 
ATOM      2  H   UNL     1       1.489   6.995  18.685  0.00  0.00    +0.000 HD
ENDROOT
BRANCH   1   3
ATOM      3  C   UNL     1       2.885   6.073  19.718  0.00  0.00    +0.000 A 
ATOM      4  C   UNL     1       3.998   5.801  18.902  0.00  0.00    +0.000 A 
ATOM      5  C   UNL     1       3.659   5.204  17.706  0.00  0.00    +0.000 A 
ATOM      6  N   UNL     1       2.465   4.591  17.519  0.00  0.00    +0.000 NA
ATOM      7  C   UNL     1       1.799   4.275  18.642  0.00  0.00    +0.000 A 
ATOM      8  C   UNL     1       1.042   3.118  18.674  0.00  0.00    +0.000 A 
ATOM      9  C   UNL     1       0.895   2.414  19.878  0.00  0.00    +0.000 A 
ATOM     10  C   UNL     1       1.490   2.911  21.030  0.00  0.00    +0.000 A 
ATOM     11  F   UNL     1       1.567   2.128  22.121  0.00  0.00    +0.000 F 
ATOM     12  C   UNL     1       2.064   4.170  21.042  0.00  0.00    +0.000 A 
ATOM     13  C   UNL     1       2.121   4.926  19.844  0.00  0.00    +0.000 A 
ENDBRANCH   1   3
BRANCH   1  16
ATOM     14  C   UNL     1       0.152   9.873  21.104  0.00  0.00    +0.000 A 
ATOM     15  C   UNL     1       0.861   8.651  20.835  0.00  0.00    +0.000 A 
ATOM     16  C   UNL     1       1.671   8.535  19.717  0.00  0.00    +0.000 A 
ATOM     17  C   UNL     1       1.785   9.669  18.887  0.00  0.00    +0.000 A 
ATOM     18  C   UNL     1       1.089  10.867  19.106  0.00  0.00    +0.000 A 
ATOM     19  C   UNL     1       0.234  10.979  20.217  0.00  0.00    +0.000 A 
BRANCH  14  21
ATOM     20  C   UNL     1      -0.128   9.541  23.438  0.00  0.00    +0.000 C 
ATOM     21  O   UNL     1      -0.668  10.009  22.205  0.00  0.00    +0.000 OA
ENDBRANCH  14  21
BRANCH  18  22
ATOM     22  O   UNL     1       1.322  11.787  18.110  0.00  0.00    +0.000 OA
ATOM     23  C   UNL     1       2.449  12.649  18.201  0.00  0.00    +0.000 C 
ENDBRANCH  18  22
BRANCH  19  24
ATOM     24  O   UNL     1      -0.394  12.188  20.316  0.00  0.00    +0.000 OA
ATOM     25  C   UNL     1      -1.697  12.463  19.843  0.00  0.00    +0.000 C 
ENDBRANCH  19  24
ENDBRANCH   1  16
TORSDOF 5
ENDMDL
