MODEL 1
REMARK VINA RESULT:      -9.0      0.000      0.000
REMARK  Name = 
REMARK  3 active torsions:
REMARK  status: ('A' for Active; 'I' for Inactive)
REMARK    1  A    between atoms: C_4  and  C_5
REMARK    2  A    between atoms: C_10  and  C_11
REMARK    3  A    between atoms: C_16  and  C_17
REMARK                            x       y       z     vdW  Elec       q    Type
REMARK                         _______ _______ _______ _____ _____    ______ ____
ROOT
ATOM      1  C   UNL     1       0.731   8.950  21.186  0.00  0.00    +0.000 A 
ATOM      2  C   UNL     1       0.713   8.861  22.587  0.00  0.00    +0.000 A 
ATOM      3  C   UNL     1      -0.067   9.714  23.373  0.00  0.00    +0.000 A 
ATOM      4  C   UNL     1      -0.818  10.664  22.686  0.00  0.00    +0.000 A 
ATOM      5  N   UNL     1      -1.683  11.632  23.113  0.00  0.00    +0.000 N 
ATOM      6  C   UNL     1      -2.164  12.316  22.020  0.00  0.00    +0.000 A 
ATOM      7  N   UNL     1      -1.627  11.838  20.913  0.00  0.00    +0.000 NA
ATOM      8  C   UNL     1      -0.808  10.809  21.307  0.00  0.00    +0.000 A 
ATOM      9  C   UNL     1      -0.019   9.947  20.536  0.00  0.00    +0.000 A 
ATOM     10  H   UNL     1      -1.911  11.832  24.075  0.00  0.00    +0.000 HD
ENDROOT
BRANCH   1  16
ATOM     11  C   UNL     1       4.107   5.424  17.717  0.00  0.00    +0.000 A 
ATOM     12  C   UNL     1       3.836   4.482  18.733  0.00  0.00    +0.000 A 
ATOM     13  C   UNL     1       3.052   4.777  19.857  0.00  0.00    +0.000 A 
ATOM     14  C   UNL     1       2.538   6.068  19.922  0.00  0.00    +0.000 A 
ATOM     15  N   UNL     1       1.734   6.693  20.835  0.00  0.00    +0.000 N 
ATOM     16  C   UNL     1       1.518   7.987  20.421  0.00  0.00    +0.000 A 
ATOM     17  N   UNL     1       2.162   8.219  19.292  0.00  0.00    +0.000 NA
ATOM     18  C   UNL     1       2.777   7.038  18.963  0.00  0.00    +0.000 A 
ATOM     19  C   UNL     1       3.564   6.720  17.848  0.00  0.00    +0.000 A 
ATOM     20  H   UNL     1       1.376   6.283  21.683  0.00  0.00    +0.000 HD
BRANCH  11  24
ATOM     21  C   UNL     1       6.344   4.181  14.349  0.00  0.00    +0.000 A 
ATOM     22  C   UNL     1       5.991   5.520  14.439  0.00  0.00    +0.000 A 
ATOM     23  C   UNL     1       5.269   5.962  15.546  0.00  0.00    +0.000 A 
ATOM     24  C   UNL     1       4.912   5.049  16.538  0.00  0.00    +0.000 A 
ATOM     25  N   UNL     1       5.273   3.741  16.464  0.00  0.00    +0.000 NA
ATOM     26  C   UNL     1       5.970   3.339  15.380  0.00  0.00    +0.000 A 
ENDBRANCH  11  24
ENDBRANCH   1  16
BRANCH   6  27
ATOM     27  C   UNL     1      -3.087  13.442  22.136  0.00  0.00    +0.000 A 
ATOM     28  C   UNL     1      -2.626  14.751  21.928  0.00  0.00    +0.000 A 
ATOM     29  C   UNL     1      -3.453  15.868  22.117  0.00  0.00    +0.000 A 
ATOM     30  C   UNL     1      -4.763  15.609  22.522  0.00  0.00    +0.000 A 
ATOM     31  N   UNL     1      -5.820  16.426  22.831  0.00  0.00    +0.000 N 
ATOM     32  C   UNL     1      -6.881  15.633  23.172  0.00  0.00    +0.000 A 
ATOM     33  N   UNL     1      -6.579  14.358  23.098  0.00  0.00    +0.000 NA
ATOM     34  C   UNL     1      -5.264  14.326  22.704  0.00  0.00    +0.000 A 
ATOM     35  C   UNL     1      -4.428  13.224  22.493  0.00  0.00    +0.000 A 
ATOM     36  H   UNL     1      -5.813  17.435  22.821  0.00  0.00    +0.000 HD
ENDBRANCH   6  27
TORSDOF 3
ENDMDL
MODEL 2
REMARK VINA RESULT:      -8.9      1.446      2.179
REMARK  Name = 
REMARK  3 active torsions:
REMARK  status: ('A' for Active; 'I' for Inactive)
REMARK    1  A    between atoms: C_4  and  C_5
REMARK    2  A    between atoms: C_10  and  C_11
REMARK    3  A    between atoms: C_16  and  C_17
REMARK                            x       y       z     vdW  Elec       q    Type
REMARK                         _______ _______ _______ _____ _____    ______ ____
ROOT
ATOM      1  C   UNL     1       1.848   8.180  19.702  0.00  0.00    +0.000 A 
ATOM      2  C   UNL     1       1.652   7.822  21.046  0.00  0.00    +0.000 A 
ATOM      3  C   UNL     1       0.841   8.575  21.901  0.00  0.00    +0.000 A 
ATOM      4  C   UNL     1       0.245   9.704  21.345  0.00  0.00    +0.000 A 
ATOM      5  N   UNL     1      -0.597  10.646  21.864  0.00  0.00    +0.000 N 
ATOM      6  C   UNL     1      -0.893  11.569  20.887  0.00  0.00    +0.000 A 
ATOM      7  N   UNL     1      -0.257  11.268  19.771  0.00  0.00    +0.000 NA
ATOM      8  C   UNL     1       0.435  10.112  20.033  0.00  0.00    +0.000 A 
ATOM      9  C   UNL     1       1.253   9.348  19.192  0.00  0.00    +0.000 A 
ATOM     10  H   UNL     1      -0.928  10.676  22.817  0.00  0.00    +0.000 HD
ENDROOT
BRANCH   1  16
ATOM     11  C   UNL     1       5.261   5.085  15.878  0.00  0.00    +0.000 A 
ATOM     12  C   UNL     1       5.115   4.076  16.855  0.00  0.00    +0.000 A 
ATOM     13  C   UNL     1       4.378   4.258  18.033  0.00  0.00    +0.000 A 
ATOM     14  C   UNL     1       3.778   5.503  18.193  0.00  0.00    +0.000 A 
ATOM     15  N   UNL     1       2.986   6.022  19.180  0.00  0.00    +0.000 N 
ATOM     16  C   UNL     1       2.657   7.316  18.847  0.00  0.00    +0.000 A 
ATOM     17  N   UNL     1       3.217   7.649  17.699  0.00  0.00    +0.000 NA
ATOM     18  C   UNL     1       3.894   6.534  17.276  0.00  0.00    +0.000 A 
ATOM     19  C   UNL     1       4.637   6.329  16.106  0.00  0.00    +0.000 A 
ATOM     20  H   UNL     1       2.706   5.546  20.023  0.00  0.00    +0.000 HD
BRANCH  11  24
ATOM     21  C   UNL     1       7.596   4.387  12.419  0.00  0.00    +0.000 A 
ATOM     22  C   UNL     1       6.399   3.697  12.548  0.00  0.00    +0.000 A 
ATOM     23  C   UNL     1       5.600   3.920  13.668  0.00  0.00    +0.000 A 
ATOM     24  C   UNL     1       6.022   4.828  14.639  0.00  0.00    +0.000 A 
ATOM     25  N   UNL     1       7.184   5.520  14.508  0.00  0.00    +0.000 NA
ATOM     26  C   UNL     1       7.940   5.284  13.415  0.00  0.00    +0.000 A 
ENDBRANCH  11  24
ENDBRANCH   1  16
BRANCH   6  27
ATOM     27  C   UNL     1      -1.745  12.731  21.130  0.00  0.00    +0.000 A 
ATOM     28  C   UNL     1      -1.463  13.952  20.497  0.00  0.00    +0.000 A 
ATOM     29  C   UNL     1      -2.197  15.115  20.770  0.00  0.00    +0.000 A 
ATOM     30  C   UNL     1      -3.227  14.995  21.703  0.00  0.00    +0.000 A 
ATOM     31  N   UNL     1      -4.112  15.899  22.233  0.00  0.00    +0.000 N 
ATOM     32  C   UNL     1      -4.915  15.233  23.118  0.00  0.00    +0.000 A 
ATOM     33  N   UNL     1      -4.610  13.959  23.189  0.00  0.00    +0.000 NA
ATOM     34  C   UNL     1      -3.558  13.796  22.322  0.00  0.00    +0.000 A 
ATOM     35  C   UNL     1      -2.824  12.642  22.025  0.00  0.00    +0.000 A 
ATOM     36  H   UNL     1      -4.156  16.884  22.018  0.00  0.00    +0.000 HD
ENDBRANCH   6  27
TORSDOF 3
ENDMDL
MODEL 3
REMARK VINA RESULT:      -8.9      1.595     12.389
REMARK  Name = 
REMARK  3 active torsions:
REMARK  status: ('A' for Active; 'I' for Inactive)
REMARK    1  A    between atoms: C_4  and  C_5
REMARK    2  A    between atoms: C_10  and  C_11
REMARK    3  A    between atoms: C_16  and  C_17
REMARK                            x       y       z     vdW  Elec       q    Type
REMARK                         _______ _______ _______ _____ _____    ______ ____
ROOT
ATOM      1  C   UNL     1       0.394  10.040  20.810  0.00  0.00    +0.000 A 
ATOM      2  C   UNL     1       0.438   9.037  21.793  0.00  0.00    +0.000 A 
ATOM      3  C   UNL     1       1.103   7.826  21.583  0.00  0.00    +0.000 A 
ATOM      4  C   UNL     1       1.712   7.666  20.341  0.00  0.00    +0.000 A 
ATOM      5  N   UNL     1       2.441   6.644  19.802  0.00  0.00    +0.000 N 
ATOM      6  C   UNL     1       2.814   6.988  18.523  0.00  0.00    +0.000 A 
ATOM      7  N   UNL     1       2.336   8.178  18.214  0.00  0.00    +0.000 NA
ATOM      8  C   UNL     1       1.668   8.615  19.331  0.00  0.00    +0.000 A 
ATOM      9  C   UNL     1       0.996   9.822  19.557  0.00  0.00    +0.000 A 
ATOM     10  H   UNL     1       2.650   5.769  20.257  0.00  0.00    +0.000 HD
ENDROOT
BRANCH   1  16
ATOM     11  C   UNL     1      -2.340  15.061  22.590  0.00  0.00    +0.000 A 
ATOM     12  C   UNL     1      -2.004  15.484  21.286  0.00  0.00    +0.000 A 
ATOM     13  C   UNL     1      -1.316  14.672  20.375  0.00  0.00    +0.000 A 
ATOM     14  C   UNL     1      -0.980  13.399  20.823  0.00  0.00    +0.000 A 
ATOM     15  N   UNL     1      -0.342  12.350  20.221  0.00  0.00    +0.000 N 
ATOM     16  C   UNL     1      -0.263  11.308  21.116  0.00  0.00    +0.000 A 
ATOM     17  N   UNL     1      -0.808  11.652  22.267  0.00  0.00    +0.000 NA
ATOM     18  C   UNL     1      -1.272  12.931  22.094  0.00  0.00    +0.000 A 
ATOM     19  C   UNL     1      -1.960  13.762  22.988  0.00  0.00    +0.000 A 
ATOM     20  H   UNL     1       0.030  12.345  19.284  0.00  0.00    +0.000 HD
BRANCH  11  24
ATOM     21  C   UNL     1      -4.631  17.475  25.203  0.00  0.00    +0.000 A 
ATOM     22  C   UNL     1      -3.252  17.632  25.211  0.00  0.00    +0.000 A 
ATOM     23  C   UNL     1      -2.473  16.864  24.348  0.00  0.00    +0.000 A 
ATOM     24  C   UNL     1      -3.094  15.948  23.498  0.00  0.00    +0.000 A 
ATOM     25  N   UNL     1      -4.445  15.805  23.473  0.00  0.00    +0.000 NA
ATOM     26  C   UNL     1      -5.176  16.559  24.320  0.00  0.00    +0.000 A 
ENDBRANCH  11  24
ENDBRANCH   1  16
BRANCH   6  27
ATOM     27  C   UNL     1       3.577   6.093  17.655  0.00  0.00    +0.000 A 
ATOM     28  C   UNL     1       3.266   4.725  17.612  0.00  0.00    +0.000 A 
ATOM     29  C   UNL     1       4.029   3.815  16.866  0.00  0.00    +0.000 A 
ATOM     30  C   UNL     1       5.113   4.342  16.164  0.00  0.00    +0.000 A 
ATOM     31  N   UNL     1       6.079   3.769  15.376  0.00  0.00    +0.000 N 
ATOM     32  C   UNL     1       6.909   4.763  14.936  0.00  0.00    +0.000 A 
ATOM     33  N   UNL     1       6.539   5.940  15.384  0.00  0.00    +0.000 NA
ATOM     34  C   UNL     1       5.430   5.695  16.155  0.00  0.00    +0.000 A 
ATOM     35  C   UNL     1       4.647   6.590  16.893  0.00  0.00    +0.000 A 
ATOM     36  H   UNL     1       6.169   2.786  15.167  0.00  0.00    +0.000 HD
ENDBRANCH   6  27
TORSDOF 3
ENDMDL
MODEL 4
REMARK VINA RESULT:      -8.7      1.804      2.816
REMARK  Name = 
REMARK  3 active torsions:
REMARK  status: ('A' for Active; 'I' for Inactive)
REMARK    1  A    between atoms: C_4  and  C_5
REMARK    2  A    between atoms: C_10  and  C_11
REMARK    3  A    between atoms: C_16  and  C_17
REMARK                            x       y       z     vdW  Elec       q    Type
REMARK                         _______ _______ _______ _____ _____    ______ ____
ROOT
ATOM      1  C   UNL     1       1.951   8.068  19.538  0.00  0.00    +0.000 A 
ATOM      2  C   UNL     1       1.684   7.652  20.853  0.00  0.00    +0.000 A 
ATOM      3  C   UNL     1       0.874   8.397  21.714  0.00  0.00    +0.000 A 
ATOM      4  C   UNL     1       0.353   9.580  21.196  0.00  0.00    +0.000 A 
ATOM      5  N   UNL     1      -0.466  10.533  21.732  0.00  0.00    +0.000 N 
ATOM      6  C   UNL     1      -0.680  11.518  20.795  0.00  0.00    +0.000 A 
ATOM      7  N   UNL     1      -0.014  11.245  19.689  0.00  0.00    +0.000 NA
ATOM      8  C   UNL     1       0.615  10.045  19.916  0.00  0.00    +0.000 A 
ATOM      9  C   UNL     1       1.430   9.287  19.068  0.00  0.00    +0.000 A 
ATOM     10  H   UNL     1      -0.834  10.530  22.671  0.00  0.00    +0.000 HD
ENDROOT
BRANCH   1  16
ATOM     11  C   UNL     1       5.341   5.007  15.666  0.00  0.00    +0.000 A 
ATOM     12  C   UNL     1       5.191   3.986  16.629  0.00  0.00    +0.000 A 
ATOM     13  C   UNL     1       4.456   4.156  17.811  0.00  0.00    +0.000 A 
ATOM     14  C   UNL     1       3.864   5.401  17.989  0.00  0.00    +0.000 A 
ATOM     15  N   UNL     1       3.076   5.911  18.984  0.00  0.00    +0.000 N 
ATOM     16  C   UNL     1       2.753   7.211  18.669  0.00  0.00    +0.000 A 
ATOM     17  N   UNL     1       3.314   7.558  17.526  0.00  0.00    +0.000 NA
ATOM     18  C   UNL     1       3.985   6.444  17.086  0.00  0.00    +0.000 A 
ATOM     19  C   UNL     1       4.725   6.252  15.912  0.00  0.00    +0.000 A 
ATOM     20  H   UNL     1       2.795   5.425  19.821  0.00  0.00    +0.000 HD
BRANCH  11  24
ATOM     21  C   UNL     1       7.668   4.352  12.194  0.00  0.00    +0.000 A 
ATOM     22  C   UNL     1       6.492   3.629  12.336  0.00  0.00    +0.000 A 
ATOM     23  C   UNL     1       5.696   3.837  13.461  0.00  0.00    +0.000 A 
ATOM     24  C   UNL     1       6.100   4.763  14.423  0.00  0.00    +0.000 A 
ATOM     25  N   UNL     1       7.240   5.487  14.278  0.00  0.00    +0.000 NA
ATOM     26  C   UNL     1       7.994   5.265  13.180  0.00  0.00    +0.000 A 
ENDBRANCH  11  24
ENDBRANCH   1  16
BRANCH   6  27
ATOM     27  C   UNL     1      -1.488  12.705  21.065  0.00  0.00    +0.000 A 
ATOM     28  C   UNL     1      -2.639  12.602  21.861  0.00  0.00    +0.000 A 
ATOM     29  C   UNL     1      -3.494  13.694  22.073  0.00  0.00    +0.000 A 
ATOM     30  C   UNL     1      -3.138  14.891  21.452  0.00  0.00    +0.000 A 
ATOM     31  N   UNL     1      -3.732  16.126  21.403  0.00  0.00    +0.000 N 
ATOM     32  C   UNL     1      -2.944  16.943  20.639  0.00  0.00    +0.000 A 
ATOM     33  N   UNL     1      -1.879  16.317  20.198  0.00  0.00    +0.000 NA
ATOM     34  C   UNL     1      -1.988  15.039  20.686  0.00  0.00    +0.000 A 
ATOM     35  C   UNL     1      -1.139  13.942  20.501  0.00  0.00    +0.000 A 
ATOM     36  H   UNL     1      -4.603  16.384  21.842  0.00  0.00    +0.000 HD
ENDBRANCH   6  27
TORSDOF 3
ENDMDL
MODEL 5
REMARK VINA RESULT:      -8.6      0.958      1.476
REMARK  Name = 
REMARK  3 active torsions:
REMARK  status: ('A' for Active; 'I' for Inactive)
REMARK    1  A    between atoms: C_4  and  C_5
REMARK    2  A    between atoms: C_10  and  C_11
REMARK    3  A    between atoms: C_16  and  C_17
REMARK                            x       y       z     vdW  Elec       q    Type
REMARK                         _______ _______ _______ _____ _____    ______ ____
ROOT
ATOM      1  C   UNL     1       0.724   8.988  21.122  0.00  0.00    +0.000 A 
ATOM      2  C   UNL     1       0.608   8.844  22.515  0.00  0.00    +0.000 A 
ATOM      3  C   UNL     1      -0.207   9.684  23.280  0.00  0.00    +0.000 A 
ATOM      4  C   UNL     1      -0.891  10.676  22.583  0.00  0.00    +0.000 A 
ATOM      5  N   UNL     1      -1.764  11.646  22.989  0.00  0.00    +0.000 N 
ATOM      6  C   UNL     1      -2.155  12.382  21.894  0.00  0.00    +0.000 A 
ATOM      7  N   UNL     1      -1.554  11.937  20.808  0.00  0.00    +0.000 NA
ATOM      8  C   UNL     1      -0.784  10.875  21.215  0.00  0.00    +0.000 A 
ATOM      9  C   UNL     1       0.039  10.026  20.464  0.00  0.00    +0.000 A 
ATOM     10  H   UNL     1      -2.054  11.814  23.940  0.00  0.00    +0.000 HD
ENDROOT
BRANCH   1  16
ATOM     11  C   UNL     1       4.233   5.521  17.729  0.00  0.00    +0.000 A 
ATOM     12  C   UNL     1       3.944   4.569  18.731  0.00  0.00    +0.000 A 
ATOM     13  C   UNL     1       3.126   4.849  19.834  0.00  0.00    +0.000 A 
ATOM     14  C   UNL     1       2.596   6.133  19.892  0.00  0.00    +0.000 A 
ATOM     15  N   UNL     1       1.761   6.744  20.786  0.00  0.00    +0.000 N 
ATOM     16  C   UNL     1       1.542   8.038  20.374  0.00  0.00    +0.000 A 
ATOM     17  N   UNL     1       2.214   8.285  19.265  0.00  0.00    +0.000 NA
ATOM     18  C   UNL     1       2.852   7.112  18.946  0.00  0.00    +0.000 A 
ATOM     19  C   UNL     1       3.673   6.810  17.852  0.00  0.00    +0.000 A 
ATOM     20  H   UNL     1       1.383   6.326  21.622  0.00  0.00    +0.000 HD
BRANCH  11  24
ATOM     21  C   UNL     1       6.793   4.515  14.514  0.00  0.00    +0.000 A 
ATOM     22  C   UNL     1       5.522   3.959  14.533  0.00  0.00    +0.000 A 
ATOM     23  C   UNL     1       4.650   4.286  15.570  0.00  0.00    +0.000 A 
ATOM     24  C   UNL     1       5.075   5.161  16.570  0.00  0.00    +0.000 A 
ATOM     25  N   UNL     1       6.312   5.724  16.545  0.00  0.00    +0.000 NA
ATOM     26  C   UNL     1       7.137   5.389  15.531  0.00  0.00    +0.000 A 
ENDBRANCH  11  24
ENDBRANCH   1  16
BRANCH   6  27
ATOM     27  C   UNL     1      -3.062  13.523  21.993  0.00  0.00    +0.000 A 
ATOM     28  C   UNL     1      -4.075  13.532  22.965  0.00  0.00    +0.000 A 
ATOM     29  C   UNL     1      -5.024  14.561  23.037  0.00  0.00    +0.000 A 
ATOM     30  C   UNL     1      -4.908  15.581  22.093  0.00  0.00    +0.000 A 
ATOM     31  N   UNL     1      -5.653  16.705  21.840  0.00  0.00    +0.000 N 
ATOM     32  C   UNL     1      -5.083  17.360  20.783  0.00  0.00    +0.000 A 
ATOM     33  N   UNL     1      -4.016  16.736  20.343  0.00  0.00    +0.000 NA
ATOM     34  C   UNL     1      -3.898  15.625  21.140  0.00  0.00    +0.000 A 
ATOM     35  C   UNL     1      -2.950  14.596  21.094  0.00  0.00    +0.000 A 
ATOM     36  H   UNL     1      -6.483  16.991  22.337  0.00  0.00    +0.000 HD
ENDBRANCH   6  27
TORSDOF 3
ENDMDL
MODEL 6
REMARK VINA RESULT:      -8.6      1.498     12.422
REMARK  Name = 
REMARK  3 active torsions:
REMARK  status: ('A' for Active; 'I' for Inactive)
REMARK    1  A    between atoms: C_4  and  C_5
REMARK    2  A    between atoms: C_10  and  C_11
REMARK    3  A    between atoms: C_16  and  C_17
REMARK                            x       y       z     vdW  Elec       q    Type
REMARK                         _______ _______ _______ _____ _____    ______ ____
ROOT
ATOM      1  C   UNL     1       0.132  10.906  19.886  0.00  0.00    +0.000 A 
ATOM      2  C   UNL     1       0.813  11.707  18.955  0.00  0.00    +0.000 A 
ATOM      3  C   UNL     1       1.789  11.184  18.103  0.00  0.00    +0.000 A 
ATOM      4  C   UNL     1       2.053   9.823  18.235  0.00  0.00    +0.000 A 
ATOM      5  N   UNL     1       2.913   8.988  17.579  0.00  0.00    +0.000 N 
ATOM      6  C   UNL     1       2.790   7.720  18.100  0.00  0.00    +0.000 A 
ATOM      7  N   UNL     1       1.903   7.714  19.077  0.00  0.00    +0.000 NA
ATOM      8  C   UNL     1       1.429   9.001  19.160  0.00  0.00    +0.000 A 
ATOM      9  C   UNL     1       0.455   9.542  20.008  0.00  0.00    +0.000 A 
ATOM     10  H   UNL     1       3.553   9.261  16.849  0.00  0.00    +0.000 HD
ENDROOT
BRANCH   1  16
ATOM     11  C   UNL     1      -4.441  13.488  22.762  0.00  0.00    +0.000 A 
ATOM     12  C   UNL     1      -3.812  12.917  23.889  0.00  0.00    +0.000 A 
ATOM     13  C   UNL     1      -2.637  12.158  23.802  0.00  0.00    +0.000 A 
ATOM     14  C   UNL     1      -2.105  11.998  22.527  0.00  0.00    +0.000 A 
ATOM     15  N   UNL     1      -0.987  11.356  22.070  0.00  0.00    +0.000 N 
ATOM     16  C   UNL     1      -0.921  11.502  20.704  0.00  0.00    +0.000 A 
ATOM     17  N   UNL     1      -1.956  12.195  20.267  0.00  0.00    +0.000 NA
ATOM     18  C   UNL     1      -2.683  12.525  21.384  0.00  0.00    +0.000 A 
ATOM     19  C   UNL     1      -3.858  13.279  21.495  0.00  0.00    +0.000 A 
ATOM     20  H   UNL     1      -0.330  10.841  22.635  0.00  0.00    +0.000 HD
BRANCH  11  24
ATOM     21  C   UNL     1      -7.916  15.887  23.030  0.00  0.00    +0.000 A 
ATOM     22  C   UNL     1      -7.843  14.754  23.828  0.00  0.00    +0.000 A 
ATOM     23  C   UNL     1      -6.703  13.955  23.775  0.00  0.00    +0.000 A 
ATOM     24  C   UNL     1      -5.661  14.306  22.916  0.00  0.00    +0.000 A 
ATOM     25  N   UNL     1      -5.720  15.425  22.147  0.00  0.00    +0.000 NA
ATOM     26  C   UNL     1      -6.836  16.180  22.217  0.00  0.00    +0.000 A 
ENDBRANCH  11  24
ENDBRANCH   1  16
BRANCH   6  27
ATOM     27  C   UNL     1       3.600   6.595  17.640  0.00  0.00    +0.000 A 
ATOM     28  C   UNL     1       3.412   5.321  18.197  0.00  0.00    +0.000 A 
ATOM     29  C   UNL     1       4.226   4.233  17.853  0.00  0.00    +0.000 A 
ATOM     30  C   UNL     1       5.235   4.482  16.922  0.00  0.00    +0.000 A 
ATOM     31  N   UNL     1       6.220   3.694  16.383  0.00  0.00    +0.000 N 
ATOM     32  C   UNL     1       6.942   4.459  15.510  0.00  0.00    +0.000 A 
ATOM     33  N   UNL     1       6.484   5.687  15.445  0.00  0.00    +0.000 NA
ATOM     34  C   UNL     1       5.429   5.720  16.323  0.00  0.00    +0.000 A 
ATOM     35  C   UNL     1       4.595   6.790  16.668  0.00  0.00    +0.000 A 
ATOM     36  H   UNL     1       6.390   2.724  16.602  0.00  0.00    +0.000 HD
ENDBRANCH   6  27
TORSDOF 3
ENDMDL
MODEL 7
REMARK VINA RESULT:      -8.6      2.045     12.304
REMARK  Name = 
REMARK  3 active torsions:
REMARK  status: ('A' for Active; 'I' for Inactive)
REMARK    1  A    between atoms: C_4  and  C_5
REMARK    2  A    between atoms: C_10  and  C_11
REMARK    3  A    between atoms: C_16  and  C_17
REMARK                            x       y       z     vdW  Elec       q    Type
REMARK                         _______ _______ _______ _____ _____    ______ ____
ROOT
ATOM      1  C   UNL     1       0.526   9.744  20.685  0.00  0.00    +0.000 A 
ATOM      2  C   UNL     1       0.559   8.723  21.649  0.00  0.00    +0.000 A 
ATOM      3  C   UNL     1       1.223   7.514  21.424  0.00  0.00    +0.000 A 
ATOM      4  C   UNL     1       1.842   7.376  20.184  0.00  0.00    +0.000 A 
ATOM      5  N   UNL     1       2.574   6.362  19.633  0.00  0.00    +0.000 N 
ATOM      6  C   UNL     1       2.959   6.728  18.363  0.00  0.00    +0.000 A 
ATOM      7  N   UNL     1       2.486   7.925  18.072  0.00  0.00    +0.000 NA
ATOM      8  C   UNL     1       1.810   8.343  19.192  0.00  0.00    +0.000 A 
ATOM      9  C   UNL     1       1.138   9.547  19.433  0.00  0.00    +0.000 A 
ATOM     10  H   UNL     1       2.777   5.478  20.074  0.00  0.00    +0.000 HD
ENDROOT
BRANCH   1  16
ATOM     11  C   UNL     1      -1.758  15.013  22.378  0.00  0.00    +0.000 A 
ATOM     12  C   UNL     1      -2.618  14.782  21.282  0.00  0.00    +0.000 A 
ATOM     13  C   UNL     1      -2.532  13.639  20.475  0.00  0.00    +0.000 A 
ATOM     14  C   UNL     1      -1.544  12.721  20.818  0.00  0.00    +0.000 A 
ATOM     15  N   UNL     1      -1.187  11.513  20.286  0.00  0.00    +0.000 N 
ATOM     16  C   UNL     1      -0.131  11.007  21.008  0.00  0.00    +0.000 A 
ATOM     17  N   UNL     1       0.212  11.847  21.967  0.00  0.00    +0.000 NA
ATOM     18  C   UNL     1      -0.665  12.899  21.873  0.00  0.00    +0.000 A 
ATOM     19  C   UNL     1      -0.769  14.049  22.665  0.00  0.00    +0.000 A 
ATOM     20  H   UNL     1      -1.610  11.073  19.484  0.00  0.00    +0.000 HD
BRANCH  11  24
ATOM     21  C   UNL     1      -2.299  18.548  24.639  0.00  0.00    +0.000 A 
ATOM     22  C   UNL     1      -2.161  17.350  25.325  0.00  0.00    +0.000 A 
ATOM     23  C   UNL     1      -1.964  16.172  24.607  0.00  0.00    +0.000 A 
ATOM     24  C   UNL     1      -1.914  16.220  23.214  0.00  0.00    +0.000 A 
ATOM     25  N   UNL     1      -2.029  17.394  22.539  0.00  0.00    +0.000 NA
ATOM     26  C   UNL     1      -2.222  18.520  23.258  0.00  0.00    +0.000 A 
ENDBRANCH  11  24
ENDBRANCH   1  16
BRANCH   6  27
ATOM     27  C   UNL     1       3.728   5.848  17.487  0.00  0.00    +0.000 A 
ATOM     28  C   UNL     1       3.525   4.459  17.535  0.00  0.00    +0.000 A 
ATOM     29  C   UNL     1       4.303   3.570  16.779  0.00  0.00    +0.000 A 
ATOM     30  C   UNL     1       5.289   4.139  15.973  0.00  0.00    +0.000 A 
ATOM     31  N   UNL     1       6.239   3.598  15.143  0.00  0.00    +0.000 N 
ATOM     32  C   UNL     1       6.954   4.627  14.594  0.00  0.00    +0.000 A 
ATOM     33  N   UNL     1       6.523   5.795  15.009  0.00  0.00    +0.000 NA
ATOM     34  C   UNL     1       5.495   5.509  15.873  0.00  0.00    +0.000 A 
ATOM     35  C   UNL     1       4.698   6.381  16.623  0.00  0.00    +0.000 A 
ATOM     36  H   UNL     1       6.392   2.615  14.978  0.00  0.00    +0.000 HD
ENDBRANCH   6  27
TORSDOF 3
ENDMDL
MODEL 8
REMARK VINA RESULT:      -8.6      1.070      1.124
REMARK  Name = 
REMARK  3 active torsions:
REMARK  status: ('A' for Active; 'I' for Inactive)
REMARK    1  A    between atoms: C_4  and  C_5
REMARK    2  A    between atoms: C_10  and  C_11
REMARK    3  A    between atoms: C_16  and  C_17
REMARK                            x       y       z     vdW  Elec       q    Type
REMARK                         _______ _______ _______ _____ _____    ______ ____
ROOT
ATOM      1  C   UNL     1       0.954   8.867  20.890  0.00  0.00    +0.000 A 
ATOM      2  C   UNL     1       0.912   8.777  22.292  0.00  0.00    +0.000 A 
ATOM      3  C   UNL     1       0.102   9.616  23.062  0.00  0.00    +0.000 A 
ATOM      4  C   UNL     1      -0.655  10.552  22.360  0.00  0.00    +0.000 A 
ATOM      5  N   UNL     1      -1.545  11.504  22.771  0.00  0.00    +0.000 N 
ATOM      6  C   UNL     1      -2.018  12.178  21.668  0.00  0.00    +0.000 A 
ATOM      7  N   UNL     1      -1.452  11.710  20.572  0.00  0.00    +0.000 NA
ATOM      8  C   UNL     1      -0.621  10.697  20.982  0.00  0.00    +0.000 A 
ATOM      9  C   UNL     1       0.198   9.849  20.226  0.00  0.00    +0.000 A 
ATOM     10  H   UNL     1      -1.795  11.700  23.728  0.00  0.00    +0.000 HD
ENDROOT
BRANCH   1  16
ATOM     11  C   UNL     1       4.464   5.404  17.492  0.00  0.00    +0.000 A 
ATOM     12  C   UNL     1       4.181   4.453  18.495  0.00  0.00    +0.000 A 
ATOM     13  C   UNL     1       3.365   4.732  19.601  0.00  0.00    +0.000 A 
ATOM     14  C   UNL     1       2.831   6.015  19.659  0.00  0.00    +0.000 A 
ATOM     15  N   UNL     1       1.997   6.625  20.554  0.00  0.00    +0.000 N 
ATOM     16  C   UNL     1       1.774   7.918  20.141  0.00  0.00    +0.000 A 
ATOM     17  N   UNL     1       2.442   8.165  19.030  0.00  0.00    +0.000 NA
ATOM     18  C   UNL     1       3.082   6.994  18.711  0.00  0.00    +0.000 A 
ATOM     19  C   UNL     1       3.901   6.692  17.615  0.00  0.00    +0.000 A 
ATOM     20  H   UNL     1       1.623   6.206  21.392  0.00  0.00    +0.000 HD
BRANCH  11  24
ATOM     21  C   UNL     1       6.722   4.382  14.063  0.00  0.00    +0.000 A 
ATOM     22  C   UNL     1       7.361   5.074  15.082  0.00  0.00    +0.000 A 
ATOM     23  C   UNL     1       6.647   5.409  16.231  0.00  0.00    +0.000 A 
ATOM     24  C   UNL     1       5.304   5.046  16.332  0.00  0.00    +0.000 A 
ATOM     25  N   UNL     1       4.680   4.351  15.345  0.00  0.00    +0.000 NA
ATOM     26  C   UNL     1       5.393   4.042  14.242  0.00  0.00    +0.000 A 
ENDBRANCH  11  24
ENDBRANCH   1  16
BRANCH   6  27
ATOM     27  C   UNL     1      -2.964  13.287  21.766  0.00  0.00    +0.000 A 
ATOM     28  C   UNL     1      -3.010  14.069  22.931  0.00  0.00    +0.000 A 
ATOM     29  C   UNL     1      -3.962  15.083  23.106  0.00  0.00    +0.000 A 
ATOM     30  C   UNL     1      -4.862  15.278  22.058  0.00  0.00    +0.000 A 
ATOM     31  N   UNL     1      -5.924  16.129  21.889  0.00  0.00    +0.000 N 
ATOM     32  C   UNL     1      -6.465  15.890  20.656  0.00  0.00    +0.000 A 
ATOM     33  N   UNL     1      -5.818  14.944  20.016  0.00  0.00    +0.000 NA
ATOM     34  C   UNL     1      -4.825  14.548  20.877  0.00  0.00    +0.000 A 
ATOM     35  C   UNL     1      -3.856  13.550  20.714  0.00  0.00    +0.000 A 
ATOM     36  H   UNL     1      -6.256  16.805  22.561  0.00  0.00    +0.000 HD
ENDBRANCH   6  27
TORSDOF 3
ENDMDL
MODEL 9
REMARK VINA RESULT:      -8.6      1.563      2.171
REMARK  Name = 
REMARK  3 active torsions:
REMARK  status: ('A' for Active; 'I' for Inactive)
REMARK    1  A    between atoms: C_4  and  C_5
REMARK    2  A    between atoms: C_10  and  C_11
REMARK    3  A    between atoms: C_16  and  C_17
REMARK                            x       y       z     vdW  Elec       q    Type
REMARK                         _______ _______ _______ _____ _____    ______ ____
ROOT
ATOM      1  C   UNL     1       0.011  10.306  19.370  0.00  0.00    +0.000 A 
ATOM      2  C   UNL     1      -0.743  10.836  18.310  0.00  0.00    +0.000 A 
ATOM      3  C   UNL     1      -1.657  11.876  18.499  0.00  0.00    +0.000 A 
ATOM      4  C   UNL     1      -1.783  12.351  19.802  0.00  0.00    +0.000 A 
ATOM      5  N   UNL     1      -2.552  13.342  20.345  0.00  0.00    +0.000 N 
ATOM      6  C   UNL     1      -2.304  13.409  21.698  0.00  0.00    +0.000 A 
ATOM      7  N   UNL     1      -1.425  12.488  22.045  0.00  0.00    +0.000 NA
ATOM      8  C   UNL     1      -1.083  11.839  20.883  0.00  0.00    +0.000 A 
ATOM      9  C   UNL     1      -0.174  10.796  20.676  0.00  0.00    +0.000 A 
ATOM     10  H   UNL     1      -3.213  13.914  19.843  0.00  0.00    +0.000 HD
ENDROOT
BRANCH   1  16
ATOM     11  C   UNL     1       4.215   6.340  17.803  0.00  0.00    +0.000 A 
ATOM     12  C   UNL     1       3.842   5.743  19.027  0.00  0.00    +0.000 A 
ATOM     13  C   UNL     1       2.851   6.274  19.864  0.00  0.00    +0.000 A 
ATOM     14  C   UNL     1       2.234   7.438  19.417  0.00  0.00    +0.000 A 
ATOM     15  N   UNL     1       1.234   8.209  19.944  0.00  0.00    +0.000 N 
ATOM     16  C   UNL     1       0.995   9.263  19.093  0.00  0.00    +0.000 A 
ATOM     17  N   UNL     1       1.808   9.207  18.055  0.00  0.00    +0.000 NA
ATOM     18  C   UNL     1       2.563   8.075  18.233  0.00  0.00    +0.000 A 
ATOM     19  C   UNL     1       3.558   7.526  17.413  0.00  0.00    +0.000 A 
ATOM     20  H   UNL     1       0.765   8.047  20.821  0.00  0.00    +0.000 HD
BRANCH  11  24
ATOM     21  C   UNL     1       7.188   4.435  15.474  0.00  0.00    +0.000 A 
ATOM     22  C   UNL     1       6.187   5.130  14.811  0.00  0.00    +0.000 A 
ATOM     23  C   UNL     1       5.204   5.783  15.553  0.00  0.00    +0.000 A 
ATOM     24  C   UNL     1       5.244   5.719  16.946  0.00  0.00    +0.000 A 
ATOM     25  N   UNL     1       6.233   5.056  17.599  0.00  0.00    +0.000 NA
ATOM     26  C   UNL     1       7.171   4.431  16.857  0.00  0.00    +0.000 A 
ENDBRANCH  11  24
ENDBRANCH   1  16
BRANCH   6  27
ATOM     27  C   UNL     1      -2.995  14.345  22.582  0.00  0.00    +0.000 A 
ATOM     28  C   UNL     1      -2.523  14.553  23.887  0.00  0.00    +0.000 A 
ATOM     29  C   UNL     1      -3.205  15.371  24.800  0.00  0.00    +0.000 A 
ATOM     30  C   UNL     1      -4.377  15.971  24.341  0.00  0.00    +0.000 A 
ATOM     31  N   UNL     1      -5.303  16.786  24.942  0.00  0.00    +0.000 N 
ATOM     32  C   UNL     1      -6.268  17.081  24.018  0.00  0.00    +0.000 A 
ATOM     33  N   UNL     1      -6.022  16.516  22.860  0.00  0.00    +0.000 NA
ATOM     34  C   UNL     1      -4.856  15.816  23.046  0.00  0.00    +0.000 A 
ATOM     35  C   UNL     1      -4.152  15.008  22.144  0.00  0.00    +0.000 A 
ATOM     36  H   UNL     1      -5.283  17.101  25.900  0.00  0.00    +0.000 HD
ENDBRANCH   6  27
TORSDOF 3
ENDMDL
