MODEL 1
REMARK VINA RESULT:      -7.0      0.000      0.000
REMARK  Name = 
REMARK  6 active torsions:
REMARK  status: ('A' for Active; 'I' for Inactive)
REMARK    1  A    between atoms: C_2  and  C_3
REMARK    2  A    between atoms: C_7  and  N_8
REMARK    3  A    between atoms: N_11  and  C_12
REMARK    4  A    between atoms: C_12  and  C_13
REMARK    5  A    between atoms: C_13  and  N_14
REMARK    6  A    between atoms: C_15  and  C_16
REMARK                            x       y       z     vdW  Elec       q    Type
REMARK                         _______ _______ _______ _____ _____    ______ ____
ROOT
ATOM      1  N   UNL     1       5.544   4.184  17.061  0.00  0.00    +0.000 N 
ATOM      2  C   UNL     1       4.764   3.617  18.053  0.00  0.00    +0.000 C 
ATOM      3  O   UNL     1       4.568   4.101  19.161  0.00  0.00    +0.000 OA
ATOM      4  N   UNL     1       4.276   2.386  17.683  0.00  0.00    +0.000 N 
ATOM      5  H   UNL     1       6.027   3.501  16.492  0.00  0.00    +0.000 HD
ATOM      6  H   UNL     1       4.352   2.075  16.726  0.00  0.00    +0.000 HD
ENDROOT
BRANCH   1  11
ATOM      7  C   UNL     1       7.600   7.821  17.825  0.00  0.00    +0.000 A 
ATOM      8  C   UNL     1       6.390   7.819  17.118  0.00  0.00    +0.000 A 
ATOM      9  C   UNL     1       5.732   6.603  16.890  0.00  0.00    +0.000 A 
ATOM     10  F   UNL     1       4.580   6.619  16.205  0.00  0.00    +0.000 F 
ATOM     11  C   UNL     1       6.265   5.383  17.313  0.00  0.00    +0.000 A 
ATOM     12  C   UNL     1       7.481   5.404  17.998  0.00  0.00    +0.000 A 
ATOM     13  F   UNL     1       8.001   4.273  18.493  0.00  0.00    +0.000 F 
ATOM     14  C   UNL     1       8.141   6.605  18.254  0.00  0.00    +0.000 A 
BRANCH   7  16
ATOM     15  C   UNL     1       8.891  10.047  18.378  0.00  0.00    +0.000 C 
ATOM     16  C   UNL     1       8.287   9.044  18.124  0.00  0.00    +0.000 C 
ENDBRANCH   7  16
ENDBRANCH   1  11
BRANCH   4  17
ATOM     17  C   UNL     1       3.445   1.598  18.585  0.00  0.00    +0.000 C 
BRANCH  17  18
ATOM     18  C   UNL     1       1.956   1.969  18.514  0.00  0.00    +0.000 C 
BRANCH  18  19
ATOM     19  N   UNL     1       1.665   3.317  18.987  0.00  0.00    +0.000 N 
ATOM     20  C   UNL     1       1.382   3.583  20.305  0.00  0.00    +0.000 C 
ATOM     21  C   UNL     1       1.169   5.039  20.621  0.00  0.00    +0.000 C 
ATOM     22  O   UNL     1       1.280   2.715  21.166  0.00  0.00    +0.000 OA
ATOM     23  H   UNL     1       1.839   4.083  18.349  0.00  0.00    +0.000 HD
ENDBRANCH  18  19
ENDBRANCH  17  18
ENDBRANCH   4  17
TORSDOF 5
ENDMDL
MODEL 2
REMARK VINA RESULT:      -6.8      0.170      1.850
REMARK  Name = 
REMARK  6 active torsions:
REMARK  status: ('A' for Active; 'I' for Inactive)
REMARK    1  A    between atoms: C_2  and  C_3
REMARK    2  A    between atoms: C_7  and  N_8
REMARK    3  A    between atoms: N_11  and  C_12
REMARK    4  A    between atoms: C_12  and  C_13
REMARK    5  A    between atoms: C_13  and  N_14
REMARK    6  A    between atoms: C_15  and  C_16
REMARK                            x       y       z     vdW  Elec       q    Type
REMARK                         _______ _______ _______ _____ _____    ______ ____
ROOT
ATOM      1  N   UNL     1       5.426   4.380  17.054  0.00  0.00    +0.000 N 
ATOM      2  C   UNL     1       4.710   3.737  18.049  0.00  0.00    +0.000 C 
ATOM      3  O   UNL     1       4.552   4.156  19.189  0.00  0.00    +0.000 OA
ATOM      4  N   UNL     1       4.240   2.513  17.636  0.00  0.00    +0.000 N 
ATOM      5  H   UNL     1       5.900   3.743  16.428  0.00  0.00    +0.000 HD
ATOM      6  H   UNL     1       4.280   2.255  16.662  0.00  0.00    +0.000 HD
ENDROOT
BRANCH   1  11
ATOM      7  C   UNL     1       7.608   7.926  17.888  0.00  0.00    +0.000 A 
ATOM      8  C   UNL     1       8.102   6.675  18.280  0.00  0.00    +0.000 A 
ATOM      9  C   UNL     1       7.362   5.523  17.982  0.00  0.00    +0.000 A 
ATOM     10  F   UNL     1       7.846   4.335  18.371  0.00  0.00    +0.000 F 
ATOM     11  C   UNL     1       6.124   5.585  17.338  0.00  0.00    +0.000 A 
ATOM     12  C   UNL     1       5.640   6.842  16.973  0.00  0.00    +0.000 A 
ATOM     13  F   UNL     1       4.494   6.957  16.287  0.00  0.00    +0.000 F 
ATOM     14  C   UNL     1       6.371   8.000  17.241  0.00  0.00    +0.000 A 
BRANCH   7  16
ATOM     15  C   UNL     1       9.001  10.117  18.320  0.00  0.00    +0.000 C 
ATOM     16  C   UNL     1       8.351   9.129  18.128  0.00  0.00    +0.000 C 
ENDBRANCH   7  16
ENDBRANCH   1  11
BRANCH   4  17
ATOM     17  C   UNL     1       3.475   1.653  18.532  0.00  0.00    +0.000 C 
BRANCH  17  18
ATOM     18  C   UNL     1       1.980   2.005  18.575  0.00  0.00    +0.000 C 
BRANCH  18  19
ATOM     19  N   UNL     1       1.711   3.364  19.030  0.00  0.00    +0.000 N 
ATOM     20  C   UNL     1       1.351   3.641  20.327  0.00  0.00    +0.000 C 
ATOM     21  C   UNL     1       1.174   5.105  20.631  0.00  0.00    +0.000 C 
ATOM     22  O   UNL     1       1.157   2.779  21.178  0.00  0.00    +0.000 OA
ATOM     23  H   UNL     1       1.958   4.122  18.407  0.00  0.00    +0.000 HD
ENDBRANCH  18  19
ENDBRANCH  17  18
ENDBRANCH   4  17
TORSDOF 5
ENDMDL
MODEL 3
REMARK VINA RESULT:      -6.7      1.635      1.736
REMARK  Name = 
REMARK  6 active torsions:
REMARK  status: ('A' for Active; 'I' for Inactive)
REMARK    1  A    between atoms: C_2  and  C_3
REMARK    2  A    between atoms: C_7  and  N_8
REMARK    3  A    between atoms: N_11  and  C_12
REMARK    4  A    between atoms: C_12  and  C_13
REMARK    5  A    between atoms: C_13  and  N_14
REMARK    6  A    between atoms: C_15  and  C_16
REMARK                            x       y       z     vdW  Elec       q    Type
REMARK                         _______ _______ _______ _____ _____    ______ ____
ROOT
ATOM      1  N   UNL     1       6.375   4.311  18.270  0.00  0.00    +0.000 N 
ATOM      2  C   UNL     1       5.371   4.033  19.181  0.00  0.00    +0.000 C 
ATOM      3  O   UNL     1       4.851   4.850  19.931  0.00  0.00    +0.000 OA
ATOM      4  N   UNL     1       5.056   2.695  19.208  0.00  0.00    +0.000 N 
ATOM      5  H   UNL     1       7.026   3.546  18.146  0.00  0.00    +0.000 HD
ATOM      6  H   UNL     1       5.411   2.074  18.496  0.00  0.00    +0.000 HD
ENDROOT
BRANCH   1  11
ATOM      7  C   UNL     1       7.984   8.235  18.051  0.00  0.00    +0.000 A 
ATOM      8  C   UNL     1       6.991   7.819  17.155  0.00  0.00    +0.000 A 
ATOM      9  C   UNL     1       6.474   6.521  17.259  0.00  0.00    +0.000 A 
ATOM     10  F   UNL     1       5.530   6.137  16.388  0.00  0.00    +0.000 F 
ATOM     11  C   UNL     1       6.947   5.611  18.208  0.00  0.00    +0.000 A 
ATOM     12  C   UNL     1       7.950   6.038  19.079  0.00  0.00    +0.000 A 
ATOM     13  F   UNL     1       8.389   5.233  20.057  0.00  0.00    +0.000 F 
ATOM     14  C   UNL     1       8.463   7.333  19.006  0.00  0.00    +0.000 A 
BRANCH   7  16
ATOM     15  C   UNL     1       8.982  10.670  17.990  0.00  0.00    +0.000 C 
ATOM     16  C   UNL     1       8.510   9.569  18.015  0.00  0.00    +0.000 C 
ENDBRANCH   7  16
ENDBRANCH   1  11
BRANCH   4  17
ATOM     17  C   UNL     1       4.038   2.174  20.111  0.00  0.00    +0.000 C 
BRANCH  17  18
ATOM     18  C   UNL     1       2.655   2.050  19.454  0.00  0.00    +0.000 C 
BRANCH  18  19
ATOM     19  N   UNL     1       2.053   3.332  19.108  0.00  0.00    +0.000 N 
ATOM     20  C   UNL     1       2.125   3.852  17.838  0.00  0.00    +0.000 C 
ATOM     21  C   UNL     1       1.393   5.155  17.651  0.00  0.00    +0.000 C 
ATOM     22  O   UNL     1       2.751   3.328  16.923  0.00  0.00    +0.000 OA
ATOM     23  H   UNL     1       1.435   3.756  19.788  0.00  0.00    +0.000 HD
ENDBRANCH  18  19
ENDBRANCH  17  18
ENDBRANCH   4  17
TORSDOF 5
ENDMDL
MODEL 4
REMARK VINA RESULT:      -6.7      3.735      6.445
REMARK  Name = 
REMARK  6 active torsions:
REMARK  status: ('A' for Active; 'I' for Inactive)
REMARK    1  A    between atoms: C_2  and  C_3
REMARK    2  A    between atoms: C_7  and  N_8
REMARK    3  A    between atoms: N_11  and  C_12
REMARK    4  A    between atoms: C_12  and  C_13
REMARK    5  A    between atoms: C_13  and  N_14
REMARK    6  A    between atoms: C_15  and  C_16
REMARK                            x       y       z     vdW  Elec       q    Type
REMARK                         _______ _______ _______ _____ _____    ______ ____
ROOT
ATOM      1  N   UNL     1       3.296   5.418  17.607  0.00  0.00    +0.000 N 
ATOM      2  C   UNL     1       4.669   5.259  17.552  0.00  0.00    +0.000 C 
ATOM      3  O   UNL     1       5.464   5.699  18.374  0.00  0.00    +0.000 OA
ATOM      4  N   UNL     1       5.067   4.600  16.414  0.00  0.00    +0.000 N 
ATOM      5  H   UNL     1       2.866   5.498  16.695  0.00  0.00    +0.000 HD
ATOM      6  H   UNL     1       4.385   4.145  15.824  0.00  0.00    +0.000 HD
ENDROOT
BRANCH   1  11
ATOM      7  C   UNL     1       1.483   7.850  20.579  0.00  0.00    +0.000 A 
ATOM      8  C   UNL     1       1.894   8.401  19.358  0.00  0.00    +0.000 A 
ATOM      9  C   UNL     1       2.481   7.569  18.394  0.00  0.00    +0.000 A 
ATOM     10  F   UNL     1       2.876   8.115  17.235  0.00  0.00    +0.000 F 
ATOM     11  C   UNL     1       2.705   6.211  18.629  0.00  0.00    +0.000 A 
ATOM     12  C   UNL     1       2.307   5.685  19.858  0.00  0.00    +0.000 A 
ATOM     13  F   UNL     1       2.428   4.374  20.109  0.00  0.00    +0.000 F 
ATOM     14  C   UNL     1       1.701   6.491  20.822  0.00  0.00    +0.000 A 
BRANCH   7  16
ATOM     15  C   UNL     1       0.270   9.292  22.416  0.00  0.00    +0.000 C 
ATOM     16  C   UNL     1       0.835   8.650  21.577  0.00  0.00    +0.000 C 
ENDBRANCH   7  16
ENDBRANCH   1  11
BRANCH   4  17
ATOM     17  C   UNL     1       6.475   4.342  16.139  0.00  0.00    +0.000 C 
BRANCH  17  18
ATOM     18  C   UNL     1       6.842   4.511  14.657  0.00  0.00    +0.000 C 
BRANCH  18  19
ATOM     19  N   UNL     1       6.131   3.598  13.770  0.00  0.00    +0.000 N 
ATOM     20  C   UNL     1       6.414   3.517  12.427  0.00  0.00    +0.000 C 
ATOM     21  C   UNL     1       5.624   2.475  11.681  0.00  0.00    +0.000 C 
ATOM     22  O   UNL     1       7.222   4.243  11.858  0.00  0.00    +0.000 OA
ATOM     23  H   UNL     1       5.535   2.902  14.197  0.00  0.00    +0.000 HD
ENDBRANCH  18  19
ENDBRANCH  17  18
ENDBRANCH   4  17
TORSDOF 5
ENDMDL
MODEL 5
REMARK VINA RESULT:      -6.6      1.005      1.006
REMARK  Name = 
REMARK  6 active torsions:
REMARK  status: ('A' for Active; 'I' for Inactive)
REMARK    1  A    between atoms: C_2  and  C_3
REMARK    2  A    between atoms: C_7  and  N_8
REMARK    3  A    between atoms: N_11  and  C_12
REMARK    4  A    between atoms: C_12  and  C_13
REMARK    5  A    between atoms: C_13  and  N_14
REMARK    6  A    between atoms: C_15  and  C_16
REMARK                            x       y       z     vdW  Elec       q    Type
REMARK                         _______ _______ _______ _____ _____    ______ ____
ROOT
ATOM      1  N   UNL     1       5.986   3.865  17.652  0.00  0.00    +0.000 N 
ATOM      2  C   UNL     1       4.607   3.764  17.692  0.00  0.00    +0.000 C 
ATOM      3  O   UNL     1       3.830   4.710  17.747  0.00  0.00    +0.000 OA
ATOM      4  N   UNL     1       4.187   2.456  17.737  0.00  0.00    +0.000 N 
ATOM      5  H   UNL     1       6.456   3.107  18.129  0.00  0.00    +0.000 HD
ATOM      6  H   UNL     1       4.840   1.706  17.566  0.00  0.00    +0.000 HD
ENDROOT
BRANCH   1  11
ATOM      7  C   UNL     1       7.788   7.702  17.906  0.00  0.00    +0.000 A 
ATOM      8  C   UNL     1       7.154   7.288  16.728  0.00  0.00    +0.000 A 
ATOM      9  C   UNL     1       6.561   6.019  16.679  0.00  0.00    +0.000 A 
ATOM     10  F   UNL     1       5.965   5.635  15.540  0.00  0.00    +0.000 F 
ATOM     11  C   UNL     1       6.616   5.135  17.760  0.00  0.00    +0.000 A 
ATOM     12  C   UNL     1       7.269   5.559  18.917  0.00  0.00    +0.000 A 
ATOM     13  F   UNL     1       7.288   4.783  20.010  0.00  0.00    +0.000 F 
ATOM     14  C   UNL     1       7.847   6.826  18.994  0.00  0.00    +0.000 A 
BRANCH   7  16
ATOM     15  C   UNL     1       8.874  10.088  18.142  0.00  0.00    +0.000 C 
ATOM     16  C   UNL     1       8.368   9.009  18.021  0.00  0.00    +0.000 C 
ENDBRANCH   7  16
ENDBRANCH   1  11
BRANCH   4  17
ATOM     17  C   UNL     1       2.771   2.116  17.805  0.00  0.00    +0.000 C 
BRANCH  17  18
ATOM     18  C   UNL     1       2.173   2.299  19.209  0.00  0.00    +0.000 C 
BRANCH  18  19
ATOM     19  N   UNL     1       1.777   3.671  19.502  0.00  0.00    +0.000 N 
ATOM     20  C   UNL     1       1.905   4.215  20.758  0.00  0.00    +0.000 C 
ATOM     21  C   UNL     1       1.503   5.662  20.860  0.00  0.00    +0.000 C 
ATOM     22  O   UNL     1       2.286   3.581  21.737  0.00  0.00    +0.000 OA
ATOM     23  H   UNL     1       1.559   4.272  18.718  0.00  0.00    +0.000 HD
ENDBRANCH  18  19
ENDBRANCH  17  18
ENDBRANCH   4  17
TORSDOF 5
ENDMDL
MODEL 6
REMARK VINA RESULT:      -6.6      1.406      2.294
REMARK  Name = 
REMARK  6 active torsions:
REMARK  status: ('A' for Active; 'I' for Inactive)
REMARK    1  A    between atoms: C_2  and  C_3
REMARK    2  A    between atoms: C_7  and  N_8
REMARK    3  A    between atoms: N_11  and  C_12
REMARK    4  A    between atoms: C_12  and  C_13
REMARK    5  A    between atoms: C_13  and  N_14
REMARK    6  A    between atoms: C_15  and  C_16
REMARK                            x       y       z     vdW  Elec       q    Type
REMARK                         _______ _______ _______ _____ _____    ______ ____
ROOT
ATOM      1  N   UNL     1       6.429   4.427  18.253  0.00  0.00    +0.000 N 
ATOM      2  C   UNL     1       5.335   4.134  19.047  0.00  0.00    +0.000 C 
ATOM      3  O   UNL     1       4.685   4.954  19.686  0.00  0.00    +0.000 OA
ATOM      4  N   UNL     1       5.086   2.783  19.104  0.00  0.00    +0.000 N 
ATOM      5  H   UNL     1       7.126   3.695  18.248  0.00  0.00    +0.000 HD
ATOM      6  H   UNL     1       5.557   2.152  18.474  0.00  0.00    +0.000 HD
ENDROOT
BRANCH   1  11
ATOM      7  C   UNL     1       8.054   8.348  18.108  0.00  0.00    +0.000 A 
ATOM      8  C   UNL     1       8.515   7.417  19.049  0.00  0.00    +0.000 A 
ATOM      9  C   UNL     1       7.965   6.129  19.064  0.00  0.00    +0.000 A 
ATOM     10  F   UNL     1       8.413   5.254  19.976  0.00  0.00    +0.000 F 
ATOM     11  C   UNL     1       6.939   5.753  18.194  0.00  0.00    +0.000 A 
ATOM     12  C   UNL     1       6.479   6.700  17.278  0.00  0.00    +0.000 A 
ATOM     13  F   UNL     1       5.549   6.371  16.370  0.00  0.00    +0.000 F 
ATOM     14  C   UNL     1       7.028   7.981  17.232  0.00  0.00    +0.000 A 
BRANCH   7  16
ATOM     15  C   UNL     1       9.078  10.769  17.982  0.00  0.00    +0.000 C 
ATOM     16  C   UNL     1       8.618   9.663  18.021  0.00  0.00    +0.000 C 
ENDBRANCH   7  16
ENDBRANCH   1  11
BRANCH   4  17
ATOM     17  C   UNL     1       3.989   2.247  19.903  0.00  0.00    +0.000 C 
BRANCH  17  18
ATOM     18  C   UNL     1       2.807   1.757  19.052  0.00  0.00    +0.000 C 
BRANCH  18  19
ATOM     19  N   UNL     1       2.317   2.749  18.103  0.00  0.00    +0.000 N 
ATOM     20  C   UNL     1       1.618   3.861  18.506  0.00  0.00    +0.000 C 
ATOM     21  C   UNL     1       1.246   4.806  17.395  0.00  0.00    +0.000 C 
ATOM     22  O   UNL     1       1.289   4.073  19.669  0.00  0.00    +0.000 OA
ATOM     23  H   UNL     1       2.649   2.686  17.150  0.00  0.00    +0.000 HD
ENDBRANCH  18  19
ENDBRANCH  17  18
ENDBRANCH   4  17
TORSDOF 5
ENDMDL
MODEL 7
REMARK VINA RESULT:      -6.5      4.126      5.606
REMARK  Name = 
REMARK  6 active torsions:
REMARK  status: ('A' for Active; 'I' for Inactive)
REMARK    1  A    between atoms: C_2  and  C_3
REMARK    2  A    between atoms: C_7  and  N_8
REMARK    3  A    between atoms: N_11  and  C_12
REMARK    4  A    between atoms: C_12  and  C_13
REMARK    5  A    between atoms: C_13  and  N_14
REMARK    6  A    between atoms: C_15  and  C_16
REMARK                            x       y       z     vdW  Elec       q    Type
REMARK                         _______ _______ _______ _____ _____    ______ ____
ROOT
ATOM      1  N   UNL     1       3.639   6.035  18.976  0.00  0.00    +0.000 N 
ATOM      2  C   UNL     1       2.668   7.019  18.932  0.00  0.00    +0.000 C 
ATOM      3  O   UNL     1       2.198   7.504  17.910  0.00  0.00    +0.000 OA
ATOM      4  N   UNL     1       2.325   7.459  20.189  0.00  0.00    +0.000 N 
ATOM      5  H   UNL     1       4.267   6.127  19.764  0.00  0.00    +0.000 HD
ATOM      6  H   UNL     1       2.636   6.958  21.007  0.00  0.00    +0.000 HD
ENDROOT
BRANCH   1  11
ATOM      7  C   UNL     1       5.329   4.571  15.365  0.00  0.00    +0.000 A 
ATOM      8  C   UNL     1       4.430   3.789  16.101  0.00  0.00    +0.000 A 
ATOM      9  C   UNL     1       3.883   4.305  17.284  0.00  0.00    +0.000 A 
ATOM     10  F   UNL     1       3.030   3.539  17.980  0.00  0.00    +0.000 F 
ATOM     11  C   UNL     1       4.237   5.564  17.775  0.00  0.00    +0.000 A 
ATOM     12  C   UNL     1       5.149   6.319  17.038  0.00  0.00    +0.000 A 
ATOM     13  F   UNL     1       5.468   7.563  17.421  0.00  0.00    +0.000 F 
ATOM     14  C   UNL     1       5.689   5.834  15.847  0.00  0.00    +0.000 A 
BRANCH   7  16
ATOM     15  C   UNL     1       6.331   3.686  13.098  0.00  0.00    +0.000 C 
ATOM     16  C   UNL     1       5.879   4.107  14.125  0.00  0.00    +0.000 C 
ENDBRANCH   7  16
ENDBRANCH   1  11
BRANCH   4  17
ATOM     17  C   UNL     1       1.333   8.511  20.379  0.00  0.00    +0.000 C 
BRANCH  17  18
ATOM     18  C   UNL     1       0.361   8.223  21.533  0.00  0.00    +0.000 C 
BRANCH  18  19
ATOM     19  N   UNL     1      -0.530   9.335  21.841  0.00  0.00    +0.000 N 
ATOM     20  C   UNL     1      -0.447  10.030  23.024  0.00  0.00    +0.000 C 
ATOM     21  C   UNL     1      -1.406  11.186  23.141  0.00  0.00    +0.000 C 
ATOM     22  O   UNL     1       0.319   9.734  23.934  0.00  0.00    +0.000 OA
ATOM     23  H   UNL     1      -1.106   9.693  21.090  0.00  0.00    +0.000 HD
ENDBRANCH  18  19
ENDBRANCH  17  18
ENDBRANCH   4  17
TORSDOF 5
ENDMDL
MODEL 8
REMARK VINA RESULT:      -6.5      3.685      6.480
REMARK  Name = 
REMARK  6 active torsions:
REMARK  status: ('A' for Active; 'I' for Inactive)
REMARK    1  A    between atoms: C_2  and  C_3
REMARK    2  A    between atoms: C_7  and  N_8
REMARK    3  A    between atoms: N_11  and  C_12
REMARK    4  A    between atoms: C_12  and  C_13
REMARK    5  A    between atoms: C_13  and  N_14
REMARK    6  A    between atoms: C_15  and  C_16
REMARK                            x       y       z     vdW  Elec       q    Type
REMARK                         _______ _______ _______ _____ _____    ______ ____
ROOT
ATOM      1  N   UNL     1       3.556   5.248  17.495  0.00  0.00    +0.000 N 
ATOM      2  C   UNL     1       4.932   5.316  17.360  0.00  0.00    +0.000 C 
ATOM      3  O   UNL     1       5.678   5.990  18.059  0.00  0.00    +0.000 OA
ATOM      4  N   UNL     1       5.381   4.583  16.287  0.00  0.00    +0.000 N 
ATOM      5  H   UNL     1       3.074   5.130  16.614  0.00  0.00    +0.000 HD
ATOM      6  H   UNL     1       4.761   3.945  15.811  0.00  0.00    +0.000 HD
ENDROOT
BRANCH   1  11
ATOM      7  C   UNL     1       1.609   7.621  20.429  0.00  0.00    +0.000 A 
ATOM      8  C   UNL     1       1.845   6.258  20.654  0.00  0.00    +0.000 A 
ATOM      9  C   UNL     1       2.498   5.505  19.669  0.00  0.00    +0.000 A 
ATOM     10  F   UNL     1       2.709   4.201  19.898  0.00  0.00    +0.000 F 
ATOM     11  C   UNL     1       2.888   6.062  18.449  0.00  0.00    +0.000 A 
ATOM     12  C   UNL     1       2.627   7.416  18.236  0.00  0.00    +0.000 A 
ATOM     13  F   UNL     1       3.046   8.022  17.116  0.00  0.00    +0.000 F 
ATOM     14  C   UNL     1       1.997   8.189  19.212  0.00  0.00    +0.000 A 
BRANCH   7  16
ATOM     15  C   UNL     1       0.488   9.159  22.247  0.00  0.00    +0.000 C 
ATOM     16  C   UNL     1       0.986   8.444  21.425  0.00  0.00    +0.000 C 
ENDBRANCH   7  16
ENDBRANCH   1  11
BRANCH   4  17
ATOM     17  C   UNL     1       6.797   4.530  15.945  0.00  0.00    +0.000 C 
BRANCH  17  18
ATOM     18  C   UNL     1       7.049   4.431  14.432  0.00  0.00    +0.000 C 
BRANCH  18  19
ATOM     19  N   UNL     1       5.878   4.017  13.669  0.00  0.00    +0.000 N 
ATOM     20  C   UNL     1       5.972   3.579  12.370  0.00  0.00    +0.000 C 
ATOM     21  C   UNL     1       4.668   3.134  11.761  0.00  0.00    +0.000 C 
ATOM     22  O   UNL     1       7.018   3.569  11.729  0.00  0.00    +0.000 OA
ATOM     23  H   UNL     1       5.009   3.901  14.174  0.00  0.00    +0.000 HD
ENDBRANCH  18  19
ENDBRANCH  17  18
ENDBRANCH   4  17
TORSDOF 5
ENDMDL
MODEL 9
REMARK VINA RESULT:      -6.5      3.493      7.676
REMARK  Name = 
REMARK  6 active torsions:
REMARK  status: ('A' for Active; 'I' for Inactive)
REMARK    1  A    between atoms: C_2  and  C_3
REMARK    2  A    between atoms: C_7  and  N_8
REMARK    3  A    between atoms: N_11  and  C_12
REMARK    4  A    between atoms: C_12  and  C_13
REMARK    5  A    between atoms: C_13  and  N_14
REMARK    6  A    between atoms: C_15  and  C_16
REMARK                            x       y       z     vdW  Elec       q    Type
REMARK                         _______ _______ _______ _____ _____    ______ ____
ROOT
ATOM      1  N   UNL     1       5.381   6.571  16.851  0.00  0.00    +0.000 N 
ATOM      2  C   UNL     1       6.473   6.855  17.651  0.00  0.00    +0.000 C 
ATOM      3  O   UNL     1       6.740   6.295  18.708  0.00  0.00    +0.000 OA
ATOM      4  N   UNL     1       7.210   7.907  17.162  0.00  0.00    +0.000 N 
ATOM      5  H   UNL     1       5.012   7.384  16.376  0.00  0.00    +0.000 HD
ATOM      6  H   UNL     1       7.037   8.262  16.234  0.00  0.00    +0.000 HD
ENDROOT
BRANCH   1  11
ATOM      7  C   UNL     1       2.405   3.810  18.098  0.00  0.00    +0.000 A 
ATOM      8  C   UNL     1       2.312   5.164  18.443  0.00  0.00    +0.000 A 
ATOM      9  C   UNL     1       3.306   6.052  18.008  0.00  0.00    +0.000 A 
ATOM     10  F   UNL     1       3.205   7.343  18.354  0.00  0.00    +0.000 F 
ATOM     11  C   UNL     1       4.412   5.620  17.272  0.00  0.00    +0.000 A 
ATOM     12  C   UNL     1       4.497   4.263  16.956  0.00  0.00    +0.000 A 
ATOM     13  F   UNL     1       5.496   3.806  16.188  0.00  0.00    +0.000 F 
ATOM     14  C   UNL     1       3.508   3.367  17.360  0.00  0.00    +0.000 A 
BRANCH   7  16
ATOM     15  C   UNL     1       0.521   2.100  18.771  0.00  0.00    +0.000 C 
ATOM     16  C   UNL     1       1.390   2.872  18.479  0.00  0.00    +0.000 C 
ENDBRANCH   7  16
ENDBRANCH   1  11
BRANCH   4  17
ATOM     17  C   UNL     1       8.396   8.392  17.860  0.00  0.00    +0.000 C 
BRANCH  17  18
ATOM     18  C   UNL     1       8.366   9.906  18.121  0.00  0.00    +0.000 C 
BRANCH  18  19
ATOM     19  N   UNL     1       9.347  10.351  19.102  0.00  0.00    +0.000 N 
ATOM     20  C   UNL     1      10.279  11.319  18.814  0.00  0.00    +0.000 C 
ATOM     21  C   UNL     1      11.171  11.696  19.967  0.00  0.00    +0.000 C 
ATOM     22  O   UNL     1      10.410  11.829  17.706  0.00  0.00    +0.000 OA
ATOM     23  H   UNL     1       9.221  10.048  20.059  0.00  0.00    +0.000 HD
ENDBRANCH  18  19
ENDBRANCH  17  18
ENDBRANCH   4  17
TORSDOF 5
ENDMDL
