MODEL 1
REMARK VINA RESULT:      -7.6      0.000      0.000
REMARK  Name = 
REMARK  12 active torsions:
REMARK  status: ('A' for Active; 'I' for Inactive)
REMARK    1  A    between atoms: C_1  and  O_2
REMARK    2  A    between atoms: O_2  and  C_3
REMARK    3  A    between atoms: C_6  and  C_7
REMARK    4  A    between atoms: C_10  and  O_11
REMARK    5  A    between atoms: O_11  and  C_12
REMARK    6  A    between atoms: C_12  and  C_13
REMARK    7  A    between atoms: C_12  and  C_14
REMARK    8  A    between atoms: C_14  and  N_15
REMARK    9  A    between atoms: C_17  and  C_18
REMARK   10  A    between atoms: C_21  and  C_22
REMARK   11  A    between atoms: C_30  and  O_31
REMARK   12  A    between atoms: O_31  and  C_32
REMARK                            x       y       z     vdW  Elec       q    Type
REMARK                         _______ _______ _______ _____ _____    ______ ____
ROOT
ATOM      1  C   UNL     1       3.754   4.530  17.696  0.00  0.00    +0.000 C 
ATOM      2  C   UNL     1       2.692   3.662  17.018  0.00  0.00    +0.000 C 
ENDROOT
BRANCH   1   3
ATOM      3  O   UNL     1       3.466   4.569  19.104  0.00  0.00    +0.000 OA
BRANCH   3   7
ATOM      4  C   UNL     1       1.288   7.842  20.622  0.00  0.00    +0.000 A 
ATOM      5  C   UNL     1       2.041   7.969  19.454  0.00  0.00    +0.000 A 
ATOM      6  C   UNL     1       2.744   6.897  18.926  0.00  0.00    +0.000 A 
ATOM      7  C   UNL     1       2.750   5.650  19.565  0.00  0.00    +0.000 A 
ATOM      8  C   UNL     1       1.983   5.480  20.731  0.00  0.00    +0.000 A 
ATOM      9  C   UNL     1       1.266   6.575  21.243  0.00  0.00    +0.000 A 
BRANCH   4  13
ATOM     10  C   UNL     1      -0.890  11.181  22.229  0.00  0.00    +0.000 A 
ATOM     11  C   UNL     1      -0.461  10.155  23.066  0.00  0.00    +0.000 A 
ATOM     12  C   UNL     1       0.277   9.091  22.551  0.00  0.00    +0.000 A 
ATOM     13  C   UNL     1       0.565   9.000  21.175  0.00  0.00    +0.000 A 
ATOM     14  C   UNL     1       0.099  10.029  20.344  0.00  0.00    +0.000 A 
ATOM     15  C   UNL     1      -0.613  11.112  20.866  0.00  0.00    +0.000 A 
BRANCH  10  17
ATOM     16  C   UNL     1      -0.994  13.460  22.787  0.00  0.00    +0.000 C 
ATOM     17  O   UNL     1      -1.605  12.175  22.832  0.00  0.00    +0.000 OA
ENDBRANCH  10  17
ENDBRANCH   4  13
BRANCH   8  18
ATOM     18  O   UNL     1       1.976   4.230  21.302  0.00  0.00    +0.000 OA
ATOM     19  C   UNL     1       1.065   3.275  20.765  0.00  0.00    +0.000 C 
ENDBRANCH   8  18
ENDBRANCH   3   7
ENDBRANCH   1   3
BRANCH   1  20
ATOM     20  C   UNL     1       5.149   3.953  17.460  0.00  0.00    +0.000 C 
BRANCH  20  21
ATOM     21  N   UNL     1       6.208   4.883  17.796  0.00  0.00    +0.000 N 
ATOM     22  C   UNL     1       6.258   6.209  17.499  0.00  0.00    +0.000 A 
ATOM     23  C   UNL     1       7.402   6.648  18.127  0.00  0.00    +0.000 A 
ATOM     24  N   UNL     1       7.985   5.593  18.783  0.00  0.00    +0.000 NA
ATOM     25  N   UNL     1       7.234   4.515  18.585  0.00  0.00    +0.000 NA
BRANCH  23  26
ATOM     26  C   UNL     1       7.886   8.013  18.156  0.00  0.00    +0.000 A 
ATOM     27  C   UNL     1       8.874   8.384  19.077  0.00  0.00    +0.000 A 
ATOM     28  C   UNL     1       9.323   9.709  19.141  0.00  0.00    +0.000 A 
ATOM     29  C   UNL     1       8.803  10.685  18.279  0.00  0.00    +0.000 A 
ATOM     30  C   UNL     1       7.814  10.309  17.353  0.00  0.00    +0.000 A 
ATOM     31  C   UNL     1       7.365   8.986  17.291  0.00  0.00    +0.000 A 
BRANCH  29  32
ATOM     32  C   UNL     1       9.277  12.111  18.327  0.00  0.00    +0.000 C 
ATOM     33  F   UNL     1       8.491  12.974  17.620  0.00  0.00    +0.000 F 
ATOM     34  F   UNL     1       9.320  12.607  19.597  0.00  0.00    +0.000 F 
ATOM     35  F   UNL     1      10.536  12.266  17.829  0.00  0.00    +0.000 F 
ENDBRANCH  29  32
ENDBRANCH  23  26
ENDBRANCH  20  21
ENDBRANCH   1  20
TORSDOF 9
ENDMDL
MODEL 2
REMARK VINA RESULT:      -7.6      1.449      1.810
REMARK  Name = 
REMARK  12 active torsions:
REMARK  status: ('A' for Active; 'I' for Inactive)
REMARK    1  A    between atoms: C_1  and  O_2
REMARK    2  A    between atoms: O_2  and  C_3
REMARK    3  A    between atoms: C_6  and  C_7
REMARK    4  A    between atoms: C_10  and  O_11
REMARK    5  A    between atoms: O_11  and  C_12
REMARK    6  A    between atoms: C_12  and  C_13
REMARK    7  A    between atoms: C_12  and  C_14
REMARK    8  A    between atoms: C_14  and  N_15
REMARK    9  A    between atoms: C_17  and  C_18
REMARK   10  A    between atoms: C_21  and  C_22
REMARK   11  A    between atoms: C_30  and  O_31
REMARK   12  A    between atoms: O_31  and  C_32
REMARK                            x       y       z     vdW  Elec       q    Type
REMARK                         _______ _______ _______ _____ _____    ______ ____
ROOT
ATOM      1  C   UNL     1       4.706   4.624  17.660  0.00  0.00    +0.000 C 
ATOM      2  C   UNL     1       4.259   3.271  17.101  0.00  0.00    +0.000 C 
ENDROOT
BRANCH   1   3
ATOM      3  O   UNL     1       3.999   4.854  18.889  0.00  0.00    +0.000 OA
BRANCH   3   7
ATOM      4  C   UNL     1       1.664   8.346  19.234  0.00  0.00    +0.000 A 
ATOM      5  C   UNL     1       2.524   8.171  18.150  0.00  0.00    +0.000 A 
ATOM      6  C   UNL     1       3.282   7.018  18.007  0.00  0.00    +0.000 A 
ATOM      7  C   UNL     1       3.234   5.997  18.964  0.00  0.00    +0.000 A 
ATOM      8  C   UNL     1       2.360   6.130  20.057  0.00  0.00    +0.000 A 
ATOM      9  C   UNL     1       1.590   7.300  20.177  0.00  0.00    +0.000 A 
BRANCH   4  13
ATOM     10  C   UNL     1      -0.674  11.925  19.679  0.00  0.00    +0.000 A 
ATOM     11  C   UNL     1       0.120  11.471  20.728  0.00  0.00    +0.000 A 
ATOM     12  C   UNL     1       0.906  10.331  20.570  0.00  0.00    +0.000 A 
ATOM     13  C   UNL     1       0.883   9.587  19.375  0.00  0.00    +0.000 A 
ATOM     14  C   UNL     1       0.054  10.045  18.340  0.00  0.00    +0.000 A 
ATOM     15  C   UNL     1      -0.709  11.207  18.487  0.00  0.00    +0.000 A 
BRANCH  10  17
ATOM     16  C   UNL     1      -0.634  14.231  20.122  0.00  0.00    +0.000 C 
ATOM     17  O   UNL     1      -1.405  13.050  19.934  0.00  0.00    +0.000 OA
ENDBRANCH  10  17
ENDBRANCH   4  13
BRANCH   8  18
ATOM     18  O   UNL     1       2.306   5.086  20.950  0.00  0.00    +0.000 OA
ATOM     19  C   UNL     1       1.311   4.091  20.729  0.00  0.00    +0.000 C 
ENDBRANCH   8  18
ENDBRANCH   3   7
ENDBRANCH   1   3
BRANCH   1  20
ATOM     20  C   UNL     1       6.213   4.628  17.911  0.00  0.00    +0.000 C 
BRANCH  20  21
ATOM     21  N   UNL     1       6.835   5.896  17.587  0.00  0.00    +0.000 N 
ATOM     22  C   UNL     1       7.102   6.919  18.443  0.00  0.00    +0.000 A 
ATOM     23  C   UNL     1       7.785   7.830  17.669  0.00  0.00    +0.000 A 
ATOM     24  N   UNL     1       7.918   7.327  16.399  0.00  0.00    +0.000 NA
ATOM     25  N   UNL     1       7.344   6.130  16.364  0.00  0.00    +0.000 NA
BRANCH  23  26
ATOM     26  C   UNL     1       8.339   9.088  18.126  0.00  0.00    +0.000 A 
ATOM     27  C   UNL     1       9.045   9.142  19.335  0.00  0.00    +0.000 A 
ATOM     28  C   UNL     1       9.552  10.359  19.806  0.00  0.00    +0.000 A 
ATOM     29  C   UNL     1       9.375  11.542  19.075  0.00  0.00    +0.000 A 
ATOM     30  C   UNL     1       8.669  11.484  17.860  0.00  0.00    +0.000 A 
ATOM     31  C   UNL     1       8.161  10.269  17.390  0.00  0.00    +0.000 A 
BRANCH  29  32
ATOM     32  C   UNL     1       9.918  12.858  19.560  0.00  0.00    +0.000 C 
ATOM     33  F   UNL     1       9.037  13.566  20.324  0.00  0.00    +0.000 F 
ATOM     34  F   UNL     1      11.036  12.711  20.328  0.00  0.00    +0.000 F 
ATOM     35  F   UNL     1      10.276  13.688  18.542  0.00  0.00    +0.000 F 
ENDBRANCH  29  32
ENDBRANCH  23  26
ENDBRANCH  20  21
ENDBRANCH   1  20
TORSDOF 9
ENDMDL
MODEL 3
REMARK VINA RESULT:      -7.6      1.450      2.016
REMARK  Name = 
REMARK  12 active torsions:
REMARK  status: ('A' for Active; 'I' for Inactive)
REMARK    1  A    between atoms: C_1  and  O_2
REMARK    2  A    between atoms: O_2  and  C_3
REMARK    3  A    between atoms: C_6  and  C_7
REMARK    4  A    between atoms: C_10  and  O_11
REMARK    5  A    between atoms: O_11  and  C_12
REMARK    6  A    between atoms: C_12  and  C_13
REMARK    7  A    between atoms: C_12  and  C_14
REMARK    8  A    between atoms: C_14  and  N_15
REMARK    9  A    between atoms: C_17  and  C_18
REMARK   10  A    between atoms: C_21  and  C_22
REMARK   11  A    between atoms: C_30  and  O_31
REMARK   12  A    between atoms: O_31  and  C_32
REMARK                            x       y       z     vdW  Elec       q    Type
REMARK                         _______ _______ _______ _____ _____    ______ ____
ROOT
ATOM      1  C   UNL     1       5.576   5.073  15.791  0.00  0.00    +0.000 C 
ATOM      2  C   UNL     1       5.279   4.297  14.506  0.00  0.00    +0.000 C 
ENDROOT
BRANCH   1   3
ATOM      3  O   UNL     1       4.628   4.662  16.789  0.00  0.00    +0.000 OA
BRANCH   3   7
ATOM      4  C   UNL     1       2.214   7.606  18.597  0.00  0.00    +0.000 A 
ATOM      5  C   UNL     1       3.285   7.969  17.780  0.00  0.00    +0.000 A 
ATOM      6  C   UNL     1       4.075   7.014  17.157  0.00  0.00    +0.000 A 
ATOM      7  C   UNL     1       3.845   5.646  17.350  0.00  0.00    +0.000 A 
ATOM      8  C   UNL     1       2.759   5.245  18.148  0.00  0.00    +0.000 A 
ATOM      9  C   UNL     1       1.962   6.228  18.759  0.00  0.00    +0.000 A 
BRANCH   4  13
ATOM     10  C   UNL     1      -0.225  10.569  20.533  0.00  0.00    +0.000 A 
ATOM     11  C   UNL     1       0.323   9.522  21.268  0.00  0.00    +0.000 A 
ATOM     12  C   UNL     1       1.143   8.582  20.647  0.00  0.00    +0.000 A 
ATOM     13  C   UNL     1       1.400   8.637  19.263  0.00  0.00    +0.000 A 
ATOM     14  C   UNL     1       0.815   9.684  18.535  0.00  0.00    +0.000 A 
ATOM     15  C   UNL     1       0.019  10.645  19.164  0.00  0.00    +0.000 A 
BRANCH  10  17
ATOM     16  C   UNL     1      -0.753  11.478  22.633  0.00  0.00    +0.000 C 
ATOM     17  O   UNL     1      -1.013  11.435  21.234  0.00  0.00    +0.000 OA
ENDBRANCH  10  17
ENDBRANCH   4  13
BRANCH   8  18
ATOM     18  O   UNL     1       2.536   3.895  18.274  0.00  0.00    +0.000 OA
ATOM     19  C   UNL     1       1.468   3.488  19.124  0.00  0.00    +0.000 C 
ENDBRANCH   8  18
ENDBRANCH   3   7
ENDBRANCH   1   3
BRANCH   1  20
ATOM     20  C   UNL     1       6.999   4.794  16.270  0.00  0.00    +0.000 C 
BRANCH  20  21
ATOM     21  N   UNL     1       7.504   5.815  17.165  0.00  0.00    +0.000 N 
ATOM     22  C   UNL     1       7.762   7.115  16.861  0.00  0.00    +0.000 A 
ATOM     23  C   UNL     1       8.112   7.675  18.070  0.00  0.00    +0.000 A 
ATOM     24  N   UNL     1       8.039   6.714  19.046  0.00  0.00    +0.000 NA
ATOM     25  N   UNL     1       7.649   5.577  18.481  0.00  0.00    +0.000 NA
BRANCH  23  26
ATOM     26  C   UNL     1       8.439   9.068  18.298  0.00  0.00    +0.000 A 
ATOM     27  C   UNL     1       9.167   9.437  19.437  0.00  0.00    +0.000 A 
ATOM     28  C   UNL     1       9.456  10.783  19.689  0.00  0.00    +0.000 A 
ATOM     29  C   UNL     1       9.036  11.785  18.804  0.00  0.00    +0.000 A 
ATOM     30  C   UNL     1       8.309  11.412  17.660  0.00  0.00    +0.000 A 
ATOM     31  C   UNL     1       8.018  10.067  17.409  0.00  0.00    +0.000 A 
BRANCH  29  32
ATOM     32  C   UNL     1       9.343  13.236  19.052  0.00  0.00    +0.000 C 
ATOM     33  F   UNL     1       8.255  13.971  19.422  0.00  0.00    +0.000 F 
ATOM     34  F   UNL     1      10.263  13.415  20.044  0.00  0.00    +0.000 F 
ATOM     35  F   UNL     1       9.857  13.862  17.956  0.00  0.00    +0.000 F 
ENDBRANCH  29  32
ENDBRANCH  23  26
ENDBRANCH  20  21
ENDBRANCH   1  20
TORSDOF 9
ENDMDL
MODEL 4
REMARK VINA RESULT:      -7.4      1.248      1.988
REMARK  Name = 
REMARK  12 active torsions:
REMARK  status: ('A' for Active; 'I' for Inactive)
REMARK    1  A    between atoms: C_1  and  O_2
REMARK    2  A    between atoms: O_2  and  C_3
REMARK    3  A    between atoms: C_6  and  C_7
REMARK    4  A    between atoms: C_10  and  O_11
REMARK    5  A    between atoms: O_11  and  C_12
REMARK    6  A    between atoms: C_12  and  C_13
REMARK    7  A    between atoms: C_12  and  C_14
REMARK    8  A    between atoms: C_14  and  N_15
REMARK    9  A    between atoms: C_17  and  C_18
REMARK   10  A    between atoms: C_21  and  C_22
REMARK   11  A    between atoms: C_30  and  O_31
REMARK   12  A    between atoms: O_31  and  C_32
REMARK                            x       y       z     vdW  Elec       q    Type
REMARK                         _______ _______ _______ _____ _____    ______ ____
ROOT
ATOM      1  C   UNL     1       4.261   4.550  17.745  0.00  0.00    +0.000 C 
ATOM      2  C   UNL     1       3.516   3.255  17.414  0.00  0.00    +0.000 C 
ENDROOT
BRANCH   1   3
ATOM      3  O   UNL     1       3.872   4.964  19.065  0.00  0.00    +0.000 OA
BRANCH   3   7
ATOM      4  C   UNL     1       1.512   8.431  19.475  0.00  0.00    +0.000 A 
ATOM      5  C   UNL     1       2.369   8.280  18.385  0.00  0.00    +0.000 A 
ATOM      6  C   UNL     1       3.135   7.135  18.220  0.00  0.00    +0.000 A 
ATOM      7  C   UNL     1       3.099   6.099  19.162  0.00  0.00    +0.000 A 
ATOM      8  C   UNL     1       2.228   6.208  20.260  0.00  0.00    +0.000 A 
ATOM      9  C   UNL     1       1.451   7.370  20.402  0.00  0.00    +0.000 A 
BRANCH   4  13
ATOM     10  C   UNL     1      -0.730  12.070  19.934  0.00  0.00    +0.000 A 
ATOM     11  C   UNL     1      -0.637  11.456  18.689  0.00  0.00    +0.000 A 
ATOM     12  C   UNL     1       0.060  10.257  18.548  0.00  0.00    +0.000 A 
ATOM     13  C   UNL     1       0.722   9.664  19.640  0.00  0.00    +0.000 A 
ATOM     14  C   UNL     1       0.641  10.314  20.880  0.00  0.00    +0.000 A 
ATOM     15  C   UNL     1      -0.085  11.499  21.028  0.00  0.00    +0.000 A 
BRANCH  10  17
ATOM     16  C   UNL     1      -1.752  13.708  21.270  0.00  0.00    +0.000 C 
ATOM     17  O   UNL     1      -1.433  13.239  19.965  0.00  0.00    +0.000 OA
ENDBRANCH  10  17
ENDBRANCH   4  13
BRANCH   8  18
ATOM     18  O   UNL     1       2.186   5.151  21.137  0.00  0.00    +0.000 OA
ATOM     19  C   UNL     1       1.342   4.055  20.795  0.00  0.00    +0.000 C 
ENDBRANCH   8  18
ENDBRANCH   3   7
ENDBRANCH   1   3
BRANCH   1  20
ATOM     20  C   UNL     1       5.771   4.330  17.686  0.00  0.00    +0.000 C 
BRANCH  20  21
ATOM     21  N   UNL     1       6.508   5.543  17.398  0.00  0.00    +0.000 N 
ATOM     22  C   UNL     1       6.664   6.619  18.215  0.00  0.00    +0.000 A 
ATOM     23  C   UNL     1       7.525   7.440  17.522  0.00  0.00    +0.000 A 
ATOM     24  N   UNL     1       7.865   6.835  16.338  0.00  0.00    +0.000 NA
ATOM     25  N   UNL     1       7.245   5.662  16.279  0.00  0.00    +0.000 NA
BRANCH  23  26
ATOM     26  C   UNL     1       8.050   8.708  17.986  0.00  0.00    +0.000 A 
ATOM     27  C   UNL     1       7.703   9.893  17.324  0.00  0.00    +0.000 A 
ATOM     28  C   UNL     1       8.233  11.120  17.739  0.00  0.00    +0.000 A 
ATOM     29  C   UNL     1       9.110  11.190  18.830  0.00  0.00    +0.000 A 
ATOM     30  C   UNL     1       9.454  10.000  19.496  0.00  0.00    +0.000 A 
ATOM     31  C   UNL     1       8.926   8.774  19.080  0.00  0.00    +0.000 A 
BRANCH  29  32
ATOM     32  C   UNL     1       9.685  12.499  19.297  0.00  0.00    +0.000 C 
ATOM     33  F   UNL     1      10.787  12.362  20.090  0.00  0.00    +0.000 F 
ATOM     34  F   UNL     1      10.072  13.299  18.262  0.00  0.00    +0.000 F 
ATOM     35  F   UNL     1       8.798  13.237  20.021  0.00  0.00    +0.000 F 
ENDBRANCH  29  32
ENDBRANCH  23  26
ENDBRANCH  20  21
ENDBRANCH   1  20
TORSDOF 9
ENDMDL
MODEL 5
REMARK VINA RESULT:      -7.4      1.102      1.631
REMARK  Name = 
REMARK  12 active torsions:
REMARK  status: ('A' for Active; 'I' for Inactive)
REMARK    1  A    between atoms: C_1  and  O_2
REMARK    2  A    between atoms: O_2  and  C_3
REMARK    3  A    between atoms: C_6  and  C_7
REMARK    4  A    between atoms: C_10  and  O_11
REMARK    5  A    between atoms: O_11  and  C_12
REMARK    6  A    between atoms: C_12  and  C_13
REMARK    7  A    between atoms: C_12  and  C_14
REMARK    8  A    between atoms: C_14  and  N_15
REMARK    9  A    between atoms: C_17  and  C_18
REMARK   10  A    between atoms: C_21  and  C_22
REMARK   11  A    between atoms: C_30  and  O_31
REMARK   12  A    between atoms: O_31  and  C_32
REMARK                            x       y       z     vdW  Elec       q    Type
REMARK                         _______ _______ _______ _____ _____    ______ ____
ROOT
ATOM      1  C   UNL     1       3.417   3.574  17.748  0.00  0.00    +0.000 C 
ATOM      2  C   UNL     1       2.630   2.262  17.772  0.00  0.00    +0.000 C 
ENDROOT
BRANCH   1   3
ATOM      3  O   UNL     1       3.552   4.038  19.101  0.00  0.00    +0.000 OA
BRANCH   3   7
ATOM      4  C   UNL     1       1.552   7.574  20.222  0.00  0.00    +0.000 A 
ATOM      5  C   UNL     1       2.252   7.506  19.018  0.00  0.00    +0.000 A 
ATOM      6  C   UNL     1       2.895   6.343  18.621  0.00  0.00    +0.000 A 
ATOM      7  C   UNL     1       2.892   5.201  19.431  0.00  0.00    +0.000 A 
ATOM      8  C   UNL     1       2.175   5.228  20.641  0.00  0.00    +0.000 A 
ATOM      9  C   UNL     1       1.519   6.411  21.019  0.00  0.00    +0.000 A 
BRANCH   4  13
ATOM     10  C   UNL     1      -0.304  11.259  21.428  0.00  0.00    +0.000 A 
ATOM     11  C   UNL     1       0.032  11.047  20.094  0.00  0.00    +0.000 A 
ATOM     12  C   UNL     1       0.601   9.838  19.698  0.00  0.00    +0.000 A 
ATOM     13  C   UNL     1       0.892   8.826  20.633  0.00  0.00    +0.000 A 
ATOM     14  C   UNL     1       0.570   9.070  21.976  0.00  0.00    +0.000 A 
ATOM     15  C   UNL     1      -0.029  10.270  22.368  0.00  0.00    +0.000 A 
BRANCH  10  17
ATOM     16  C   UNL     1      -1.322  12.621  23.048  0.00  0.00    +0.000 C 
ATOM     17  O   UNL     1      -0.855  12.476  21.712  0.00  0.00    +0.000 OA
ENDBRANCH  10  17
ENDBRANCH   4  13
BRANCH   8  18
ATOM     18  O   UNL     1       2.156   4.073  21.385  0.00  0.00    +0.000 OA
ATOM     19  C   UNL     1       1.145   3.117  21.078  0.00  0.00    +0.000 C 
ENDBRANCH   8  18
ENDBRANCH   3   7
ENDBRANCH   1   3
BRANCH   1  20
ATOM     20  C   UNL     1       4.795   3.361  17.125  0.00  0.00    +0.000 C 
BRANCH  20  21
ATOM     21  N   UNL     1       5.505   4.602  16.889  0.00  0.00    +0.000 N 
ATOM     22  C   UNL     1       5.980   5.465  17.827  0.00  0.00    +0.000 A 
ATOM     23  C   UNL     1       6.657   6.413  17.093  0.00  0.00    +0.000 A 
ATOM     24  N   UNL     1       6.583   6.087  15.763  0.00  0.00    +0.000 NA
ATOM     25  N   UNL     1       5.885   4.963  15.649  0.00  0.00    +0.000 NA
BRANCH  23  26
ATOM     26  C   UNL     1       7.393   7.539  17.632  0.00  0.00    +0.000 A 
ATOM     27  C   UNL     1       8.352   7.333  18.632  0.00  0.00    +0.000 A 
ATOM     28  C   UNL     1       9.042   8.417  19.188  0.00  0.00    +0.000 A 
ATOM     29  C   UNL     1       8.797   9.725  18.748  0.00  0.00    +0.000 A 
ATOM     30  C   UNL     1       7.836   9.929  17.742  0.00  0.00    +0.000 A 
ATOM     31  C   UNL     1       7.146   8.846  17.188  0.00  0.00    +0.000 A 
BRANCH  29  32
ATOM     32  C   UNL     1       9.533  10.902  19.327  0.00  0.00    +0.000 C 
ATOM     33  F   UNL     1       9.418  11.007  20.683  0.00  0.00    +0.000 F 
ATOM     34  F   UNL     1      10.872  10.860  19.072  0.00  0.00    +0.000 F 
ATOM     35  F   UNL     1       9.099  12.093  18.826  0.00  0.00    +0.000 F 
ENDBRANCH  29  32
ENDBRANCH  23  26
ENDBRANCH  20  21
ENDBRANCH   1  20
TORSDOF 9
ENDMDL
MODEL 6
REMARK VINA RESULT:      -7.3      0.819      1.087
REMARK  Name = 
REMARK  12 active torsions:
REMARK  status: ('A' for Active; 'I' for Inactive)
REMARK    1  A    between atoms: C_1  and  O_2
REMARK    2  A    between atoms: O_2  and  C_3
REMARK    3  A    between atoms: C_6  and  C_7
REMARK    4  A    between atoms: C_10  and  O_11
REMARK    5  A    between atoms: O_11  and  C_12
REMARK    6  A    between atoms: C_12  and  C_13
REMARK    7  A    between atoms: C_12  and  C_14
REMARK    8  A    between atoms: C_14  and  N_15
REMARK    9  A    between atoms: C_17  and  C_18
REMARK   10  A    between atoms: C_21  and  C_22
REMARK   11  A    between atoms: C_30  and  O_31
REMARK   12  A    between atoms: O_31  and  C_32
REMARK                            x       y       z     vdW  Elec       q    Type
REMARK                         _______ _______ _______ _____ _____    ______ ____
ROOT
ATOM      1  C   UNL     1       3.705   4.260  17.464  0.00  0.00    +0.000 C 
ATOM      2  C   UNL     1       3.552   2.762  17.739  0.00  0.00    +0.000 C 
ENDROOT
BRANCH   1   3
ATOM      3  O   UNL     1       4.000   4.914  18.709  0.00  0.00    +0.000 OA
BRANCH   3   7
ATOM      4  C   UNL     1       1.507   8.079  19.945  0.00  0.00    +0.000 A 
ATOM      5  C   UNL     1       2.218   8.161  18.748  0.00  0.00    +0.000 A 
ATOM      6  C   UNL     1       3.024   7.119  18.313  0.00  0.00    +0.000 A 
ATOM      7  C   UNL     1       3.178   5.956  19.077  0.00  0.00    +0.000 A 
ATOM      8  C   UNL     1       2.457   5.830  20.277  0.00  0.00    +0.000 A 
ATOM      9  C   UNL     1       1.635   6.891  20.695  0.00  0.00    +0.000 A 
BRANCH   4  13
ATOM     10  C   UNL     1      -0.991  11.318  21.268  0.00  0.00    +0.000 A 
ATOM     11  C   UNL     1      -0.354  10.499  22.196  0.00  0.00    +0.000 A 
ATOM     12  C   UNL     1       0.484   9.471  21.767  0.00  0.00    +0.000 A 
ATOM     13  C   UNL     1       0.672   9.206  20.397  0.00  0.00    +0.000 A 
ATOM     14  C   UNL     1      -0.000  10.025  19.478  0.00  0.00    +0.000 A 
ATOM     15  C   UNL     1      -0.816  11.075  19.908  0.00  0.00    +0.000 A 
BRANCH  10  17
ATOM     16  C   UNL     1      -2.261  12.034  23.109  0.00  0.00    +0.000 C 
ATOM     17  O   UNL     1      -1.790  12.293  21.791  0.00  0.00    +0.000 OA
ENDBRANCH  10  17
ENDBRANCH   4  13
BRANCH   8  18
ATOM     18  O   UNL     1       2.598   4.655  20.975  0.00  0.00    +0.000 OA
ATOM     19  C   UNL     1       1.521   3.724  20.906  0.00  0.00    +0.000 C 
ENDBRANCH   8  18
ENDBRANCH   3   7
ENDBRANCH   1   3
BRANCH   1  20
ATOM     20  C   UNL     1       4.830   4.508  16.461  0.00  0.00    +0.000 C 
BRANCH  20  21
ATOM     21  N   UNL     1       5.929   5.267  17.022  0.00  0.00    +0.000 N 
ATOM     22  C   UNL     1       6.131   6.609  16.926  0.00  0.00    +0.000 A 
ATOM     23  C   UNL     1       7.239   6.835  17.711  0.00  0.00    +0.000 A 
ATOM     24  N   UNL     1       7.651   5.646  18.256  0.00  0.00    +0.000 NA
ATOM     25  N   UNL     1       6.829   4.690  17.838  0.00  0.00    +0.000 NA
BRANCH  23  26
ATOM     26  C   UNL     1       7.840   8.125  17.981  0.00  0.00    +0.000 A 
ATOM     27  C   UNL     1       8.774   8.257  19.017  0.00  0.00    +0.000 A 
ATOM     28  C   UNL     1       9.333   9.506  19.313  0.00  0.00    +0.000 A 
ATOM     29  C   UNL     1       8.982  10.644  18.574  0.00  0.00    +0.000 A 
ATOM     30  C   UNL     1       8.047  10.507  17.532  0.00  0.00    +0.000 A 
ATOM     31  C   UNL     1       7.486   9.260  17.238  0.00  0.00    +0.000 A 
BRANCH  29  32
ATOM     32  C   UNL     1       9.577  11.992  18.871  0.00  0.00    +0.000 C 
ATOM     33  F   UNL     1      10.913  11.953  19.145  0.00  0.00    +0.000 F 
ATOM     34  F   UNL     1       9.438  12.866  17.833  0.00  0.00    +0.000 F 
ATOM     35  F   UNL     1       8.997  12.599  19.944  0.00  0.00    +0.000 F 
ENDBRANCH  29  32
ENDBRANCH  23  26
ENDBRANCH  20  21
ENDBRANCH   1  20
TORSDOF 9
ENDMDL
MODEL 7
REMARK VINA RESULT:      -7.3      4.227      8.164
REMARK  Name = 
REMARK  12 active torsions:
REMARK  status: ('A' for Active; 'I' for Inactive)
REMARK    1  A    between atoms: C_1  and  O_2
REMARK    2  A    between atoms: O_2  and  C_3
REMARK    3  A    between atoms: C_6  and  C_7
REMARK    4  A    between atoms: C_10  and  O_11
REMARK    5  A    between atoms: O_11  and  C_12
REMARK    6  A    between atoms: C_12  and  C_13
REMARK    7  A    between atoms: C_12  and  C_14
REMARK    8  A    between atoms: C_14  and  N_15
REMARK    9  A    between atoms: C_17  and  C_18
REMARK   10  A    between atoms: C_21  and  C_22
REMARK   11  A    between atoms: C_30  and  O_31
REMARK   12  A    between atoms: O_31  and  C_32
REMARK                            x       y       z     vdW  Elec       q    Type
REMARK                         _______ _______ _______ _____ _____    ______ ____
ROOT
ATOM      1  C   UNL     1       4.680   4.096  17.958  0.00  0.00    +0.000 C 
ATOM      2  C   UNL     1       4.074   2.827  17.355  0.00  0.00    +0.000 C 
ENDROOT
BRANCH   1   3
ATOM      3  O   UNL     1       6.023   4.227  17.462  0.00  0.00    +0.000 OA
BRANCH   3   7
ATOM      4  C   UNL     1       7.883   7.960  18.071  0.00  0.00    +0.000 A 
ATOM      5  C   UNL     1       7.864   7.002  19.085  0.00  0.00    +0.000 A 
ATOM      6  C   UNL     1       7.278   5.759  18.894  0.00  0.00    +0.000 A 
ATOM      7  C   UNL     1       6.655   5.430  17.684  0.00  0.00    +0.000 A 
ATOM      8  C   UNL     1       6.677   6.363  16.633  0.00  0.00    +0.000 A 
ATOM      9  C   UNL     1       7.287   7.612  16.841  0.00  0.00    +0.000 A 
BRANCH   4  13
ATOM     10  C   UNL     1       9.606  11.831  18.792  0.00  0.00    +0.000 A 
ATOM     11  C   UNL     1       9.878  10.771  19.652  0.00  0.00    +0.000 A 
ATOM     12  C   UNL     1       9.348   9.507  19.398  0.00  0.00    +0.000 A 
ATOM     13  C   UNL     1       8.494   9.280  18.302  0.00  0.00    +0.000 A 
ATOM     14  C   UNL     1       8.209  10.368  17.463  0.00  0.00    +0.000 A 
ATOM     15  C   UNL     1       8.766  11.628  17.700  0.00  0.00    +0.000 A 
BRANCH  10  17
ATOM     16  C   UNL     1      11.356  13.350  18.410  0.00  0.00    +0.000 C 
ATOM     17  O   UNL     1      10.172  13.026  19.130  0.00  0.00    +0.000 OA
ENDBRANCH  10  17
ENDBRANCH   4  13
BRANCH   8  18
ATOM     18  O   UNL     1       6.097   5.986  15.445  0.00  0.00    +0.000 OA
ATOM     19  C   UNL     1       6.841   5.105  14.608  0.00  0.00    +0.000 C 
ENDBRANCH   8  18
ENDBRANCH   3   7
ENDBRANCH   1   3
BRANCH   1  20
ATOM     20  C   UNL     1       3.855   5.322  17.569  0.00  0.00    +0.000 C 
BRANCH  20  21
ATOM     21  N   UNL     1       3.180   5.928  18.699  0.00  0.00    +0.000 N 
ATOM     22  C   UNL     1       2.673   7.188  18.770  0.00  0.00    +0.000 A 
ATOM     23  C   UNL     1       2.051   7.227  19.998  0.00  0.00    +0.000 A 
ATOM     24  N   UNL     1       2.189   6.006  20.608  0.00  0.00    +0.000 NA
ATOM     25  N   UNL     1       2.872   5.209  19.794  0.00  0.00    +0.000 NA
BRANCH  23  26
ATOM     26  C   UNL     1       1.309   8.347  20.539  0.00  0.00    +0.000 A 
ATOM     27  C   UNL     1       0.973   8.370  21.899  0.00  0.00    +0.000 A 
ATOM     28  C   UNL     1       0.224   9.428  22.427  0.00  0.00    +0.000 A 
ATOM     29  C   UNL     1      -0.194  10.489  21.611  0.00  0.00    +0.000 A 
ATOM     30  C   UNL     1       0.147  10.464  20.247  0.00  0.00    +0.000 A 
ATOM     31  C   UNL     1       0.894   9.407  19.720  0.00  0.00    +0.000 A 
BRANCH  29  32
ATOM     32  C   UNL     1      -0.994  11.638  22.161  0.00  0.00    +0.000 C 
ATOM     33  F   UNL     1      -1.639  11.349  23.328  0.00  0.00    +0.000 F 
ATOM     34  F   UNL     1      -0.224  12.732  22.426  0.00  0.00    +0.000 F 
ATOM     35  F   UNL     1      -1.960  12.067  21.301  0.00  0.00    +0.000 F 
ENDBRANCH  29  32
ENDBRANCH  23  26
ENDBRANCH  20  21
ENDBRANCH   1  20
TORSDOF 9
ENDMDL
MODEL 8
REMARK VINA RESULT:      -7.2      3.887      5.035
REMARK  Name = 
REMARK  12 active torsions:
REMARK  status: ('A' for Active; 'I' for Inactive)
REMARK    1  A    between atoms: C_1  and  O_2
REMARK    2  A    between atoms: O_2  and  C_3
REMARK    3  A    between atoms: C_6  and  C_7
REMARK    4  A    between atoms: C_10  and  O_11
REMARK    5  A    between atoms: O_11  and  C_12
REMARK    6  A    between atoms: C_12  and  C_13
REMARK    7  A    between atoms: C_12  and  C_14
REMARK    8  A    between atoms: C_14  and  N_15
REMARK    9  A    between atoms: C_17  and  C_18
REMARK   10  A    between atoms: C_21  and  C_22
REMARK   11  A    between atoms: C_30  and  O_31
REMARK   12  A    between atoms: O_31  and  C_32
REMARK                            x       y       z     vdW  Elec       q    Type
REMARK                         _______ _______ _______ _____ _____    ______ ____
ROOT
ATOM      1  C   UNL     1       1.357   4.033  20.263  0.00  0.00    +0.000 C 
ATOM      2  C   UNL     1       1.429   3.239  21.569  0.00  0.00    +0.000 C 
ENDROOT
BRANCH   1   3
ATOM      3  O   UNL     1       2.369   5.051  20.303  0.00  0.00    +0.000 OA
BRANCH   3   7
ATOM      4  C   UNL     1       1.054   9.050  20.100  0.00  0.00    +0.000 A 
ATOM      5  C   UNL     1       0.684   8.234  21.168  0.00  0.00    +0.000 A 
ATOM      6  C   UNL     1       1.127   6.923  21.264  0.00  0.00    +0.000 A 
ATOM      7  C   UNL     1       1.940   6.359  20.274  0.00  0.00    +0.000 A 
ATOM      8  C   UNL     1       2.353   7.161  19.195  0.00  0.00    +0.000 A 
ATOM      9  C   UNL     1       1.904   8.491  19.122  0.00  0.00    +0.000 A 
BRANCH   4  13
ATOM     10  C   UNL     1      -0.471  13.061  19.847  0.00  0.00    +0.000 A 
ATOM     11  C   UNL     1      -0.109  12.525  21.079  0.00  0.00    +0.000 A 
ATOM     12  C   UNL     1       0.419  11.237  21.156  0.00  0.00    +0.000 A 
ATOM     13  C   UNL     1       0.556  10.434  20.008  0.00  0.00    +0.000 A 
ATOM     14  C   UNL     1       0.160  10.983  18.779  0.00  0.00    +0.000 A 
ATOM     15  C   UNL     1      -0.340  12.285  18.698  0.00  0.00    +0.000 A 
BRANCH  10  17
ATOM     16  C   UNL     1      -2.140  14.484  20.686  0.00  0.00    +0.000 C 
ATOM     17  O   UNL     1      -0.978  14.328  19.880  0.00  0.00    +0.000 OA
ENDBRANCH  10  17
ENDBRANCH   4  13
BRANCH   8  18
ATOM     18  O   UNL     1       3.189   6.587  18.268  0.00  0.00    +0.000 OA
ATOM     19  C   UNL     1       3.902   7.465  17.402  0.00  0.00    +0.000 C 
ENDBRANCH   8  18
ENDBRANCH   3   7
ENDBRANCH   1   3
BRANCH   1  20
ATOM     20  C   UNL     1       1.583   3.113  19.064  0.00  0.00    +0.000 C 
BRANCH  20  21
ATOM     21  N   UNL     1       2.906   3.249  18.490  0.00  0.00    +0.000 N 
ATOM     22  C   UNL     1       3.212   3.556  17.201  0.00  0.00    +0.000 A 
ATOM     23  C   UNL     1       4.584   3.668  17.203  0.00  0.00    +0.000 A 
ATOM     24  N   UNL     1       5.049   3.445  18.474  0.00  0.00    +0.000 NA
ATOM     25  N   UNL     1       4.008   3.203  19.261  0.00  0.00    +0.000 NA
BRANCH  23  26
ATOM     26  C   UNL     1       5.409   4.031  16.069  0.00  0.00    +0.000 A 
ATOM     27  C   UNL     1       6.671   4.602  16.277  0.00  0.00    +0.000 A 
ATOM     28  C   UNL     1       7.462   4.992  15.190  0.00  0.00    +0.000 A 
ATOM     29  C   UNL     1       7.014   4.808  13.874  0.00  0.00    +0.000 A 
ATOM     30  C   UNL     1       5.748   4.232  13.668  0.00  0.00    +0.000 A 
ATOM     31  C   UNL     1       4.957   3.844  14.754  0.00  0.00    +0.000 A 
BRANCH  29  32
ATOM     32  C   UNL     1       7.851   5.213  12.692  0.00  0.00    +0.000 C 
ATOM     33  F   UNL     1       9.181   5.330  12.977  0.00  0.00    +0.000 F 
ATOM     34  F   UNL     1       7.771   4.322  11.663  0.00  0.00    +0.000 F 
ATOM     35  F   UNL     1       7.478   6.414  12.169  0.00  0.00    +0.000 F 
ENDBRANCH  29  32
ENDBRANCH  23  26
ENDBRANCH  20  21
ENDBRANCH   1  20
TORSDOF 9
ENDMDL
MODEL 9
REMARK VINA RESULT:      -7.1      4.300      7.714
REMARK  Name = 
REMARK  12 active torsions:
REMARK  status: ('A' for Active; 'I' for Inactive)
REMARK    1  A    between atoms: C_1  and  O_2
REMARK    2  A    between atoms: O_2  and  C_3
REMARK    3  A    between atoms: C_6  and  C_7
REMARK    4  A    between atoms: C_10  and  O_11
REMARK    5  A    between atoms: O_11  and  C_12
REMARK    6  A    between atoms: C_12  and  C_13
REMARK    7  A    between atoms: C_12  and  C_14
REMARK    8  A    between atoms: C_14  and  N_15
REMARK    9  A    between atoms: C_17  and  C_18
REMARK   10  A    between atoms: C_21  and  C_22
REMARK   11  A    between atoms: C_30  and  O_31
REMARK   12  A    between atoms: O_31  and  C_32
REMARK                            x       y       z     vdW  Elec       q    Type
REMARK                         _______ _______ _______ _____ _____    ______ ____
ROOT
ATOM      1  C   UNL     1       0.779   9.115  21.405  0.00  0.00    +0.000 C 
ATOM      2  C   UNL     1       0.356   9.284  22.866  0.00  0.00    +0.000 C 
ENDROOT
BRANCH   1   3
ATOM      3  O   UNL     1       0.783   7.710  21.102  0.00  0.00    +0.000 OA
BRANCH   3   7
ATOM      4  C   UNL     1       3.414   6.303  18.125  0.00  0.00    +0.000 A 
ATOM      5  C   UNL     1       2.963   7.623  18.109  0.00  0.00    +0.000 A 
ATOM      6  C   UNL     1       2.117   8.110  19.093  0.00  0.00    +0.000 A 
ATOM      7  C   UNL     1       1.657   7.285  20.127  0.00  0.00    +0.000 A 
ATOM      8  C   UNL     1       2.111   5.955  20.188  0.00  0.00    +0.000 A 
ATOM      9  C   UNL     1       2.979   5.484  19.189  0.00  0.00    +0.000 A 
BRANCH   4  13
ATOM     10  C   UNL     1       5.935   4.851  14.961  0.00  0.00    +0.000 A 
ATOM     11  C   UNL     1       5.884   6.212  15.249  0.00  0.00    +0.000 A 
ATOM     12  C   UNL     1       5.094   6.678  16.299  0.00  0.00    +0.000 A 
ATOM     13  C   UNL     1       4.297   5.801  17.059  0.00  0.00    +0.000 A 
ATOM     14  C   UNL     1       4.341   4.437  16.734  0.00  0.00    +0.000 A 
ATOM     15  C   UNL     1       5.157   3.966  15.702  0.00  0.00    +0.000 A 
BRANCH  10  17
ATOM     16  C   UNL     1       6.182   3.524  13.039  0.00  0.00    +0.000 C 
ATOM     17  O   UNL     1       6.737   4.499  13.914  0.00  0.00    +0.000 OA
ENDBRANCH  10  17
ENDBRANCH   4  13
BRANCH   8  18
ATOM     18  O   UNL     1       1.676   5.191  21.244  0.00  0.00    +0.000 OA
ATOM     19  C   UNL     1       2.262   3.901  21.398  0.00  0.00    +0.000 C 
ENDBRANCH   8  18
ENDBRANCH   3   7
ENDBRANCH   1   3
BRANCH   1  20
ATOM     20  C   UNL     1      -0.187   9.851  20.479  0.00  0.00    +0.000 C 
BRANCH  20  21
ATOM     21  N   UNL     1       0.373  11.070  19.932  0.00  0.00    +0.000 N 
ATOM     22  C   UNL     1       1.516  11.694  20.326  0.00  0.00    +0.000 A 
ATOM     23  C   UNL     1       1.654  12.730  19.430  0.00  0.00    +0.000 A 
ATOM     24  N   UNL     1       0.617  12.687  18.533  0.00  0.00    +0.000 NA
ATOM     25  N   UNL     1      -0.157  11.653  18.842  0.00  0.00    +0.000 NA
BRANCH  23  26
ATOM     26  C   UNL     1       2.750  13.677  19.388  0.00  0.00    +0.000 A 
ATOM     27  C   UNL     1       3.218  14.150  18.155  0.00  0.00    +0.000 A 
ATOM     28  C   UNL     1       4.300  15.036  18.099  0.00  0.00    +0.000 A 
ATOM     29  C   UNL     1       4.929  15.476  19.272  0.00  0.00    +0.000 A 
ATOM     30  C   UNL     1       4.455  15.002  20.508  0.00  0.00    +0.000 A 
ATOM     31  C   UNL     1       3.375  14.115  20.564  0.00  0.00    +0.000 A 
BRANCH  29  32
ATOM     32  C   UNL     1       6.088  16.433  19.234  0.00  0.00    +0.000 C 
ATOM     33  F   UNL     1       5.725  17.740  19.383  0.00  0.00    +0.000 F 
ATOM     34  F   UNL     1       7.001  16.188  20.217  0.00  0.00    +0.000 F 
ATOM     35  F   UNL     1       6.782  16.373  18.063  0.00  0.00    +0.000 F 
ENDBRANCH  29  32
ENDBRANCH  23  26
ENDBRANCH  20  21
ENDBRANCH   1  20
TORSDOF 9
ENDMDL
