MODEL 1
REMARK VINA RESULT:      -7.0      0.000      0.000
REMARK  Name = 
REMARK  1 active torsions:
REMARK  status: ('A' for Active; 'I' for Inactive)
REMARK    1  A    between atoms: N_8  and  C_9
REMARK                            x       y       z     vdW  Elec       q    Type
REMARK                         _______ _______ _______ _____ _____    ______ ____
ROOT
ATOM      1  O   UNL     1       6.633   5.357  19.759  0.00  0.00    +0.000 OA
ATOM      2  C   UNL     1       6.440   5.836  18.650  0.00  0.00    +0.000 C 
ATOM      3  C   UNL     1       7.675   6.400  17.935  0.00  0.00    +0.000 C 
ATOM      4  N   UNL     1       7.527   6.659  16.489  0.00  0.00    +0.000 NA
ATOM      5  C   UNL     1       6.903   5.509  15.816  0.00  0.00    +0.000 C 
ATOM      6  C   UNL     1       5.414   5.785  15.654  0.00  0.00    +0.000 C 
ATOM      7  C   UNL     1       4.807   6.473  16.880  0.00  0.00    +0.000 C 
ATOM      8  N   UNL     1       5.167   5.811  18.123  0.00  0.00    +0.000 N 
ATOM      9  H   UNL     1       8.489   6.789  16.098  0.00  0.00    +0.000 HD
ENDROOT
BRANCH   8  10
ATOM     10  C   UNL     1       4.143   5.081  18.778  0.00  0.00    +0.000 A 
ATOM     11  C   UNL     1       3.400   5.730  19.768  0.00  0.00    +0.000 A 
ATOM     12  C   UNL     1       2.417   5.044  20.477  0.00  0.00    +0.000 A 
ATOM     13  C   UNL     1       2.164   3.697  20.201  0.00  0.00    +0.000 A 
ATOM     14 CL   UNL     1       0.923   2.867  21.131  0.00  0.00    +0.000 Cl
ATOM     15  C   UNL     1       2.903   3.036  19.202  0.00  0.00    +0.000 A 
ATOM     16 CL   UNL     1       2.610   1.342  18.830  0.00  0.00    +0.000 Cl
ATOM     17  C   UNL     1       3.896   3.729  18.491  0.00  0.00    +0.000 A 
ENDBRANCH   8  10
TORSDOF 1
ENDMDL
MODEL 2
REMARK VINA RESULT:      -7.0      3.435      5.709
REMARK  Name = 
REMARK  1 active torsions:
REMARK  status: ('A' for Active; 'I' for Inactive)
REMARK    1  A    between atoms: N_8  and  C_9
REMARK                            x       y       z     vdW  Elec       q    Type
REMARK                         _______ _______ _______ _____ _____    ______ ____
ROOT
ATOM      1  O   UNL     1       2.880   3.265  17.211  0.00  0.00    +0.000 OA
ATOM      2  C   UNL     1       2.273   3.591  18.223  0.00  0.00    +0.000 C 
ATOM      3  C   UNL     1       1.116   2.674  18.640  0.00  0.00    +0.000 C 
ATOM      4  N   UNL     1       0.608   2.854  20.015  0.00  0.00    +0.000 NA
ATOM      5  C   UNL     1       1.720   2.911  20.976  0.00  0.00    +0.000 C 
ATOM      6  C   UNL     1       2.030   4.370  21.283  0.00  0.00    +0.000 C 
ATOM      7  C   UNL     1       1.945   5.262  20.041  0.00  0.00    +0.000 C 
ATOM      8  N   UNL     1       2.679   4.713  18.913  0.00  0.00    +0.000 N 
ATOM      9  H   UNL     1       0.020   2.018  20.239  0.00  0.00    +0.000 HD
ENDROOT
BRANCH   8  10
ATOM     10  C   UNL     1       3.886   5.366  18.557  0.00  0.00    +0.000 A 
ATOM     11  C   UNL     1       3.865   6.249  17.473  0.00  0.00    +0.000 A 
ATOM     12  C   UNL     1       5.033   6.877  17.051  0.00  0.00    +0.000 A 
ATOM     13  C   UNL     1       6.240   6.631  17.711  0.00  0.00    +0.000 A 
ATOM     14 CL   UNL     1       7.694   7.436  17.134  0.00  0.00    +0.000 Cl
ATOM     15  C   UNL     1       6.272   5.748  18.807  0.00  0.00    +0.000 A 
ATOM     16 CL   UNL     1       7.773   5.417  19.661  0.00  0.00    +0.000 Cl
ATOM     17  C   UNL     1       5.092   5.113  19.229  0.00  0.00    +0.000 A 
ENDBRANCH   8  10
TORSDOF 1
ENDMDL
MODEL 3
REMARK VINA RESULT:      -6.9      1.169      1.961
REMARK  Name = 
REMARK  1 active torsions:
REMARK  status: ('A' for Active; 'I' for Inactive)
REMARK    1  A    between atoms: N_8  and  C_9
REMARK                            x       y       z     vdW  Elec       q    Type
REMARK                         _______ _______ _______ _____ _____    ______ ____
ROOT
ATOM      1  O   UNL     1       6.226   4.733  19.350  0.00  0.00    +0.000 OA
ATOM      2  C   UNL     1       6.210   5.329  18.282  0.00  0.00    +0.000 C 
ATOM      3  C   UNL     1       7.538   5.963  17.845  0.00  0.00    +0.000 C 
ATOM      4  N   UNL     1       7.625   6.377  16.431  0.00  0.00    +0.000 NA
ATOM      5  C   UNL     1       7.137   5.309  15.545  0.00  0.00    +0.000 C 
ATOM      6  C   UNL     1       5.691   5.604  15.170  0.00  0.00    +0.000 C 
ATOM      7  C   UNL     1       4.881   6.158  16.345  0.00  0.00    +0.000 C 
ATOM      8  N   UNL     1       5.042   5.365  17.553  0.00  0.00    +0.000 N 
ATOM      9  H   UNL     1       8.636   6.545  16.219  0.00  0.00    +0.000 HD
ENDROOT
BRANCH   8  10
ATOM     10  C   UNL     1       3.935   4.571  17.948  0.00  0.00    +0.000 A 
ATOM     11  C   UNL     1       3.683   3.392  17.241  0.00  0.00    +0.000 A 
ATOM     12  C   UNL     1       2.580   2.602  17.555  0.00  0.00    +0.000 A 
ATOM     13  C   UNL     1       1.714   2.983  18.584  0.00  0.00    +0.000 A 
ATOM     14 CL   UNL     1       0.326   1.962  18.937  0.00  0.00    +0.000 Cl
ATOM     15  C   UNL     1       1.962   4.167  19.305  0.00  0.00    +0.000 A 
ATOM     16 CL   UNL     1       0.893   4.675  20.606  0.00  0.00    +0.000 Cl
ATOM     17  C   UNL     1       3.073   4.963  18.984  0.00  0.00    +0.000 A 
ENDBRANCH   8  10
TORSDOF 1
ENDMDL
MODEL 4
REMARK VINA RESULT:      -6.9      1.735      2.697
REMARK  Name = 
REMARK  1 active torsions:
REMARK  status: ('A' for Active; 'I' for Inactive)
REMARK    1  A    between atoms: N_8  and  C_9
REMARK                            x       y       z     vdW  Elec       q    Type
REMARK                         _______ _______ _______ _____ _____    ______ ____
ROOT
ATOM      1  O   UNL     1       4.354   4.086  16.212  0.00  0.00    +0.000 OA
ATOM      2  C   UNL     1       5.440   4.504  16.591  0.00  0.00    +0.000 C 
ATOM      3  C   UNL     1       6.370   5.051  15.500  0.00  0.00    +0.000 C 
ATOM      4  N   UNL     1       7.514   5.859  15.966  0.00  0.00    +0.000 NA
ATOM      5  C   UNL     1       7.076   6.859  16.953  0.00  0.00    +0.000 C 
ATOM      6  C   UNL     1       7.348   6.319  18.352  0.00  0.00    +0.000 C 
ATOM      7  C   UNL     1       7.039   4.824  18.474  0.00  0.00    +0.000 C 
ATOM      8  N   UNL     1       5.732   4.481  17.938  0.00  0.00    +0.000 N 
ATOM      9  H   UNL     1       7.897   6.364  15.133  0.00  0.00    +0.000 HD
ENDROOT
BRANCH   8  10
ATOM     10  C   UNL     1       4.723   4.150  18.877  0.00  0.00    +0.000 A 
ATOM     11  C   UNL     1       4.654   2.831  19.335  0.00  0.00    +0.000 A 
ATOM     12  C   UNL     1       3.652   2.441  20.218  0.00  0.00    +0.000 A 
ATOM     13  C   UNL     1       2.703   3.369  20.657  0.00  0.00    +0.000 A 
ATOM     14 CL   UNL     1       1.446   2.829  21.762  0.00  0.00    +0.000 Cl
ATOM     15  C   UNL     1       2.766   4.701  20.206  0.00  0.00    +0.000 A 
ATOM     16 CL   UNL     1       1.589   5.895  20.739  0.00  0.00    +0.000 Cl
ATOM     17  C   UNL     1       3.777   5.091  19.312  0.00  0.00    +0.000 A 
ENDBRANCH   8  10
TORSDOF 1
ENDMDL
MODEL 5
REMARK VINA RESULT:      -6.9      3.489      5.737
REMARK  Name = 
REMARK  1 active torsions:
REMARK  status: ('A' for Active; 'I' for Inactive)
REMARK    1  A    between atoms: N_8  and  C_9
REMARK                            x       y       z     vdW  Elec       q    Type
REMARK                         _______ _______ _______ _____ _____    ______ ____
ROOT
ATOM      1  O   UNL     1       2.564   6.060  19.436  0.00  0.00    +0.000 OA
ATOM      2  C   UNL     1       2.366   4.887  19.722  0.00  0.00    +0.000 C 
ATOM      3  C   UNL     1       1.115   4.600  20.562  0.00  0.00    +0.000 C 
ATOM      4  N   UNL     1       0.681   3.190  20.620  0.00  0.00    +0.000 NA
ATOM      5  C   UNL     1       0.663   2.595  19.274  0.00  0.00    +0.000 C 
ATOM      6  C   UNL     1       1.955   1.816  19.065  0.00  0.00    +0.000 C 
ATOM      7  C   UNL     1       3.175   2.532  19.653  0.00  0.00    +0.000 C 
ATOM      8  N   UNL     1       3.242   3.929  19.258  0.00  0.00    +0.000 N 
ATOM      9  H   UNL     1      -0.295   3.181  20.997  0.00  0.00    +0.000 HD
ENDROOT
BRANCH   8  10
ATOM     10  C   UNL     1       4.244   4.280  18.318  0.00  0.00    +0.000 A 
ATOM     11  C   UNL     1       4.068   3.888  16.988  0.00  0.00    +0.000 A 
ATOM     12  C   UNL     1       5.045   4.163  16.035  0.00  0.00    +0.000 A 
ATOM     13  C   UNL     1       6.213   4.837  16.403  0.00  0.00    +0.000 A 
ATOM     14 CL   UNL     1       7.428   5.150  15.169  0.00  0.00    +0.000 Cl
ATOM     15  C   UNL     1       6.398   5.240  17.739  0.00  0.00    +0.000 A 
ATOM     16 CL   UNL     1       7.856   6.090  18.235  0.00  0.00    +0.000 Cl
ATOM     17  C   UNL     1       5.413   4.958  18.698  0.00  0.00    +0.000 A 
ENDBRANCH   8  10
TORSDOF 1
ENDMDL
MODEL 6
REMARK VINA RESULT:      -6.8      1.040      1.860
REMARK  Name = 
REMARK  1 active torsions:
REMARK  status: ('A' for Active; 'I' for Inactive)
REMARK    1  A    between atoms: N_8  and  C_9
REMARK                            x       y       z     vdW  Elec       q    Type
REMARK                         _______ _______ _______ _____ _____    ______ ____
ROOT
ATOM      1  O   UNL     1       6.808   5.504  19.689  0.00  0.00    +0.000 OA
ATOM      2  C   UNL     1       6.547   5.661  18.503  0.00  0.00    +0.000 C 
ATOM      3  C   UNL     1       7.718   6.085  17.606  0.00  0.00    +0.000 C 
ATOM      4  N   UNL     1       7.506   5.943  16.152  0.00  0.00    +0.000 NA
ATOM      5  C   UNL     1       6.941   4.623  15.835  0.00  0.00    +0.000 C 
ATOM      6  C   UNL     1       5.431   4.760  15.679  0.00  0.00    +0.000 C 
ATOM      7  C   UNL     1       4.819   5.712  16.710  0.00  0.00    +0.000 C 
ATOM      8  N   UNL     1       5.263   5.424  18.064  0.00  0.00    +0.000 N 
ATOM      9  H   UNL     1       8.444   6.020  15.694  0.00  0.00    +0.000 HD
ENDROOT
BRANCH   8  10
ATOM     10  C   UNL     1       4.312   4.836  18.937  0.00  0.00    +0.000 A 
ATOM     11  C   UNL     1       4.393   3.460  19.170  0.00  0.00    +0.000 A 
ATOM     12  C   UNL     1       3.455   2.824  19.978  0.00  0.00    +0.000 A 
ATOM     13  C   UNL     1       2.421   3.559  20.565  0.00  0.00    +0.000 A 
ATOM     14 CL   UNL     1       1.249   2.711  21.566  0.00  0.00    +0.000 Cl
ATOM     15  C   UNL     1       2.333   4.946  20.340  0.00  0.00    +0.000 A 
ATOM     16 CL   UNL     1       1.046   5.901  21.064  0.00  0.00    +0.000 Cl
ATOM     17  C   UNL     1       3.280   5.584  19.522  0.00  0.00    +0.000 A 
ENDBRANCH   8  10
TORSDOF 1
ENDMDL
MODEL 7
REMARK VINA RESULT:      -6.6      3.432      5.579
REMARK  Name = 
REMARK  1 active torsions:
REMARK  status: ('A' for Active; 'I' for Inactive)
REMARK    1  A    between atoms: N_8  and  C_9
REMARK                            x       y       z     vdW  Elec       q    Type
REMARK                         _______ _______ _______ _____ _____    ______ ____
ROOT
ATOM      1  O   UNL     1       2.305   5.962  20.145  0.00  0.00    +0.000 OA
ATOM      2  C   UNL     1       2.233   4.746  20.021  0.00  0.00    +0.000 C 
ATOM      3  C   UNL     1       0.944   4.092  20.536  0.00  0.00    +0.000 C 
ATOM      4  N   UNL     1       0.696   2.707  20.090  0.00  0.00    +0.000 NA
ATOM      5  C   UNL     1       0.907   2.582  18.639  0.00  0.00    +0.000 C 
ATOM      6  C   UNL     1       2.306   2.031  18.392  0.00  0.00    +0.000 C 
ATOM      7  C   UNL     1       3.347   2.623  19.346  0.00  0.00    +0.000 C 
ATOM      8  N   UNL     1       3.273   4.073  19.418  0.00  0.00    +0.000 N 
ATOM      9  H   UNL     1      -0.307   2.489  20.297  0.00  0.00    +0.000 HD
ENDROOT
BRANCH   8  10
ATOM     10  C   UNL     1       4.319   4.798  18.793  0.00  0.00    +0.000 A 
ATOM     11  C   UNL     1       5.514   4.972  19.497  0.00  0.00    +0.000 A 
ATOM     12  C   UNL     1       6.555   5.718  18.950  0.00  0.00    +0.000 A 
ATOM     13  C   UNL     1       6.412   6.300  17.687  0.00  0.00    +0.000 A 
ATOM     14 CL   UNL     1       7.746   7.246  17.041  0.00  0.00    +0.000 Cl
ATOM     15  C   UNL     1       5.214   6.126  16.967  0.00  0.00    +0.000 A 
ATOM     16 CL   UNL     1       5.002   6.844  15.375  0.00  0.00    +0.000 Cl
ATOM     17  C   UNL     1       4.165   5.376  17.523  0.00  0.00    +0.000 A 
ENDBRANCH   8  10
TORSDOF 1
ENDMDL
MODEL 8
REMARK VINA RESULT:      -6.6      3.520      5.784
REMARK  Name = 
REMARK  1 active torsions:
REMARK  status: ('A' for Active; 'I' for Inactive)
REMARK    1  A    between atoms: N_8  and  C_9
REMARK                            x       y       z     vdW  Elec       q    Type
REMARK                         _______ _______ _______ _____ _____    ______ ____
ROOT
ATOM      1  O   UNL     1       3.255   1.574  18.478  0.00  0.00    +0.000 OA
ATOM      2  C   UNL     1       2.590   2.442  19.030  0.00  0.00    +0.000 C 
ATOM      3  C   UNL     1       1.525   1.948  20.017  0.00  0.00    +0.000 C 
ATOM      4  N   UNL     1       0.966   2.964  20.931  0.00  0.00    +0.000 NA
ATOM      5  C   UNL     1       2.040   3.764  21.540  0.00  0.00    +0.000 C 
ATOM      6  C   UNL     1       2.186   5.064  20.759  0.00  0.00    +0.000 C 
ATOM      7  C   UNL     1       2.041   4.861  19.248  0.00  0.00    +0.000 C 
ATOM      8  N   UNL     1       2.858   3.765  18.754  0.00  0.00    +0.000 N 
ATOM      9  H   UNL     1       0.462   2.452  21.692  0.00  0.00    +0.000 HD
ENDROOT
BRANCH   8  10
ATOM     10  C   UNL     1       3.999   4.114  17.988  0.00  0.00    +0.000 A 
ATOM     11  C   UNL     1       3.916   4.010  16.596  0.00  0.00    +0.000 A 
ATOM     12  C   UNL     1       5.023   4.291  15.800  0.00  0.00    +0.000 A 
ATOM     13  C   UNL     1       6.230   4.682  16.389  0.00  0.00    +0.000 A 
ATOM     14 CL   UNL     1       7.606   5.014  15.345  0.00  0.00    +0.000 Cl
ATOM     15  C   UNL     1       6.322   4.794  17.789  0.00  0.00    +0.000 A 
ATOM     16 CL   UNL     1       7.824   5.284  18.561  0.00  0.00    +0.000 Cl
ATOM     17  C   UNL     1       5.205   4.507  18.589  0.00  0.00    +0.000 A 
ENDBRANCH   8  10
TORSDOF 1
ENDMDL
MODEL 9
REMARK VINA RESULT:      -6.6      3.457      5.576
REMARK  Name = 
REMARK  1 active torsions:
REMARK  status: ('A' for Active; 'I' for Inactive)
REMARK    1  A    between atoms: N_8  and  C_9
REMARK                            x       y       z     vdW  Elec       q    Type
REMARK                         _______ _______ _______ _____ _____    ______ ____
ROOT
ATOM      1  O   UNL     1       2.301   5.906  20.393  0.00  0.00    +0.000 OA
ATOM      2  C   UNL     1       2.220   4.720  20.104  0.00  0.00    +0.000 C 
ATOM      3  C   UNL     1       0.931   4.008  20.537  0.00  0.00    +0.000 C 
ATOM      4  N   UNL     1       0.670   2.698  19.908  0.00  0.00    +0.000 NA
ATOM      5  C   UNL     1       0.869   2.772  18.452  0.00  0.00    +0.000 C 
ATOM      6  C   UNL     1       2.261   2.252  18.120  0.00  0.00    +0.000 C 
ATOM      7  C   UNL     1       3.314   2.703  19.136  0.00  0.00    +0.000 C 
ATOM      8  N   UNL     1       3.251   4.130  19.406  0.00  0.00    +0.000 N 
ATOM      9  H   UNL     1      -0.332   2.460  20.094  0.00  0.00    +0.000 HD
ENDROOT
BRANCH   8  10
ATOM     10  C   UNL     1       4.296   4.927  18.875  0.00  0.00    +0.000 A 
ATOM     11  C   UNL     1       4.032   5.686  17.731  0.00  0.00    +0.000 A 
ATOM     12  C   UNL     1       5.037   6.447  17.140  0.00  0.00    +0.000 A 
ATOM     13  C   UNL     1       6.322   6.459  17.690  0.00  0.00    +0.000 A 
ATOM     14 CL   UNL     1       7.565   7.424  16.902  0.00  0.00    +0.000 Cl
ATOM     15  C   UNL     1       6.597   5.703  18.845  0.00  0.00    +0.000 A 
ATOM     16 CL   UNL     1       8.203   5.697  19.562  0.00  0.00    +0.000 Cl
ATOM     17  C   UNL     1       5.582   4.934  19.436  0.00  0.00    +0.000 A 
ENDBRANCH   8  10
TORSDOF 1
ENDMDL
