MODEL 1
REMARK VINA RESULT:      -8.4      0.000      0.000
REMARK  Name = 
REMARK  4 active torsions:
REMARK  status: ('A' for Active; 'I' for Inactive)
REMARK    1  A    between atoms: N_3  and  N_4
REMARK    2  A    between atoms: C_5  and  C_6
REMARK    3  A    between atoms: C_9  and  N_10
REMARK    4  A    between atoms: N_14  and  C_15
REMARK                            x       y       z     vdW  Elec       q    Type
REMARK                         _______ _______ _______ _____ _____    ______ ____
ROOT
ATOM      1  O   UNL     1       0.089   9.001  20.279  0.00  0.00    +0.000 OA
ATOM      2  C   UNL     1       0.897   8.822  21.186  0.00  0.00    +0.000 C 
ATOM      3  N   UNL     1       0.971   9.664  22.299  0.00  0.00    +0.000 N 
ATOM      4  N   UNL     1       1.827   7.793  21.253  0.00  0.00    +0.000 N 
ATOM      5  H   UNL     1       1.739   9.592  22.951  0.00  0.00    +0.000 HD
ATOM      6  H   UNL     1       2.353   7.707  22.108  0.00  0.00    +0.000 HD
ENDROOT
BRANCH   4   7
ATOM      7  C   UNL     1       2.038   6.779  20.285  0.00  0.00    +0.000 A 
ATOM      8  C   UNL     1       2.527   7.030  19.003  0.00  0.00    +0.000 A 
ATOM      9  C   UNL     1       2.669   5.997  18.074  0.00  0.00    +0.000 A 
ATOM     10  C   UNL     1       2.335   4.680  18.406  0.00  0.00    +0.000 A 
ATOM     11  C   UNL     1       2.451   3.647  17.463  0.00  0.00    +0.000 A 
ATOM     12  C   UNL     1       2.121   2.336  17.801  0.00  0.00    +0.000 A 
ATOM     13  C   UNL     1       1.680   2.044  19.089  0.00  0.00    +0.000 A 
ATOM     14  C   UNL     1       1.560   3.064  20.037  0.00  0.00    +0.000 A 
ATOM     15  C   UNL     1       1.874   4.397  19.709  0.00  0.00    +0.000 A 
ATOM     16  C   UNL     1       1.733   5.454  20.636  0.00  0.00    +0.000 A 
ENDBRANCH   4   7
BRANCH   3  17
ATOM     17  N   UNL     1       0.147  10.757  22.342  0.00  0.00    +0.000 NA
ATOM     18  C   UNL     1      -0.894  10.696  23.106  0.00  0.00    +0.000 C 
BRANCH  18  19
ATOM     19  C   UNL     1      -1.762  11.839  23.209  0.00  0.00    +0.000 A 
ATOM     20  C   UNL     1      -1.528  13.189  22.999  0.00  0.00    +0.000 A 
ATOM     21  C   UNL     1      -2.740  13.870  23.267  0.00  0.00    +0.000 A 
ATOM     22  C   UNL     1      -3.634  12.889  23.622  0.00  0.00    +0.000 A 
ATOM     23  O   UNL     1      -3.065  11.651  23.590  0.00  0.00    +0.000 OA
BRANCH  22  24
ATOM     24  N   UNL     1      -5.006  12.961  24.016  0.00  0.00    +0.000 N 
ATOM     25  O   UNL     1      -5.593  14.021  23.766  0.00  0.00    +0.000 OA
ATOM     26  O   UNL     1      -5.499  11.972  24.575  0.00  0.00    +0.000 OA
ENDBRANCH  22  24
ENDBRANCH  18  19
ENDBRANCH   3  17
TORSDOF 4
ENDMDL
MODEL 2
REMARK VINA RESULT:      -8.4      7.940      9.964
REMARK  Name = 
REMARK  4 active torsions:
REMARK  status: ('A' for Active; 'I' for Inactive)
REMARK    1  A    between atoms: N_3  and  N_4
REMARK    2  A    between atoms: C_5  and  C_6
REMARK    3  A    between atoms: C_9  and  N_10
REMARK    4  A    between atoms: N_14  and  C_15
REMARK                            x       y       z     vdW  Elec       q    Type
REMARK                         _______ _______ _______ _____ _____    ______ ____
ROOT
ATOM      1  O   UNL     1       6.795   6.374  18.791  0.00  0.00    +0.000 OA
ATOM      2  C   UNL     1       6.475   6.735  17.662  0.00  0.00    +0.000 C 
ATOM      3  N   UNL     1       7.149   7.756  16.985  0.00  0.00    +0.000 N 
ATOM      4  N   UNL     1       5.438   6.208  16.905  0.00  0.00    +0.000 N 
ATOM      5  H   UNL     1       6.775   8.141  16.129  0.00  0.00    +0.000 HD
ATOM      6  H   UNL     1       5.358   6.528  15.953  0.00  0.00    +0.000 HD
ENDROOT
BRANCH   4   7
ATOM      7  C   UNL     1       4.542   5.181  17.296  0.00  0.00    +0.000 A 
ATOM      8  C   UNL     1       4.508   3.920  16.699  0.00  0.00    +0.000 A 
ATOM      9  C   UNL     1       3.570   2.964  17.094  0.00  0.00    +0.000 A 
ATOM     10  C   UNL     1       2.644   3.240  18.105  0.00  0.00    +0.000 A 
ATOM     11  C   UNL     1       1.683   2.289  18.481  0.00  0.00    +0.000 A 
ATOM     12  C   UNL     1       0.766   2.568  19.492  0.00  0.00    +0.000 A 
ATOM     13  C   UNL     1       0.807   3.797  20.144  0.00  0.00    +0.000 A 
ATOM     14  C   UNL     1       1.758   4.753  19.777  0.00  0.00    +0.000 A 
ATOM     15  C   UNL     1       2.683   4.495  18.748  0.00  0.00    +0.000 A 
ATOM     16  C   UNL     1       3.637   5.453  18.335  0.00  0.00    +0.000 A 
ENDBRANCH   4   7
BRANCH   3  17
ATOM     17  N   UNL     1       8.163   8.407  17.634  0.00  0.00    +0.000 NA
ATOM     18  C   UNL     1       8.070   9.689  17.762  0.00  0.00    +0.000 C 
BRANCH  18  19
ATOM     19  C   UNL     1       9.097  10.404  18.473  0.00  0.00    +0.000 A 
ATOM     20  C   UNL     1       9.544  10.305  19.782  0.00  0.00    +0.000 A 
ATOM     21  C   UNL     1      10.565  11.271  19.949  0.00  0.00    +0.000 A 
ATOM     22  C   UNL     1      10.674  11.896  18.730  0.00  0.00    +0.000 A 
ATOM     23  O   UNL     1       9.797  11.384  17.820  0.00  0.00    +0.000 OA
BRANCH  22  24
ATOM     24  N   UNL     1      11.517  12.962  18.289  0.00  0.00    +0.000 N 
ATOM     25  O   UNL     1      12.148  12.765  17.243  0.00  0.00    +0.000 OA
ATOM     26  O   UNL     1      11.557  13.990  18.978  0.00  0.00    +0.000 OA
ENDBRANCH  22  24
ENDBRANCH  18  19
ENDBRANCH   3  17
TORSDOF 4
ENDMDL
MODEL 3
REMARK VINA RESULT:      -8.0      8.833     12.093
REMARK  Name = 
REMARK  4 active torsions:
REMARK  status: ('A' for Active; 'I' for Inactive)
REMARK    1  A    between atoms: N_3  and  N_4
REMARK    2  A    between atoms: C_5  and  C_6
REMARK    3  A    between atoms: C_9  and  N_10
REMARK    4  A    between atoms: N_14  and  C_15
REMARK                            x       y       z     vdW  Elec       q    Type
REMARK                         _______ _______ _______ _____ _____    ______ ____
ROOT
ATOM      1  O   UNL     1       7.975   9.178  17.503  0.00  0.00    +0.000 OA
ATOM      2  C   UNL     1       8.487   8.680  18.501  0.00  0.00    +0.000 C 
ATOM      3  N   UNL     1       8.363   7.321  18.807  0.00  0.00    +0.000 N 
ATOM      4  N   UNL     1       9.246   9.356  19.448  0.00  0.00    +0.000 N 
ATOM      5  H   UNL     1       8.657   6.965  19.705  0.00  0.00    +0.000 HD
ATOM      6  H   UNL     1       9.694   8.798  20.157  0.00  0.00    +0.000 HD
ENDROOT
BRANCH   4   7
ATOM      7  C   UNL     1       9.548  10.741  19.457  0.00  0.00    +0.000 A 
ATOM      8  C   UNL     1       9.283  11.578  20.541  0.00  0.00    +0.000 A 
ATOM      9  C   UNL     1       9.558  12.946  20.475  0.00  0.00    +0.000 A 
ATOM     10  C   UNL     1      10.116  13.513  19.325  0.00  0.00    +0.000 A 
ATOM     11  C   UNL     1      10.365  14.892  19.249  0.00  0.00    +0.000 A 
ATOM     12  C   UNL     1      10.925  15.450  18.101  0.00  0.00    +0.000 A 
ATOM     13  C   UNL     1      11.250  14.633  17.022  0.00  0.00    +0.000 A 
ATOM     14  C   UNL     1      11.005  13.259  17.085  0.00  0.00    +0.000 A 
ATOM     15  C   UNL     1      10.426  12.679  18.229  0.00  0.00    +0.000 A 
ATOM     16  C   UNL     1      10.139  11.298  18.311  0.00  0.00    +0.000 A 
ENDBRANCH   4   7
BRANCH   3  17
ATOM     17  N   UNL     1       7.594   6.539  17.987  0.00  0.00    +0.000 NA
ATOM     18  C   UNL     1       6.723   5.762  18.542  0.00  0.00    +0.000 C 
BRANCH  18  19
ATOM     19  C   UNL     1       5.869   4.953  17.712  0.00  0.00    +0.000 A 
ATOM     20  C   UNL     1       5.822   4.784  16.338  0.00  0.00    +0.000 A 
ATOM     21  C   UNL     1       4.763   3.884  16.064  0.00  0.00    +0.000 A 
ATOM     22  C   UNL     1       4.235   3.565  17.291  0.00  0.00    +0.000 A 
ATOM     23  O   UNL     1       4.891   4.198  18.304  0.00  0.00    +0.000 OA
BRANCH  22  24
ATOM     24  N   UNL     1       3.142   2.719  17.656  0.00  0.00    +0.000 N 
ATOM     25  O   UNL     1       3.436   1.648  18.202  0.00  0.00    +0.000 OA
ATOM     26  O   UNL     1       1.996   3.112  17.400  0.00  0.00    +0.000 OA
ENDBRANCH  22  24
ENDBRANCH  18  19
ENDBRANCH   3  17
TORSDOF 4
ENDMDL
MODEL 4
REMARK VINA RESULT:      -8.0      8.788     11.805
REMARK  Name = 
REMARK  4 active torsions:
REMARK  status: ('A' for Active; 'I' for Inactive)
REMARK    1  A    between atoms: N_3  and  N_4
REMARK    2  A    between atoms: C_5  and  C_6
REMARK    3  A    between atoms: C_9  and  N_10
REMARK    4  A    between atoms: N_14  and  C_15
REMARK                            x       y       z     vdW  Elec       q    Type
REMARK                         _______ _______ _______ _____ _____    ______ ____
ROOT
ATOM      1  O   UNL     1       7.531   8.797  17.578  0.00  0.00    +0.000 OA
ATOM      2  C   UNL     1       8.245   8.310  18.450  0.00  0.00    +0.000 C 
ATOM      3  N   UNL     1       8.219   6.948  18.764  0.00  0.00    +0.000 N 
ATOM      4  N   UNL     1       9.161   9.004  19.230  0.00  0.00    +0.000 N 
ATOM      5  H   UNL     1       8.696   6.598  19.583  0.00  0.00    +0.000 HD
ATOM      6  H   UNL     1       9.756   8.457  19.832  0.00  0.00    +0.000 HD
ENDROOT
BRANCH   4   7
ATOM      7  C   UNL     1       9.424  10.397  19.189  0.00  0.00    +0.000 A 
ATOM      8  C   UNL     1       9.702  11.093  18.013  0.00  0.00    +0.000 A 
ATOM      9  C   UNL     1      10.001  12.457  18.040  0.00  0.00    +0.000 A 
ATOM     10  C   UNL     1      10.020  13.165  19.246  0.00  0.00    +0.000 A 
ATOM     11  C   UNL     1      10.350  14.529  19.276  0.00  0.00    +0.000 A 
ATOM     12  C   UNL     1      10.363  15.230  20.480  0.00  0.00    +0.000 A 
ATOM     13  C   UNL     1      10.039  14.576  21.665  0.00  0.00    +0.000 A 
ATOM     14  C   UNL     1       9.710  13.218  21.648  0.00  0.00    +0.000 A 
ATOM     15  C   UNL     1       9.706  12.489  20.444  0.00  0.00    +0.000 A 
ATOM     16  C   UNL     1       9.409  11.109  20.400  0.00  0.00    +0.000 A 
ENDBRANCH   4   7
BRANCH   3  17
ATOM     17  N   UNL     1       7.322   6.148  18.110  0.00  0.00    +0.000 NA
ATOM     18  C   UNL     1       6.406   5.569  18.814  0.00  0.00    +0.000 C 
BRANCH  18  19
ATOM     19  C   UNL     1       5.420   4.752  18.158  0.00  0.00    +0.000 A 
ATOM     20  C   UNL     1       4.861   4.831  16.892  0.00  0.00    +0.000 A 
ATOM     21  C   UNL     1       3.922   3.777  16.784  0.00  0.00    +0.000 A 
ATOM     22  C   UNL     1       3.971   3.125  17.992  0.00  0.00    +0.000 A 
ATOM     23  O   UNL     1       4.875   3.695  18.838  0.00  0.00    +0.000 OA
BRANCH  22  24
ATOM     24  N   UNL     1       3.245   1.997  18.484  0.00  0.00    +0.000 N 
ATOM     25  O   UNL     1       2.068   2.201  18.808  0.00  0.00    +0.000 OA
ATOM     26  O   UNL     1       3.838   0.912  18.553  0.00  0.00    +0.000 OA
ENDBRANCH  22  24
ENDBRANCH  18  19
ENDBRANCH   3  17
TORSDOF 4
ENDMDL
MODEL 5
REMARK VINA RESULT:      -8.0      9.284     13.062
REMARK  Name = 
REMARK  4 active torsions:
REMARK  status: ('A' for Active; 'I' for Inactive)
REMARK    1  A    between atoms: N_3  and  N_4
REMARK    2  A    between atoms: C_5  and  C_6
REMARK    3  A    between atoms: C_9  and  N_10
REMARK    4  A    between atoms: N_14  and  C_15
REMARK                            x       y       z     vdW  Elec       q    Type
REMARK                         _______ _______ _______ _____ _____    ______ ____
ROOT
ATOM      1  O   UNL     1       8.506  10.200  17.832  0.00  0.00    +0.000 OA
ATOM      2  C   UNL     1       8.807   9.522  18.810  0.00  0.00    +0.000 C 
ATOM      3  N   UNL     1       8.599   8.141  18.857  0.00  0.00    +0.000 N 
ATOM      4  N   UNL     1       9.385   9.998  19.980  0.00  0.00    +0.000 N 
ATOM      5  H   UNL     1       8.708   7.631  19.722  0.00  0.00    +0.000 HD
ATOM      6  H   UNL     1       9.677   9.312  20.658  0.00  0.00    +0.000 HD
ENDROOT
BRANCH   4   7
ATOM      7  C   UNL     1       9.709  11.346  20.277  0.00  0.00    +0.000 A 
ATOM      8  C   UNL     1      10.598  12.109  19.519  0.00  0.00    +0.000 A 
ATOM      9  C   UNL     1      10.916  13.418  19.888  0.00  0.00    +0.000 A 
ATOM     10  C   UNL     1      10.343  14.004  21.021  0.00  0.00    +0.000 A 
ATOM     11  C   UNL     1      10.686  15.310  21.407  0.00  0.00    +0.000 A 
ATOM     12  C   UNL     1      10.109  15.890  22.535  0.00  0.00    +0.000 A 
ATOM     13  C   UNL     1       9.178  15.175  23.283  0.00  0.00    +0.000 A 
ATOM     14  C   UNL     1       8.831  13.874  22.909  0.00  0.00    +0.000 A 
ATOM     15  C   UNL     1       9.413  13.265  21.782  0.00  0.00    +0.000 A 
ATOM     16  C   UNL     1       9.105  11.941  21.397  0.00  0.00    +0.000 A 
ENDBRANCH   4   7
BRANCH   3  17
ATOM     17  N   UNL     1       7.984   7.541  17.791  0.00  0.00    +0.000 NA
ATOM     18  C   UNL     1       7.452   6.379  17.979  0.00  0.00    +0.000 C 
BRANCH  18  19
ATOM     19  C   UNL     1       6.762   5.733  16.893  0.00  0.00    +0.000 A 
ATOM     20  C   UNL     1       5.508   5.146  16.825  0.00  0.00    +0.000 A 
ATOM     21  C   UNL     1       5.353   4.645  15.510  0.00  0.00    +0.000 A 
ATOM     22  C   UNL     1       6.523   4.960  14.863  0.00  0.00    +0.000 A 
ATOM     23  O   UNL     1       7.390   5.623  15.680  0.00  0.00    +0.000 OA
BRANCH  22  24
ATOM     24  N   UNL     1       6.961   4.701  13.528  0.00  0.00    +0.000 N 
ATOM     25  O   UNL     1       7.846   5.446  13.086  0.00  0.00    +0.000 OA
ATOM     26  O   UNL     1       6.429   3.765  12.916  0.00  0.00    +0.000 OA
ENDBRANCH  22  24
ENDBRANCH  18  19
ENDBRANCH   3  17
TORSDOF 4
ENDMDL
MODEL 6
REMARK VINA RESULT:      -7.9      1.452      2.389
REMARK  Name = 
REMARK  4 active torsions:
REMARK  status: ('A' for Active; 'I' for Inactive)
REMARK    1  A    between atoms: N_3  and  N_4
REMARK    2  A    between atoms: C_5  and  C_6
REMARK    3  A    between atoms: C_9  and  N_10
REMARK    4  A    between atoms: N_14  and  C_15
REMARK                            x       y       z     vdW  Elec       q    Type
REMARK                         _______ _______ _______ _____ _____    ______ ____
ROOT
ATOM      1  O   UNL     1       1.088   8.821  19.754  0.00  0.00    +0.000 OA
ATOM      2  C   UNL     1       1.394   8.235  20.788  0.00  0.00    +0.000 C 
ATOM      3  N   UNL     1       1.099   8.750  22.054  0.00  0.00    +0.000 N 
ATOM      4  N   UNL     1       2.051   7.015  20.865  0.00  0.00    +0.000 N 
ATOM      5  H   UNL     1       1.494   8.333  22.885  0.00  0.00    +0.000 HD
ATOM      6  H   UNL     1       2.142   6.602  21.780  0.00  0.00    +0.000 HD
ENDROOT
BRANCH   4   7
ATOM      7  C   UNL     1       2.515   6.233  19.778  0.00  0.00    +0.000 A 
ATOM      8  C   UNL     1       2.134   4.908  19.565  0.00  0.00    +0.000 A 
ATOM      9  C   UNL     1       2.662   4.171  18.502  0.00  0.00    +0.000 A 
ATOM     10  C   UNL     1       3.579   4.744  17.615  0.00  0.00    +0.000 A 
ATOM     11  C   UNL     1       4.131   3.994  16.565  0.00  0.00    +0.000 A 
ATOM     12  C   UNL     1       5.040   4.572  15.682  0.00  0.00    +0.000 A 
ATOM     13  C   UNL     1       5.401   5.908  15.835  0.00  0.00    +0.000 A 
ATOM     14  C   UNL     1       4.859   6.664  16.878  0.00  0.00    +0.000 A 
ATOM     15  C   UNL     1       3.950   6.094  17.789  0.00  0.00    +0.000 A 
ATOM     16  C   UNL     1       3.410   6.825  18.871  0.00  0.00    +0.000 A 
ENDBRANCH   4   7
BRANCH   3  17
ATOM     17  N   UNL     1       0.498   9.977  22.132  0.00  0.00    +0.000 NA
ATOM     18  C   UNL     1      -0.614  10.062  22.785  0.00  0.00    +0.000 C 
BRANCH  18  19
ATOM     19  C   UNL     1      -1.257  11.342  22.923  0.00  0.00    +0.000 A 
ATOM     20  C   UNL     1      -0.848  12.615  22.558  0.00  0.00    +0.000 A 
ATOM     21  C   UNL     1      -1.870  13.512  22.955  0.00  0.00    +0.000 A 
ATOM     22  C   UNL     1      -2.834  12.725  23.537  0.00  0.00    +0.000 A 
ATOM     23  O   UNL     1      -2.486  11.407  23.526  0.00  0.00    +0.000 OA
BRANCH  22  24
ATOM     24  N   UNL     1      -4.086  13.058  24.139  0.00  0.00    +0.000 N 
ATOM     25  O   UNL     1      -4.359  14.264  24.207  0.00  0.00    +0.000 OA
ATOM     26  O   UNL     1      -4.797  12.130  24.547  0.00  0.00    +0.000 OA
ENDBRANCH  22  24
ENDBRANCH  18  19
ENDBRANCH   3  17
TORSDOF 4
ENDMDL
MODEL 7
REMARK VINA RESULT:      -7.9      8.140      9.364
REMARK  Name = 
REMARK  4 active torsions:
REMARK  status: ('A' for Active; 'I' for Inactive)
REMARK    1  A    between atoms: N_3  and  N_4
REMARK    2  A    between atoms: C_5  and  C_6
REMARK    3  A    between atoms: C_9  and  N_10
REMARK    4  A    between atoms: N_14  and  C_15
REMARK                            x       y       z     vdW  Elec       q    Type
REMARK                         _______ _______ _______ _____ _____    ______ ____
ROOT
ATOM      1  O   UNL     1       6.336   7.799  17.178  0.00  0.00    +0.000 OA
ATOM      2  C   UNL     1       7.076   7.212  17.961  0.00  0.00    +0.000 C 
ATOM      3  N   UNL     1       8.276   7.766  18.415  0.00  0.00    +0.000 N 
ATOM      4  N   UNL     1       6.848   5.954  18.505  0.00  0.00    +0.000 N 
ATOM      5  H   UNL     1       8.941   7.207  18.932  0.00  0.00    +0.000 HD
ATOM      6  H   UNL     1       7.488   5.642  19.218  0.00  0.00    +0.000 HD
ENDROOT
BRANCH   4   7
ATOM      7  C   UNL     1       5.744   5.106  18.242  0.00  0.00    +0.000 A 
ATOM      8  C   UNL     1       5.600   4.374  17.063  0.00  0.00    +0.000 A 
ATOM      9  C   UNL     1       4.464   3.592  16.838  0.00  0.00    +0.000 A 
ATOM     10  C   UNL     1       3.446   3.512  17.792  0.00  0.00    +0.000 A 
ATOM     11  C   UNL     1       2.292   2.748  17.553  0.00  0.00    +0.000 A 
ATOM     12  C   UNL     1       1.283   2.669  18.509  0.00  0.00    +0.000 A 
ATOM     13  C   UNL     1       1.420   3.345  19.719  0.00  0.00    +0.000 A 
ATOM     14  C   UNL     1       2.563   4.109  19.968  0.00  0.00    +0.000 A 
ATOM     15  C   UNL     1       3.587   4.214  19.008  0.00  0.00    +0.000 A 
ATOM     16  C   UNL     1       4.740   5.003  19.219  0.00  0.00    +0.000 A 
ENDBRANCH   4   7
BRANCH   3  17
ATOM     17  N   UNL     1       8.658   8.984  17.919  0.00  0.00    +0.000 NA
ATOM     18  C   UNL     1       8.996   9.899  18.766  0.00  0.00    +0.000 C 
BRANCH  18  19
ATOM     19  C   UNL     1       9.441  11.180  18.282  0.00  0.00    +0.000 A 
ATOM     20  C   UNL     1      10.611  11.561  17.645  0.00  0.00    +0.000 A 
ATOM     21  C   UNL     1      10.526  12.956  17.414  0.00  0.00    +0.000 A 
ATOM     22  C   UNL     1       9.307  13.332  17.926  0.00  0.00    +0.000 A 
ATOM     23  O   UNL     1       8.631  12.272  18.453  0.00  0.00    +0.000 OA
BRANCH  22  24
ATOM     24  N   UNL     1       8.670  14.609  18.001  0.00  0.00    +0.000 N 
ATOM     25  O   UNL     1       9.329  15.575  17.596  0.00  0.00    +0.000 OA
ATOM     26  O   UNL     1       7.522  14.655  18.462  0.00  0.00    +0.000 OA
ENDBRANCH  22  24
ENDBRANCH  18  19
ENDBRANCH   3  17
TORSDOF 4
ENDMDL
MODEL 8
REMARK VINA RESULT:      -7.9      1.688      1.961
REMARK  Name = 
REMARK  4 active torsions:
REMARK  status: ('A' for Active; 'I' for Inactive)
REMARK    1  A    between atoms: N_3  and  N_4
REMARK    2  A    between atoms: C_5  and  C_6
REMARK    3  A    between atoms: C_9  and  N_10
REMARK    4  A    between atoms: N_14  and  C_15
REMARK                            x       y       z     vdW  Elec       q    Type
REMARK                         _______ _______ _______ _____ _____    ______ ____
ROOT
ATOM      1  O   UNL     1       0.315   9.070  20.185  0.00  0.00    +0.000 OA
ATOM      2  C   UNL     1       0.956   8.764  21.186  0.00  0.00    +0.000 C 
ATOM      3  N   UNL     1       0.940   9.537  22.350  0.00  0.00    +0.000 N 
ATOM      4  N   UNL     1       1.764   7.643  21.321  0.00  0.00    +0.000 N 
ATOM      5  H   UNL     1       1.590   9.354  23.101  0.00  0.00    +0.000 HD
ATOM      6  H   UNL     1       2.145   7.461  22.236  0.00  0.00    +0.000 HD
ENDROOT
BRANCH   4   7
ATOM      7  C   UNL     1       2.023   6.663  20.330  0.00  0.00    +0.000 A 
ATOM      8  C   UNL     1       2.598   6.953  19.092  0.00  0.00    +0.000 A 
ATOM      9  C   UNL     1       2.785   5.953  18.135  0.00  0.00    +0.000 A 
ATOM     10  C   UNL     1       2.411   4.631  18.395  0.00  0.00    +0.000 A 
ATOM     11  C   UNL     1       2.573   3.632  17.422  0.00  0.00    +0.000 A 
ATOM     12  C   UNL     1       2.202   2.315  17.688  0.00  0.00    +0.000 A 
ATOM     13  C   UNL     1       1.674   1.983  18.932  0.00  0.00    +0.000 A 
ATOM     14  C   UNL     1       1.507   2.969  19.909  0.00  0.00    +0.000 A 
ATOM     15  C   UNL     1       1.862   4.306  19.653  0.00  0.00    +0.000 A 
ATOM     16  C   UNL     1       1.676   5.330  20.609  0.00  0.00    +0.000 A 
ENDBRANCH   4   7
BRANCH   3  17
ATOM     17  N   UNL     1       0.225  10.705  22.344  0.00  0.00    +0.000 NA
ATOM     18  C   UNL     1      -0.850  10.756  23.059  0.00  0.00    +0.000 C 
BRANCH  18  19
ATOM     19  C   UNL     1      -1.607  11.979  23.110  0.00  0.00    +0.000 A 
ATOM     20  C   UNL     1      -2.911  12.264  22.737  0.00  0.00    +0.000 A 
ATOM     21  C   UNL     1      -3.125  13.642  22.987  0.00  0.00    +0.000 A 
ATOM     22  C   UNL     1      -1.937  14.104  23.498  0.00  0.00    +0.000 A 
ATOM     23  O   UNL     1      -1.004  13.114  23.585  0.00  0.00    +0.000 OA
BRANCH  22  24
ATOM     24  N   UNL     1      -1.537  15.410  23.921  0.00  0.00    +0.000 N 
ATOM     25  O   UNL     1      -0.710  15.459  24.840  0.00  0.00    +0.000 OA
ATOM     26  O   UNL     1      -2.044  16.383  23.348  0.00  0.00    +0.000 OA
ENDBRANCH  22  24
ENDBRANCH  18  19
ENDBRANCH   3  17
TORSDOF 4
ENDMDL
MODEL 9
REMARK VINA RESULT:      -7.8      1.045      1.061
REMARK  Name = 
REMARK  4 active torsions:
REMARK  status: ('A' for Active; 'I' for Inactive)
REMARK    1  A    between atoms: N_3  and  N_4
REMARK    2  A    between atoms: C_5  and  C_6
REMARK    3  A    between atoms: C_9  and  N_10
REMARK    4  A    between atoms: N_14  and  C_15
REMARK                            x       y       z     vdW  Elec       q    Type
REMARK                         _______ _______ _______ _____ _____    ______ ____
ROOT
ATOM      1  O   UNL     1      -0.465   8.481  21.321  0.00  0.00    +0.000 OA
ATOM      2  C   UNL     1       0.672   8.809  21.646  0.00  0.00    +0.000 C 
ATOM      3  N   UNL     1       0.924   9.873  22.517  0.00  0.00    +0.000 N 
ATOM      4  N   UNL     1       1.846   8.198  21.224  0.00  0.00    +0.000 N 
ATOM      5  H   UNL     1       1.862  10.223  22.648  0.00  0.00    +0.000 HD
ATOM      6  H   UNL     1       2.702   8.505  21.656  0.00  0.00    +0.000 HD
ENDROOT
BRANCH   4   7
ATOM      7  C   UNL     1       1.955   7.109  20.323  0.00  0.00    +0.000 A 
ATOM      8  C   UNL     1       2.404   7.239  19.008  0.00  0.00    +0.000 A 
ATOM      9  C   UNL     1       2.444   6.137  18.151  0.00  0.00    +0.000 A 
ATOM     10  C   UNL     1       2.047   4.870  18.590  0.00  0.00    +0.000 A 
ATOM     11  C   UNL     1       2.061   3.769  17.719  0.00  0.00    +0.000 A 
ATOM     12  C   UNL     1       1.668   2.508  18.163  0.00  0.00    +0.000 A 
ATOM     13  C   UNL     1       1.265   2.334  19.485  0.00  0.00    +0.000 A 
ATOM     14  C   UNL     1       1.246   3.423  20.360  0.00  0.00    +0.000 A 
ATOM     15  C   UNL     1       1.625   4.707  19.927  0.00  0.00    +0.000 A 
ATOM     16  C   UNL     1       1.587   5.832  20.780  0.00  0.00    +0.000 A 
ENDBRANCH   4   7
BRANCH   3  17
ATOM     17  N   UNL     1      -0.140  10.604  22.973  0.00  0.00    +0.000 NA
ATOM     18  C   UNL     1      -0.561  11.578  22.235  0.00  0.00    +0.000 C 
BRANCH  18  19
ATOM     19  C   UNL     1      -1.702  12.345  22.660  0.00  0.00    +0.000 A 
ATOM     20  C   UNL     1      -1.847  13.290  23.664  0.00  0.00    +0.000 A 
ATOM     21  C   UNL     1      -3.201  13.707  23.652  0.00  0.00    +0.000 A 
ATOM     22  C   UNL     1      -3.791  12.988  22.641  0.00  0.00    +0.000 A 
ATOM     23  O   UNL     1      -2.901  12.160  22.024  0.00  0.00    +0.000 OA
BRANCH  22  24
ATOM     24  N   UNL     1      -5.137  12.964  22.164  0.00  0.00    +0.000 N 
ATOM     25  O   UNL     1      -5.894  13.835  22.612  0.00  0.00    +0.000 OA
ATOM     26  O   UNL     1      -5.446  12.083  21.350  0.00  0.00    +0.000 OA
ENDBRANCH  22  24
ENDBRANCH  18  19
ENDBRANCH   3  17
TORSDOF 4
ENDMDL
