MODEL 1
REMARK VINA RESULT:      -7.1      0.000      0.000
REMARK  Name = 
REMARK  12 active torsions:
REMARK  status: ('A' for Active; 'I' for Inactive)
REMARK    1  A    between atoms: C_1  and  C_2
REMARK    2  A    between atoms: C_2  and  O_3
REMARK    3  A    between atoms: O_3  and  C_4
REMARK    4  A    between atoms: C_4  and  C_6
REMARK    5  A    between atoms: C_6  and  N_7
REMARK    6  A    between atoms: C_8  and  C_10
REMARK    7  A    between atoms: C_10  and  C_12
REMARK    8  A    between atoms: C_16  and  O_17
REMARK    9  A    between atoms: O_17  and  C_18
REMARK   10  A    between atoms: C_20  and  O_21
REMARK   11  A    between atoms: O_21  and  C_22
REMARK   12  A    between atoms: C_24  and  C_25
REMARK                            x       y       z     vdW  Elec       q    Type
REMARK                         _______ _______ _______ _____ _____    ______ ____
ROOT
ATOM      1  C   UNL     1       2.892   7.009  18.353  0.00  0.00    +0.000 A 
ATOM      2  N   UNL     1       3.630   7.419  17.259  0.00  0.00    +0.000 N 
ATOM      3  C   UNL     1       4.402   6.393  16.764  0.00  0.00    +0.000 A 
ATOM      4  C   UNL     1       5.337   6.403  15.717  0.00  0.00    +0.000 A 
ATOM      5  C   UNL     1       5.996   5.213  15.400  0.00  0.00    +0.000 A 
ATOM      6  C   UNL     1       5.701   4.046  16.103  0.00  0.00    +0.000 A 
ATOM      7  C   UNL     1       4.743   4.032  17.134  0.00  0.00    +0.000 A 
ATOM      8  C   UNL     1       4.094   5.247  17.494  0.00  0.00    +0.000 A 
ATOM      9  C   UNL     1       3.122   5.637  18.498  0.00  0.00    +0.000 A 
ATOM     10  H   UNL     1       3.654   8.362  16.888  0.00  0.00    +0.000 HD
ENDROOT
BRANCH   9  11
ATOM     11  C   UNL     1       2.489   4.796  19.525  0.00  0.00    +0.000 A 
ATOM     12  C   UNL     1       3.118   4.587  20.760  0.00  0.00    +0.000 A 
ATOM     13  C   UNL     1       2.586   3.703  21.704  0.00  0.00    +0.000 A 
ATOM     14  C   UNL     1       1.363   3.091  21.459  0.00  0.00    +0.000 A 
ATOM     15 CL   UNL     1       0.690   2.024  22.627  0.00  0.00    +0.000 Cl
ATOM     16  C   UNL     1       0.687   3.332  20.270  0.00  0.00    +0.000 A 
ATOM     17  C   UNL     1       1.268   4.148  19.292  0.00  0.00    +0.000 A 
ENDBRANCH   9  11
BRANCH   1  18
ATOM     18  C   UNL     1       2.096   7.911  19.169  0.00  0.00    +0.000 C 
ATOM     19  O   UNL     1       1.869   7.804  20.371  0.00  0.00    +0.000 OA
BRANCH  18  21
ATOM     20  N   UNL     1       1.172  10.123  19.439  0.00  0.00    +0.000 N 
ATOM     21  C   UNL     1       1.602   9.199  18.518  0.00  0.00    +0.000 C 
ATOM     22  O   UNL     1       1.609   9.344  17.306  0.00  0.00    +0.000 OA
ATOM     23  H   UNL     1       1.305   9.917  20.424  0.00  0.00    +0.000 HD
BRANCH  20  24
ATOM     24  C   UNL     1       0.620  11.397  19.041  0.00  0.00    +0.000 C 
BRANCH  24  25
ATOM     25  C   UNL     1      -0.900  11.388  19.098  0.00  0.00    +0.000 C 
ATOM     26  O   UNL     1      -1.570  11.368  20.122  0.00  0.00    +0.000 OA
BRANCH  25  27
ATOM     27  O   UNL     1      -1.381  11.290  17.825  0.00  0.00    +0.000 OA
BRANCH  27  29
ATOM     28  C   UNL     1      -2.692  10.169  16.170  0.00  0.00    +0.000 C 
ATOM     29  C   UNL     1      -1.909  10.008  17.462  0.00  0.00    +0.000 C 
ENDBRANCH  27  29
ENDBRANCH  25  27
ENDBRANCH  24  25
ENDBRANCH  20  24
ENDBRANCH  18  21
ENDBRANCH   1  18
BRANCH   5  30
ATOM     30  O   UNL     1       6.902   5.305  14.374  0.00  0.00    +0.000 OA
ATOM     31  C   UNL     1       6.804   4.327  13.337  0.00  0.00    +0.000 C 
ENDBRANCH   5  30
BRANCH   7  32
ATOM     32  O   UNL     1       4.383   2.887  17.798  0.00  0.00    +0.000 OA
ATOM     33  C   UNL     1       3.306   2.112  17.294  0.00  0.00    +0.000 C 
ENDBRANCH   7  32
TORSDOF 9
ENDMDL
MODEL 2
REMARK VINA RESULT:      -7.0      1.073      1.761
REMARK  Name = 
REMARK  12 active torsions:
REMARK  status: ('A' for Active; 'I' for Inactive)
REMARK    1  A    between atoms: C_1  and  C_2
REMARK    2  A    between atoms: C_2  and  O_3
REMARK    3  A    between atoms: O_3  and  C_4
REMARK    4  A    between atoms: C_4  and  C_6
REMARK    5  A    between atoms: C_6  and  N_7
REMARK    6  A    between atoms: C_8  and  C_10
REMARK    7  A    between atoms: C_10  and  C_12
REMARK    8  A    between atoms: C_16  and  O_17
REMARK    9  A    between atoms: O_17  and  C_18
REMARK   10  A    between atoms: C_20  and  O_21
REMARK   11  A    between atoms: O_21  and  C_22
REMARK   12  A    between atoms: C_24  and  C_25
REMARK                            x       y       z     vdW  Elec       q    Type
REMARK                         _______ _______ _______ _____ _____    ______ ____
ROOT
ATOM      1  C   UNL     1       2.874   6.985  18.446  0.00  0.00    +0.000 A 
ATOM      2  N   UNL     1       3.602   7.414  17.353  0.00  0.00    +0.000 N 
ATOM      3  C   UNL     1       4.362   6.395  16.828  0.00  0.00    +0.000 A 
ATOM      4  C   UNL     1       5.286   6.420  15.772  0.00  0.00    +0.000 A 
ATOM      5  C   UNL     1       5.935   5.234  15.423  0.00  0.00    +0.000 A 
ATOM      6  C   UNL     1       5.641   4.054  16.105  0.00  0.00    +0.000 A 
ATOM      7  C   UNL     1       4.694   4.024  17.146  0.00  0.00    +0.000 A 
ATOM      8  C   UNL     1       4.056   5.235  17.538  0.00  0.00    +0.000 A 
ATOM      9  C   UNL     1       3.098   5.610  18.561  0.00  0.00    +0.000 A 
ATOM     10  H   UNL     1       3.626   8.364  17.001  0.00  0.00    +0.000 HD
ENDROOT
BRANCH   9  11
ATOM     11  C   UNL     1       2.471   4.752  19.577  0.00  0.00    +0.000 A 
ATOM     12  C   UNL     1       3.126   4.489  20.789  0.00  0.00    +0.000 A 
ATOM     13  C   UNL     1       2.598   3.589  21.719  0.00  0.00    +0.000 A 
ATOM     14  C   UNL     1       1.356   3.012  21.486  0.00  0.00    +0.000 A 
ATOM     15 CL   UNL     1       0.688   1.924  22.638  0.00  0.00    +0.000 Cl
ATOM     16  C   UNL     1       0.656   3.305  20.323  0.00  0.00    +0.000 A 
ATOM     17  C   UNL     1       1.230   4.138  19.355  0.00  0.00    +0.000 A 
ENDBRANCH   9  11
BRANCH   1  18
ATOM     18  C   UNL     1       2.091   7.875  19.289  0.00  0.00    +0.000 C 
ATOM     19  O   UNL     1       1.941   7.788  20.504  0.00  0.00    +0.000 OA
BRANCH  18  21
ATOM     20  N   UNL     1       0.828   9.914  19.538  0.00  0.00    +0.000 N 
ATOM     21  C   UNL     1       1.509   9.127  18.641  0.00  0.00    +0.000 C 
ATOM     22  O   UNL     1       1.659   9.359  17.453  0.00  0.00    +0.000 OA
ATOM     23  H   UNL     1       0.855   9.659  20.520  0.00  0.00    +0.000 HD
BRANCH  20  24
ATOM     24  C   UNL     1       0.156  11.126  19.131  0.00  0.00    +0.000 C 
BRANCH  24  25
ATOM     25  C   UNL     1      -0.790  11.629  20.211  0.00  0.00    +0.000 C 
ATOM     26  O   UNL     1      -1.916  12.070  20.017  0.00  0.00    +0.000 OA
BRANCH  25  27
ATOM     27  O   UNL     1      -0.133  11.611  21.406  0.00  0.00    +0.000 OA
BRANCH  27  29
ATOM     28  C   UNL     1      -0.524   9.828  22.949  0.00  0.00    +0.000 C 
ATOM     29  C   UNL     1      -0.924  11.236  22.539  0.00  0.00    +0.000 C 
ENDBRANCH  27  29
ENDBRANCH  25  27
ENDBRANCH  24  25
ENDBRANCH  20  24
ENDBRANCH  18  21
ENDBRANCH   1  18
BRANCH   5  30
ATOM     30  O   UNL     1       6.830   5.342  14.389  0.00  0.00    +0.000 OA
ATOM     31  C   UNL     1       6.739   4.364  13.352  0.00  0.00    +0.000 C 
ENDBRANCH   5  30
BRANCH   7  32
ATOM     32  O   UNL     1       4.336   2.868  17.791  0.00  0.00    +0.000 OA
ATOM     33  C   UNL     1       3.213   2.140  17.318  0.00  0.00    +0.000 C 
ENDBRANCH   7  32
TORSDOF 9
ENDMDL
MODEL 3
REMARK VINA RESULT:      -7.0      0.862      1.076
REMARK  Name = 
REMARK  12 active torsions:
REMARK  status: ('A' for Active; 'I' for Inactive)
REMARK    1  A    between atoms: C_1  and  C_2
REMARK    2  A    between atoms: C_2  and  O_3
REMARK    3  A    between atoms: O_3  and  C_4
REMARK    4  A    between atoms: C_4  and  C_6
REMARK    5  A    between atoms: C_6  and  N_7
REMARK    6  A    between atoms: C_8  and  C_10
REMARK    7  A    between atoms: C_10  and  C_12
REMARK    8  A    between atoms: C_16  and  O_17
REMARK    9  A    between atoms: O_17  and  C_18
REMARK   10  A    between atoms: C_20  and  O_21
REMARK   11  A    between atoms: O_21  and  C_22
REMARK   12  A    between atoms: C_24  and  C_25
REMARK                            x       y       z     vdW  Elec       q    Type
REMARK                         _______ _______ _______ _____ _____    ______ ____
ROOT
ATOM      1  C   UNL     1       2.880   7.016  18.323  0.00  0.00    +0.000 A 
ATOM      2  N   UNL     1       3.613   7.422  17.224  0.00  0.00    +0.000 N 
ATOM      3  C   UNL     1       4.387   6.395  16.734  0.00  0.00    +0.000 A 
ATOM      4  C   UNL     1       5.320   6.401  15.685  0.00  0.00    +0.000 A 
ATOM      5  C   UNL     1       5.983   5.211  15.375  0.00  0.00    +0.000 A 
ATOM      6  C   UNL     1       5.694   4.048  16.086  0.00  0.00    +0.000 A 
ATOM      7  C   UNL     1       4.738   4.037  17.120  0.00  0.00    +0.000 A 
ATOM      8  C   UNL     1       4.086   5.253  17.474  0.00  0.00    +0.000 A 
ATOM      9  C   UNL     1       3.115   5.646  18.477  0.00  0.00    +0.000 A 
ATOM     10  H   UNL     1       3.632   8.362  16.846  0.00  0.00    +0.000 HD
ENDROOT
BRANCH   9  11
ATOM     11  C   UNL     1       2.488   4.811  19.512  0.00  0.00    +0.000 A 
ATOM     12  C   UNL     1       3.121   4.612  20.747  0.00  0.00    +0.000 A 
ATOM     13  C   UNL     1       2.595   3.733  21.699  0.00  0.00    +0.000 A 
ATOM     14  C   UNL     1       1.374   3.115  21.461  0.00  0.00    +0.000 A 
ATOM     15 CL   UNL     1       0.708   2.054  22.639  0.00  0.00    +0.000 Cl
ATOM     16  C   UNL     1       0.694   3.345  20.272  0.00  0.00    +0.000 A 
ATOM     17  C   UNL     1       1.268   4.157  19.286  0.00  0.00    +0.000 A 
ENDBRANCH   9  11
BRANCH   1  18
ATOM     18  C   UNL     1       2.082   7.921  19.134  0.00  0.00    +0.000 C 
ATOM     19  O   UNL     1       1.910   7.857  20.348  0.00  0.00    +0.000 OA
BRANCH  18  21
ATOM     20  N   UNL     1       0.393   9.642  19.089  0.00  0.00    +0.000 N 
ATOM     21  C   UNL     1       1.511   9.160  18.453  0.00  0.00    +0.000 C 
ATOM     22  O   UNL     1       2.027   9.633  17.453  0.00  0.00    +0.000 OA
ATOM     23  H   UNL     1       0.117   9.214  19.966  0.00  0.00    +0.000 HD
BRANCH  20  24
ATOM     24  C   UNL     1      -0.338  10.783  18.587  0.00  0.00    +0.000 C 
BRANCH  24  25
ATOM     25  C   UNL     1      -1.644  10.362  17.929  0.00  0.00    +0.000 C 
ATOM     26  O   UNL     1      -1.740   9.734  16.883  0.00  0.00    +0.000 OA
BRANCH  25  27
ATOM     27  O   UNL     1      -2.678  10.900  18.637  0.00  0.00    +0.000 OA
BRANCH  27  29
ATOM     28  C   UNL     1      -4.953  10.907  17.904  0.00  0.00    +0.000 C 
ATOM     29  C   UNL     1      -3.628  11.649  17.869  0.00  0.00    +0.000 C 
ENDBRANCH  27  29
ENDBRANCH  25  27
ENDBRANCH  24  25
ENDBRANCH  20  24
ENDBRANCH  18  21
ENDBRANCH   1  18
BRANCH   5  30
ATOM     30  O   UNL     1       6.886   5.299  14.345  0.00  0.00    +0.000 OA
ATOM     31  C   UNL     1       6.814   4.290  13.337  0.00  0.00    +0.000 C 
ENDBRANCH   5  30
BRANCH   7  32
ATOM     32  O   UNL     1       4.385   2.896  17.793  0.00  0.00    +0.000 OA
ATOM     33  C   UNL     1       3.292   2.129  17.314  0.00  0.00    +0.000 C 
ENDBRANCH   7  32
TORSDOF 9
ENDMDL
MODEL 4
REMARK VINA RESULT:      -6.8      1.934      7.150
REMARK  Name = 
REMARK  12 active torsions:
REMARK  status: ('A' for Active; 'I' for Inactive)
REMARK    1  A    between atoms: C_1  and  C_2
REMARK    2  A    between atoms: C_2  and  O_3
REMARK    3  A    between atoms: O_3  and  C_4
REMARK    4  A    between atoms: C_4  and  C_6
REMARK    5  A    between atoms: C_6  and  N_7
REMARK    6  A    between atoms: C_8  and  C_10
REMARK    7  A    between atoms: C_10  and  C_12
REMARK    8  A    between atoms: C_16  and  O_17
REMARK    9  A    between atoms: O_17  and  C_18
REMARK   10  A    between atoms: C_20  and  O_21
REMARK   11  A    between atoms: O_21  and  C_22
REMARK   12  A    between atoms: C_24  and  C_25
REMARK                            x       y       z     vdW  Elec       q    Type
REMARK                         _______ _______ _______ _____ _____    ______ ____
ROOT
ATOM      1  C   UNL     1       3.311   6.632  17.873  0.00  0.00    +0.000 A 
ATOM      2  N   UNL     1       3.365   7.936  17.418  0.00  0.00    +0.000 N 
ATOM      3  C   UNL     1       2.506   8.747  18.123  0.00  0.00    +0.000 A 
ATOM      4  C   UNL     1       2.206  10.106  17.940  0.00  0.00    +0.000 A 
ATOM      5  C   UNL     1       1.289  10.710  18.803  0.00  0.00    +0.000 A 
ATOM      6  C   UNL     1       0.712   9.969  19.833  0.00  0.00    +0.000 A 
ATOM      7  C   UNL     1       1.033   8.613  20.033  0.00  0.00    +0.000 A 
ATOM      8  C   UNL     1       1.936   7.975  19.134  0.00  0.00    +0.000 A 
ATOM      9  C   UNL     1       2.459   6.631  18.982  0.00  0.00    +0.000 A 
ATOM     10  H   UNL     1       3.920   8.261  16.635  0.00  0.00    +0.000 HD
ENDROOT
BRANCH   9  11
ATOM     11  C   UNL     1       2.159   5.442  19.793  0.00  0.00    +0.000 A 
ATOM     12  C   UNL     1       1.137   4.561  19.412  0.00  0.00    +0.000 A 
ATOM     13  C   UNL     1       0.763   3.488  20.227  0.00  0.00    +0.000 A 
ATOM     14  C   UNL     1       1.476   3.229  21.391  0.00  0.00    +0.000 A 
ATOM     15 CL   UNL     1       1.039   1.895  22.384  0.00  0.00    +0.000 Cl
ATOM     16  C   UNL     1       2.536   4.049  21.758  0.00  0.00    +0.000 A 
ATOM     17  C   UNL     1       2.848   5.173  20.984  0.00  0.00    +0.000 A 
ENDBRANCH   9  11
BRANCH   1  18
ATOM     18  C   UNL     1       4.001   5.528  17.227  0.00  0.00    +0.000 C 
ATOM     19  O   UNL     1       3.576   4.385  17.079  0.00  0.00    +0.000 OA
BRANCH  18  21
ATOM     20  N   UNL     1       5.950   4.699  16.073  0.00  0.00    +0.000 N 
ATOM     21  C   UNL     1       5.324   5.833  16.533  0.00  0.00    +0.000 C 
ATOM     22  O   UNL     1       5.737   6.975  16.423  0.00  0.00    +0.000 OA
ATOM     23  H   UNL     1       5.458   3.816  16.144  0.00  0.00    +0.000 HD
BRANCH  20  24
ATOM     24  C   UNL     1       7.240   4.752  15.425  0.00  0.00    +0.000 C 
BRANCH  24  25
ATOM     25  C   UNL     1       7.102   4.774  13.910  0.00  0.00    +0.000 C 
ATOM     26  O   UNL     1       7.780   5.449  13.147  0.00  0.00    +0.000 OA
BRANCH  25  27
ATOM     27  O   UNL     1       6.028   4.008  13.562  0.00  0.00    +0.000 OA
BRANCH  27  29
ATOM     28  C   UNL     1       4.739   3.256  11.695  0.00  0.00    +0.000 C 
ATOM     29  C   UNL     1       6.131   3.340  12.299  0.00  0.00    +0.000 C 
ENDBRANCH  27  29
ENDBRANCH  25  27
ENDBRANCH  24  25
ENDBRANCH  20  24
ENDBRANCH  18  21
ENDBRANCH   1  18
BRANCH   5  30
ATOM     30  O   UNL     1       1.041  12.036  18.554  0.00  0.00    +0.000 OA
ATOM     31  C   UNL     1       0.374  12.772  19.581  0.00  0.00    +0.000 C 
ENDBRANCH   5  30
BRANCH   7  32
ATOM     32  O   UNL     1       0.533   7.877  21.075  0.00  0.00    +0.000 OA
ATOM     33  C   UNL     1      -0.184   8.543  22.103  0.00  0.00    +0.000 C 
ENDBRANCH   7  32
TORSDOF 9
ENDMDL
MODEL 5
REMARK VINA RESULT:      -6.7      1.224      1.710
REMARK  Name = 
REMARK  12 active torsions:
REMARK  status: ('A' for Active; 'I' for Inactive)
REMARK    1  A    between atoms: C_1  and  C_2
REMARK    2  A    between atoms: C_2  and  O_3
REMARK    3  A    between atoms: O_3  and  C_4
REMARK    4  A    between atoms: C_4  and  C_6
REMARK    5  A    between atoms: C_6  and  N_7
REMARK    6  A    between atoms: C_8  and  C_10
REMARK    7  A    between atoms: C_10  and  C_12
REMARK    8  A    between atoms: C_16  and  O_17
REMARK    9  A    between atoms: O_17  and  C_18
REMARK   10  A    between atoms: C_20  and  O_21
REMARK   11  A    between atoms: O_21  and  C_22
REMARK   12  A    between atoms: C_24  and  C_25
REMARK                            x       y       z     vdW  Elec       q    Type
REMARK                         _______ _______ _______ _____ _____    ______ ____
ROOT
ATOM      1  C   UNL     1       2.875   6.997  18.398  0.00  0.00    +0.000 A 
ATOM      2  N   UNL     1       3.605   7.417  17.301  0.00  0.00    +0.000 N 
ATOM      3  C   UNL     1       4.364   6.392  16.784  0.00  0.00    +0.000 A 
ATOM      4  C   UNL     1       5.288   6.409  15.728  0.00  0.00    +0.000 A 
ATOM      5  C   UNL     1       5.936   5.219  15.388  0.00  0.00    +0.000 A 
ATOM      6  C   UNL     1       5.640   4.045  16.079  0.00  0.00    +0.000 A 
ATOM      7  C   UNL     1       4.693   4.023  17.120  0.00  0.00    +0.000 A 
ATOM      8  C   UNL     1       4.056   5.238  17.503  0.00  0.00    +0.000 A 
ATOM      9  C   UNL     1       3.098   5.622  18.522  0.00  0.00    +0.000 A 
ATOM     10  H   UNL     1       3.631   8.364  16.942  0.00  0.00    +0.000 HD
ENDROOT
BRANCH   9  11
ATOM     11  C   UNL     1       2.470   4.772  19.545  0.00  0.00    +0.000 A 
ATOM     12  C   UNL     1       3.096   4.567  20.782  0.00  0.00    +0.000 A 
ATOM     13  C   UNL     1       2.570   3.676  21.723  0.00  0.00    +0.000 A 
ATOM     14  C   UNL     1       1.356   3.050  21.471  0.00  0.00    +0.000 A 
ATOM     15 CL   UNL     1       0.690   1.973  22.634  0.00  0.00    +0.000 Cl
ATOM     16  C   UNL     1       0.682   3.286  20.279  0.00  0.00    +0.000 A 
ATOM     17  C   UNL     1       1.257   4.110  19.305  0.00  0.00    +0.000 A 
ENDBRANCH   9  11
BRANCH   1  18
ATOM     18  C   UNL     1       2.094   7.893  19.233  0.00  0.00    +0.000 C 
ATOM     19  O   UNL     1       1.890   7.779  20.439  0.00  0.00    +0.000 OA
BRANCH  18  21
ATOM     20  N   UNL     1       0.997  10.023  19.514  0.00  0.00    +0.000 N 
ATOM     21  C   UNL     1       1.589   9.186  18.600  0.00  0.00    +0.000 C 
ATOM     22  O   UNL     1       1.720   9.404  17.407  0.00  0.00    +0.000 OA
ATOM     23  H   UNL     1       1.034   9.767  20.495  0.00  0.00    +0.000 HD
BRANCH  20  24
ATOM     24  C   UNL     1       0.406  11.282  19.123  0.00  0.00    +0.000 C 
BRANCH  24  25
ATOM     25  C   UNL     1       0.574  12.336  20.207  0.00  0.00    +0.000 C 
ATOM     26  O   UNL     1       1.344  12.261  21.156  0.00  0.00    +0.000 OA
BRANCH  25  27
ATOM     27  O   UNL     1      -0.352  13.317  20.004  0.00  0.00    +0.000 OA
BRANCH  27  29
ATOM     28  C   UNL     1       0.971  15.015  18.966  0.00  0.00    +0.000 C 
ATOM     29  C   UNL     1      -0.203  14.066  18.793  0.00  0.00    +0.000 C 
ENDBRANCH  27  29
ENDBRANCH  25  27
ENDBRANCH  24  25
ENDBRANCH  20  24
ENDBRANCH  18  21
ENDBRANCH   1  18
BRANCH   5  30
ATOM     30  O   UNL     1       6.831   5.319  14.354  0.00  0.00    +0.000 OA
ATOM     31  C   UNL     1       6.814   4.271  13.383  0.00  0.00    +0.000 C 
ENDBRANCH   5  30
BRANCH   7  32
ATOM     32  O   UNL     1       4.333   2.873  17.773  0.00  0.00    +0.000 OA
ATOM     33  C   UNL     1       3.236   2.120  17.279  0.00  0.00    +0.000 C 
ENDBRANCH   7  32
TORSDOF 9
ENDMDL
MODEL 6
REMARK VINA RESULT:      -6.6      4.373      9.225
REMARK  Name = 
REMARK  12 active torsions:
REMARK  status: ('A' for Active; 'I' for Inactive)
REMARK    1  A    between atoms: C_1  and  C_2
REMARK    2  A    between atoms: C_2  and  O_3
REMARK    3  A    between atoms: O_3  and  C_4
REMARK    4  A    between atoms: C_4  and  C_6
REMARK    5  A    between atoms: C_6  and  N_7
REMARK    6  A    between atoms: C_8  and  C_10
REMARK    7  A    between atoms: C_10  and  C_12
REMARK    8  A    between atoms: C_16  and  O_17
REMARK    9  A    between atoms: O_17  and  C_18
REMARK   10  A    between atoms: C_20  and  O_21
REMARK   11  A    between atoms: O_21  and  C_22
REMARK   12  A    between atoms: C_24  and  C_25
REMARK                            x       y       z     vdW  Elec       q    Type
REMARK                         _______ _______ _______ _____ _____    ______ ____
ROOT
ATOM      1  C   UNL     1      -0.438  11.477  19.471  0.00  0.00    +0.000 A 
ATOM      2  N   UNL     1      -0.528  10.980  18.184  0.00  0.00    +0.000 N 
ATOM      3  C   UNL     1      -1.822  11.027  17.720  0.00  0.00    +0.000 A 
ATOM      4  C   UNL     1      -2.354  10.564  16.506  0.00  0.00    +0.000 A 
ATOM      5  C   UNL     1      -3.719  10.736  16.267  0.00  0.00    +0.000 A 
ATOM      6  C   UNL     1      -4.516  11.377  17.214  0.00  0.00    +0.000 A 
ATOM      7  C   UNL     1      -3.976  11.865  18.419  0.00  0.00    +0.000 A 
ATOM      8  C   UNL     1      -2.594  11.659  18.693  0.00  0.00    +0.000 A 
ATOM      9  C   UNL     1      -1.708  11.958  19.803  0.00  0.00    +0.000 A 
ATOM     10  H   UNL     1       0.239  10.580  17.655  0.00  0.00    +0.000 HD
ENDROOT
BRANCH   9  11
ATOM     11  C   UNL     1      -2.038  12.611  21.078  0.00  0.00    +0.000 A 
ATOM     12  C   UNL     1      -2.330  11.845  22.216  0.00  0.00    +0.000 A 
ATOM     13  C   UNL     1      -2.753  12.445  23.405  0.00  0.00    +0.000 A 
ATOM     14  C   UNL     1      -2.797  13.830  23.497  0.00  0.00    +0.000 A 
ATOM     15 CL   UNL     1      -3.290  14.576  24.966  0.00  0.00    +0.000 Cl
ATOM     16  C   UNL     1      -2.450  14.615  22.404  0.00  0.00    +0.000 A 
ATOM     17  C   UNL     1      -2.112  14.007  21.189  0.00  0.00    +0.000 A 
ENDBRANCH   9  11
BRANCH   1  18
ATOM     18  C   UNL     1       0.775  11.423  20.269  0.00  0.00    +0.000 C 
ATOM     19  O   UNL     1       1.612  12.313  20.392  0.00  0.00    +0.000 OA
BRANCH  18  21
ATOM     20  N   UNL     1       1.192   9.053  20.443  0.00  0.00    +0.000 N 
ATOM     21  C   UNL     1       0.977  10.203  21.163  0.00  0.00    +0.000 C 
ATOM     22  O   UNL     1       0.941  10.291  22.379  0.00  0.00    +0.000 OA
ATOM     23  H   UNL     1       1.292   9.128  19.436  0.00  0.00    +0.000 HD
BRANCH  20  24
ATOM     24  C   UNL     1       1.361   7.771  21.087  0.00  0.00    +0.000 C 
BRANCH  24  25
ATOM     25  C   UNL     1       2.024   6.764  20.159  0.00  0.00    +0.000 C 
ATOM     26  O   UNL     1       2.379   6.987  19.009  0.00  0.00    +0.000 OA
BRANCH  25  27
ATOM     27  O   UNL     1       2.048   5.551  20.783  0.00  0.00    +0.000 OA
BRANCH  27  29
ATOM     28  C   UNL     1       1.328   3.288  21.049  0.00  0.00    +0.000 C 
ATOM     29  C   UNL     1       1.230   4.536  20.189  0.00  0.00    +0.000 C 
ENDBRANCH  27  29
ENDBRANCH  25  27
ENDBRANCH  24  25
ENDBRANCH  20  24
ENDBRANCH  18  21
ENDBRANCH   1  18
BRANCH   5  30
ATOM     30  O   UNL     1      -4.166  10.248  15.065  0.00  0.00    +0.000 OA
ATOM     31  C   UNL     1      -3.179  10.006  14.060  0.00  0.00    +0.000 C 
ENDBRANCH   5  30
BRANCH   7  32
ATOM     32  O   UNL     1      -4.720  12.557  19.340  0.00  0.00    +0.000 OA
ATOM     33  C   UNL     1      -5.939  13.154  18.926  0.00  0.00    +0.000 C 
ENDBRANCH   7  32
TORSDOF 9
ENDMDL
MODEL 7
REMARK VINA RESULT:      -6.5      2.348      6.751
REMARK  Name = 
REMARK  12 active torsions:
REMARK  status: ('A' for Active; 'I' for Inactive)
REMARK    1  A    between atoms: C_1  and  C_2
REMARK    2  A    between atoms: C_2  and  O_3
REMARK    3  A    between atoms: O_3  and  C_4
REMARK    4  A    between atoms: C_4  and  C_6
REMARK    5  A    between atoms: C_6  and  N_7
REMARK    6  A    between atoms: C_8  and  C_10
REMARK    7  A    between atoms: C_10  and  C_12
REMARK    8  A    between atoms: C_16  and  O_17
REMARK    9  A    between atoms: O_17  and  C_18
REMARK   10  A    between atoms: C_20  and  O_21
REMARK   11  A    between atoms: O_21  and  C_22
REMARK   12  A    between atoms: C_24  and  C_25
REMARK                            x       y       z     vdW  Elec       q    Type
REMARK                         _______ _______ _______ _____ _____    ______ ____
ROOT
ATOM      1  C   UNL     1       3.146   6.375  17.866  0.00  0.00    +0.000 A 
ATOM      2  N   UNL     1       3.259   7.659  17.367  0.00  0.00    +0.000 N 
ATOM      3  C   UNL     1       2.481   8.542  18.080  0.00  0.00    +0.000 A 
ATOM      4  C   UNL     1       2.256   9.910  17.865  0.00  0.00    +0.000 A 
ATOM      5  C   UNL     1       1.415  10.595  18.744  0.00  0.00    +0.000 A 
ATOM      6  C   UNL     1       0.839   9.923  19.821  0.00  0.00    +0.000 A 
ATOM      7  C   UNL     1       1.087   8.557  20.052  0.00  0.00    +0.000 A 
ATOM      8  C   UNL     1       1.910   7.837  19.138  0.00  0.00    +0.000 A 
ATOM      9  C   UNL     1       2.345   6.460  19.009  0.00  0.00    +0.000 A 
ATOM     10  H   UNL     1       3.798   7.925  16.551  0.00  0.00    +0.000 HD
ENDROOT
BRANCH   9  11
ATOM     11  C   UNL     1       2.009   5.316  19.870  0.00  0.00    +0.000 A 
ATOM     12  C   UNL     1       2.695   5.107  21.075  0.00  0.00    +0.000 A 
ATOM     13  C   UNL     1       2.467   3.966  21.851  0.00  0.00    +0.000 A 
ATOM     14  C   UNL     1       1.477   3.067  21.475  0.00  0.00    +0.000 A 
ATOM     15 CL   UNL     1       1.173   1.676  22.439  0.00  0.00    +0.000 Cl
ATOM     16  C   UNL     1       0.738   3.285  20.319  0.00  0.00    +0.000 A 
ATOM     17  C   UNL     1       1.031   4.382  19.501  0.00  0.00    +0.000 A 
ENDBRANCH   9  11
BRANCH   1  18
ATOM     18  C   UNL     1       3.740   5.211  17.230  0.00  0.00    +0.000 C 
ATOM     19  O   UNL     1       3.143   4.238  16.779  0.00  0.00    +0.000 OA
BRANCH  18  21
ATOM     20  N   UNL     1       5.987   5.045  18.091  0.00  0.00    +0.000 N 
ATOM     21  C   UNL     1       5.241   5.246  16.956  0.00  0.00    +0.000 C 
ATOM     22  O   UNL     1       5.679   5.436  15.833  0.00  0.00    +0.000 OA
ATOM     23  H   UNL     1       5.503   4.805  18.949  0.00  0.00    +0.000 HD
BRANCH  20  24
ATOM     24  C   UNL     1       7.431   5.085  18.071  0.00  0.00    +0.000 C 
BRANCH  24  25
ATOM     25  C   UNL     1       7.987   5.789  19.299  0.00  0.00    +0.000 C 
ATOM     26  O   UNL     1       7.888   5.387  20.451  0.00  0.00    +0.000 OA
BRANCH  25  27
ATOM     27  O   UNL     1       8.509   6.988  18.912  0.00  0.00    +0.000 OA
BRANCH  27  29
ATOM     28  C   UNL     1       8.187   9.129  17.899  0.00  0.00    +0.000 C 
ATOM     29  C   UNL     1       7.800   7.660  17.865  0.00  0.00    +0.000 C 
ENDBRANCH  27  29
ENDBRANCH  25  27
ENDBRANCH  24  25
ENDBRANCH  20  24
ENDBRANCH  18  21
ENDBRANCH   1  18
BRANCH   5  30
ATOM     30  O   UNL     1       1.236  11.926  18.462  0.00  0.00    +0.000 OA
ATOM     31  C   UNL     1      -0.064  12.467  18.702  0.00  0.00    +0.000 C 
ENDBRANCH   5  30
BRANCH   7  32
ATOM     32  O   UNL     1       0.589   7.884  21.138  0.00  0.00    +0.000 OA
ATOM     33  C   UNL     1      -0.240   8.582  22.055  0.00  0.00    +0.000 C 
ENDBRANCH   7  32
TORSDOF 9
ENDMDL
MODEL 8
REMARK VINA RESULT:      -6.5      3.988      9.206
REMARK  Name = 
REMARK  12 active torsions:
REMARK  status: ('A' for Active; 'I' for Inactive)
REMARK    1  A    between atoms: C_1  and  C_2
REMARK    2  A    between atoms: C_2  and  O_3
REMARK    3  A    between atoms: O_3  and  C_4
REMARK    4  A    between atoms: C_4  and  C_6
REMARK    5  A    between atoms: C_6  and  N_7
REMARK    6  A    between atoms: C_8  and  C_10
REMARK    7  A    between atoms: C_10  and  C_12
REMARK    8  A    between atoms: C_16  and  O_17
REMARK    9  A    between atoms: O_17  and  C_18
REMARK   10  A    between atoms: C_20  and  O_21
REMARK   11  A    between atoms: O_21  and  C_22
REMARK   12  A    between atoms: C_24  and  C_25
REMARK                            x       y       z     vdW  Elec       q    Type
REMARK                         _______ _______ _______ _____ _____    ______ ____
ROOT
ATOM      1  C   UNL     1      -0.513  11.478  19.544  0.00  0.00    +0.000 A 
ATOM      2  N   UNL     1      -0.565  10.983  18.255  0.00  0.00    +0.000 N 
ATOM      3  C   UNL     1      -1.846  11.027  17.754  0.00  0.00    +0.000 A 
ATOM      4  C   UNL     1      -2.343  10.565  16.526  0.00  0.00    +0.000 A 
ATOM      5  C   UNL     1      -3.701  10.733  16.249  0.00  0.00    +0.000 A 
ATOM      6  C   UNL     1      -4.526  11.370  17.174  0.00  0.00    +0.000 A 
ATOM      7  C   UNL     1      -4.021  11.858  18.394  0.00  0.00    +0.000 A 
ATOM      8  C   UNL     1      -2.647  11.656  18.707  0.00  0.00    +0.000 A 
ATOM      9  C   UNL     1      -1.793  11.955  19.841  0.00  0.00    +0.000 A 
ATOM     10  H   UNL     1       0.217  10.586  17.747  0.00  0.00    +0.000 HD
ENDROOT
BRANCH   9  11
ATOM     11  C   UNL     1      -2.160  12.605  21.108  0.00  0.00    +0.000 A 
ATOM     12  C   UNL     1      -2.279  14.000  21.183  0.00  0.00    +0.000 A 
ATOM     13  C   UNL     1      -2.518  14.643  22.402  0.00  0.00    +0.000 A 
ATOM     14  C   UNL     1      -2.735  13.886  23.546  0.00  0.00    +0.000 A 
ATOM     15 CL   UNL     1      -3.056  14.669  25.043  0.00  0.00    +0.000 Cl
ATOM     16  C   UNL     1      -2.687  12.499  23.486  0.00  0.00    +0.000 A 
ATOM     17  C   UNL     1      -2.361  11.864  22.281  0.00  0.00    +0.000 A 
ENDBRANCH   9  11
BRANCH   1  18
ATOM     18  C   UNL     1       0.678  11.426  20.376  0.00  0.00    +0.000 C 
ATOM     19  O   UNL     1       1.442  12.355  20.621  0.00  0.00    +0.000 OA
BRANCH  18  21
ATOM     20  N   UNL     1       1.237   9.080  20.318  0.00  0.00    +0.000 N 
ATOM     21  C   UNL     1       0.944  10.136  21.146  0.00  0.00    +0.000 C 
ATOM     22  O   UNL     1       0.889  10.098  22.364  0.00  0.00    +0.000 OA
ATOM     23  H   UNL     1       1.344   9.262  19.326  0.00  0.00    +0.000 HD
BRANCH  20  24
ATOM     24  C   UNL     1       1.477   7.752  20.832  0.00  0.00    +0.000 C 
BRANCH  24  25
ATOM     25  C   UNL     1       2.275   6.909  19.849  0.00  0.00    +0.000 C 
ATOM     26  O   UNL     1       2.663   7.281  18.749  0.00  0.00    +0.000 OA
BRANCH  25  27
ATOM     27  O   UNL     1       2.382   5.644  20.350  0.00  0.00    +0.000 OA
BRANCH  27  29
ATOM     28  C   UNL     1       1.430   3.993  18.908  0.00  0.00    +0.000 C 
ATOM     29  C   UNL     1       2.720   4.630  19.396  0.00  0.00    +0.000 C 
ENDBRANCH  27  29
ENDBRANCH  25  27
ENDBRANCH  24  25
ENDBRANCH  20  24
ENDBRANCH  18  21
ENDBRANCH   1  18
BRANCH   5  30
ATOM     30  O   UNL     1      -4.112  10.246  15.034  0.00  0.00    +0.000 OA
ATOM     31  C   UNL     1      -3.106  10.071  14.035  0.00  0.00    +0.000 C 
ENDBRANCH   5  30
BRANCH   7  32
ATOM     32  O   UNL     1      -4.793  12.546  19.295  0.00  0.00    +0.000 OA
ATOM     33  C   UNL     1      -6.125  12.882  18.940  0.00  0.00    +0.000 C 
ENDBRANCH   7  32
TORSDOF 9
ENDMDL
MODEL 9
REMARK VINA RESULT:      -6.4      0.861      1.611
REMARK  Name = 
REMARK  12 active torsions:
REMARK  status: ('A' for Active; 'I' for Inactive)
REMARK    1  A    between atoms: C_1  and  C_2
REMARK    2  A    between atoms: C_2  and  O_3
REMARK    3  A    between atoms: O_3  and  C_4
REMARK    4  A    between atoms: C_4  and  C_6
REMARK    5  A    between atoms: C_6  and  N_7
REMARK    6  A    between atoms: C_8  and  C_10
REMARK    7  A    between atoms: C_10  and  C_12
REMARK    8  A    between atoms: C_16  and  O_17
REMARK    9  A    between atoms: O_17  and  C_18
REMARK   10  A    between atoms: C_20  and  O_21
REMARK   11  A    between atoms: O_21  and  C_22
REMARK   12  A    between atoms: C_24  and  C_25
REMARK                            x       y       z     vdW  Elec       q    Type
REMARK                         _______ _______ _______ _____ _____    ______ ____
ROOT
ATOM      1  C   UNL     1       3.012   6.845  18.233  0.00  0.00    +0.000 A 
ATOM      2  N   UNL     1       3.724   7.277  17.129  0.00  0.00    +0.000 N 
ATOM      3  C   UNL     1       4.499   6.267  16.608  0.00  0.00    +0.000 A 
ATOM      4  C   UNL     1       5.415   6.299  15.545  0.00  0.00    +0.000 A 
ATOM      5  C   UNL     1       6.083   5.122  15.202  0.00  0.00    +0.000 A 
ATOM      6  C   UNL     1       5.816   3.943  15.898  0.00  0.00    +0.000 A 
ATOM      7  C   UNL     1       4.878   3.906  16.947  0.00  0.00    +0.000 A 
ATOM      8  C   UNL     1       4.221   5.109  17.332  0.00  0.00    +0.000 A 
ATOM      9  C   UNL     1       3.263   5.475  18.358  0.00  0.00    +0.000 A 
ATOM     10  H   UNL     1       3.728   8.224  16.768  0.00  0.00    +0.000 HD
ENDROOT
BRANCH   9  11
ATOM     11  C   UNL     1       2.661   4.616  19.388  0.00  0.00    +0.000 A 
ATOM     12  C   UNL     1       1.356   4.125  19.232  0.00  0.00    +0.000 A 
ATOM     13  C   UNL     1       0.728   3.400  20.249  0.00  0.00    +0.000 A 
ATOM     14  C   UNL     1       1.435   3.075  21.399  0.00  0.00    +0.000 A 
ATOM     15 CL   UNL     1       0.677   2.160  22.641  0.00  0.00    +0.000 Cl
ATOM     16  C   UNL     1       2.752   3.493  21.550  0.00  0.00    +0.000 A 
ATOM     17  C   UNL     1       3.346   4.294  20.568  0.00  0.00    +0.000 A 
ENDBRANCH   9  11
BRANCH   1  18
ATOM     18  C   UNL     1       2.220   7.728  19.072  0.00  0.00    +0.000 C 
ATOM     19  O   UNL     1       1.960   7.569  20.262  0.00  0.00    +0.000 OA
BRANCH  18  21
ATOM     20  N   UNL     1       1.143   9.863  19.391  0.00  0.00    +0.000 N 
ATOM     21  C   UNL     1       1.778   9.060  18.475  0.00  0.00    +0.000 C 
ATOM     22  O   UNL     1       1.988   9.334  17.305  0.00  0.00    +0.000 OA
ATOM     23  H   UNL     1       1.113   9.558  20.358  0.00  0.00    +0.000 HD
BRANCH  20  24
ATOM     24  C   UNL     1       0.600  11.151  19.028  0.00  0.00    +0.000 C 
BRANCH  24  25
ATOM     25  C   UNL     1      -0.917  11.167  19.138  0.00  0.00    +0.000 C 
ATOM     26  O   UNL     1      -1.665  10.282  18.744  0.00  0.00    +0.000 OA
BRANCH  25  27
ATOM     27  O   UNL     1      -1.303  12.376  19.641  0.00  0.00    +0.000 OA
BRANCH  27  29
ATOM     28  C   UNL     1      -3.218  12.641  21.045  0.00  0.00    +0.000 C 
ATOM     29  C   UNL     1      -1.724  12.367  21.010  0.00  0.00    +0.000 C 
ENDBRANCH  27  29
ENDBRANCH  25  27
ENDBRANCH  24  25
ENDBRANCH  20  24
ENDBRANCH  18  21
ENDBRANCH   1  18
BRANCH   5  30
ATOM     30  O   UNL     1       6.968   5.237  14.160  0.00  0.00    +0.000 OA
ATOM     31  C   UNL     1       6.889   4.245  13.134  0.00  0.00    +0.000 C 
ENDBRANCH   5  30
BRANCH   7  32
ATOM     32  O   UNL     1       4.547   2.750  17.605  0.00  0.00    +0.000 OA
ATOM     33  C   UNL     1       3.405   2.022  17.179  0.00  0.00    +0.000 C 
ENDBRANCH   7  32
TORSDOF 9
ENDMDL
