MODEL 1
REMARK VINA RESULT:      -8.7      0.000      0.000
REMARK  Name = 
REMARK  7 active torsions:
REMARK  status: ('A' for Active; 'I' for Inactive)
REMARK    1  A    between atoms: C_2  and  C_3
REMARK    2  A    between atoms: C_3  and  N_4
REMARK    3  A    between atoms: N_4  and  C_5
REMARK    4  A    between atoms: C_5  and  N_7
REMARK    5  A    between atoms: N_7  and  N_8
REMARK    6  A    between atoms: C_9  and  C_11
REMARK    7  A    between atoms: C_13  and  C_14
REMARK                            x       y       z     vdW  Elec       q    Type
REMARK                         _______ _______ _______ _____ _____    ______ ____
ROOT
ATOM      1  C   UNL     1       1.941   7.047  20.182  0.00  0.00    +0.000 A 
ATOM      2  C   UNL     1       3.053   6.953  19.360  0.00  0.00    +0.000 A 
ATOM      3  C   UNL     1       3.698   5.714  19.168  0.00  0.00    +0.000 A 
ATOM      4  C   UNL     1       3.134   4.580  19.840  0.00  0.00    +0.000 A 
ATOM      5  C   UNL     1       3.634   3.249  19.767  0.00  0.00    +0.000 A 
ATOM      6  C   UNL     1       3.029   2.177  20.414  0.00  0.00    +0.000 A 
ATOM      7  C   UNL     1       1.897   2.401  21.172  0.00  0.00    +0.000 A 
ATOM      8  C   UNL     1       1.390   3.699  21.280  0.00  0.00    +0.000 A 
ATOM      9  C   UNL     1       1.974   4.793  20.648  0.00  0.00    +0.000 A 
ATOM     10  N   UNL     1       1.396   5.994  20.831  0.00  0.00    +0.000 NA
ENDROOT
BRANCH   3  11
ATOM     11  C   UNL     1       4.957   5.656  18.261  0.00  0.00    +0.000 C 
ATOM     12  C   UNL     1       5.033   4.348  17.391  0.00  0.00    +0.000 C 
ATOM     13  C   UNL     1       6.279   4.315  16.492  0.00  0.00    +0.000 C 
ATOM     14  C   UNL     1       6.243   5.519  15.543  0.00  0.00    +0.000 C 
ATOM     15  C   UNL     1       6.210   6.817  16.358  0.00  0.00    +0.000 C 
ATOM     16  C   UNL     1       7.458   6.891  17.253  0.00  0.00    +0.000 C 
ATOM     17  C   UNL     1       7.515   5.677  18.194  0.00  0.00    +0.000 C 
ATOM     18  C   UNL     1       7.535   4.385  17.369  0.00  0.00    +0.000 C 
ATOM     19  C   UNL     1       6.272   5.669  19.101  0.00  0.00    +0.000 C 
ATOM     20  C   UNL     1       4.948   6.830  17.235  0.00  0.00    +0.000 C 
ENDBRANCH   3  11
BRANCH   1  22
ATOM     21  N   UNL     1       1.210   9.141  19.171  0.00  0.00    +0.000 N 
ATOM     22  C   UNL     1       1.273   8.389  20.325  0.00  0.00    +0.000 C 
ATOM     23  O   UNL     1       0.816   8.763  21.402  0.00  0.00    +0.000 OA
ATOM     24  H   UNL     1       1.550   8.770  18.287  0.00  0.00    +0.000 HD
BRANCH  21  25
ATOM     25  N   UNL     1       0.858  10.491  19.247  0.00  0.00    +0.000 N 
ATOM     26  H   UNL     1       1.510  11.095  19.744  0.00  0.00    +0.000 HD
BRANCH  25  27
ATOM     27  C   UNL     1      -0.380  10.972  18.947  0.00  0.00    +0.000 C 
ATOM     28  S   UNL     1      -1.252  11.800  20.105  0.00  0.00    +0.000 S 
BRANCH  27  29
ATOM     29  N   UNL     1      -0.917  10.802  17.709  0.00  0.00    +0.000 N 
ATOM     30  H   UNL     1      -0.238  10.845  16.959  0.00  0.00    +0.000 HD
BRANCH  29  31
ATOM     31  C   UNL     1      -2.175  10.151  17.430  0.00  0.00    +0.000 C 
BRANCH  31  33
ATOM     32  C   UNL     1      -2.837   9.937  15.046  0.00  0.00    +0.000 C 
ATOM     33  C   UNL     1      -2.774  10.670  16.167  0.00  0.00    +0.000 C 
ENDBRANCH  31  33
ENDBRANCH  29  31
ENDBRANCH  27  29
ENDBRANCH  25  27
ENDBRANCH  21  25
ENDBRANCH   1  22
TORSDOF 7
ENDMDL
MODEL 2
REMARK VINA RESULT:      -8.5      4.783      7.922
REMARK  Name = 
REMARK  7 active torsions:
REMARK  status: ('A' for Active; 'I' for Inactive)
REMARK    1  A    between atoms: C_2  and  C_3
REMARK    2  A    between atoms: C_3  and  N_4
REMARK    3  A    between atoms: N_4  and  C_5
REMARK    4  A    between atoms: C_5  and  N_7
REMARK    5  A    between atoms: N_7  and  N_8
REMARK    6  A    between atoms: C_9  and  C_11
REMARK    7  A    between atoms: C_13  and  C_14
REMARK                            x       y       z     vdW  Elec       q    Type
REMARK                         _______ _______ _______ _____ _____    ______ ____
ROOT
ATOM      1  C   UNL     1       7.207   6.613  17.534  0.00  0.00    +0.000 A 
ATOM      2  C   UNL     1       6.132   5.990  18.148  0.00  0.00    +0.000 A 
ATOM      3  C   UNL     1       5.334   5.072  17.436  0.00  0.00    +0.000 A 
ATOM      4  C   UNL     1       5.708   4.809  16.077  0.00  0.00    +0.000 A 
ATOM      5  C   UNL     1       5.036   3.913  15.199  0.00  0.00    +0.000 A 
ATOM      6  C   UNL     1       5.459   3.669  13.897  0.00  0.00    +0.000 A 
ATOM      7  C   UNL     1       6.575   4.326  13.418  0.00  0.00    +0.000 A 
ATOM      8  C   UNL     1       7.248   5.228  14.248  0.00  0.00    +0.000 A 
ATOM      9  C   UNL     1       6.848   5.495  15.554  0.00  0.00    +0.000 A 
ATOM     10  N   UNL     1       7.574   6.387  16.253  0.00  0.00    +0.000 NA
ENDROOT
BRANCH   3  11
ATOM     11  C   UNL     1       4.122   4.417  18.152  0.00  0.00    +0.000 C 
ATOM     12  C   UNL     1       2.748   4.729  17.454  0.00  0.00    +0.000 C 
ATOM     13  C   UNL     1       1.563   4.063  18.170  0.00  0.00    +0.000 C 
ATOM     14  C   UNL     1       1.768   2.543  18.168  0.00  0.00    +0.000 C 
ATOM     15  C   UNL     1       3.081   2.197  18.879  0.00  0.00    +0.000 C 
ATOM     16  C   UNL     1       3.032   2.717  20.324  0.00  0.00    +0.000 C 
ATOM     17  C   UNL     1       2.806   4.238  20.339  0.00  0.00    +0.000 C 
ATOM     18  C   UNL     1       1.497   4.573  19.615  0.00  0.00    +0.000 C 
ATOM     19  C   UNL     1       3.969   4.939  19.615  0.00  0.00    +0.000 C 
ATOM     20  C   UNL     1       4.248   2.863  18.133  0.00  0.00    +0.000 C 
ENDBRANCH   3  11
BRANCH   1  22
ATOM     21  N   UNL     1       8.024   8.875  17.932  0.00  0.00    +0.000 N 
ATOM     22  C   UNL     1       8.044   7.561  18.352  0.00  0.00    +0.000 C 
ATOM     23  O   UNL     1       8.684   7.171  19.325  0.00  0.00    +0.000 OA
ATOM     24  H   UNL     1       7.435   9.165  17.156  0.00  0.00    +0.000 HD
BRANCH  21  25
ATOM     25  N   UNL     1       8.960   9.775  18.446  0.00  0.00    +0.000 N 
ATOM     26  H   UNL     1       9.233   9.631  19.417  0.00  0.00    +0.000 HD
BRANCH  25  27
ATOM     27  C   UNL     1       9.307  10.943  17.837  0.00  0.00    +0.000 C 
ATOM     28  S   UNL     1       8.152  12.120  17.581  0.00  0.00    +0.000 S 
BRANCH  27  29
ATOM     29  N   UNL     1      10.588  11.174  17.444  0.00  0.00    +0.000 N 
ATOM     30  H   UNL     1      10.790  10.868  16.500  0.00  0.00    +0.000 HD
BRANCH  29  31
ATOM     31  C   UNL     1      11.473  12.157  18.026  0.00  0.00    +0.000 C 
BRANCH  31  33
ATOM     32  C   UNL     1      11.269  12.098  20.499  0.00  0.00    +0.000 C 
ATOM     33  C   UNL     1      11.918  11.734  19.384  0.00  0.00    +0.000 C 
ENDBRANCH  31  33
ENDBRANCH  29  31
ENDBRANCH  27  29
ENDBRANCH  25  27
ENDBRANCH  21  25
ENDBRANCH   1  22
TORSDOF 7
ENDMDL
MODEL 3
REMARK VINA RESULT:      -8.5      1.783      4.605
REMARK  Name = 
REMARK  7 active torsions:
REMARK  status: ('A' for Active; 'I' for Inactive)
REMARK    1  A    between atoms: C_2  and  C_3
REMARK    2  A    between atoms: C_3  and  N_4
REMARK    3  A    between atoms: N_4  and  C_5
REMARK    4  A    between atoms: C_5  and  N_7
REMARK    5  A    between atoms: N_7  and  N_8
REMARK    6  A    between atoms: C_9  and  C_11
REMARK    7  A    between atoms: C_13  and  C_14
REMARK                            x       y       z     vdW  Elec       q    Type
REMARK                         _______ _______ _______ _____ _____    ______ ____
ROOT
ATOM      1  C   UNL     1       2.874   8.043  17.751  0.00  0.00    +0.000 A 
ATOM      2  C   UNL     1       2.489   6.927  18.477  0.00  0.00    +0.000 A 
ATOM      3  C   UNL     1       3.050   5.664  18.198  0.00  0.00    +0.000 A 
ATOM      4  C   UNL     1       4.037   5.610  17.160  0.00  0.00    +0.000 A 
ATOM      5  C   UNL     1       4.722   4.435  16.738  0.00  0.00    +0.000 A 
ATOM      6  C   UNL     1       5.696   4.443  15.745  0.00  0.00    +0.000 A 
ATOM      7  C   UNL     1       6.018   5.635  15.128  0.00  0.00    +0.000 A 
ATOM      8  C   UNL     1       5.350   6.804  15.505  0.00  0.00    +0.000 A 
ATOM      9  C   UNL     1       4.370   6.829  16.491  0.00  0.00    +0.000 A 
ATOM     10  N   UNL     1       3.796   8.016  16.764  0.00  0.00    +0.000 NA
ENDROOT
BRANCH   3  11
ATOM     11  C   UNL     1       2.572   4.434  19.016  0.00  0.00    +0.000 C 
ATOM     12  C   UNL     1       1.679   4.821  20.252  0.00  0.00    +0.000 C 
ATOM     13  C   UNL     1       1.207   3.590  21.040  0.00  0.00    +0.000 C 
ATOM     14  C   UNL     1       0.378   2.690  20.114  0.00  0.00    +0.000 C 
ATOM     15  C   UNL     1       1.231   2.258  18.917  0.00  0.00    +0.000 C 
ATOM     16  C   UNL     1       2.469   1.497  19.418  0.00  0.00    +0.000 C 
ATOM     17  C   UNL     1       3.296   2.383  20.365  0.00  0.00    +0.000 C 
ATOM     18  C   UNL     1       2.429   2.819  21.552  0.00  0.00    +0.000 C 
ATOM     19  C   UNL     1       3.774   3.636  19.610  0.00  0.00    +0.000 C 
ATOM     20  C   UNL     1       1.677   3.507  18.138  0.00  0.00    +0.000 C 
ENDBRANCH   3  11
BRANCH   1  22
ATOM     21  N   UNL     1       1.274   9.324  19.071  0.00  0.00    +0.000 N 
ATOM     22  C   UNL     1       2.265   9.372  18.112  0.00  0.00    +0.000 C 
ATOM     23  O   UNL     1       2.644  10.414  17.584  0.00  0.00    +0.000 OA
ATOM     24  H   UNL     1       1.029   8.448  19.524  0.00  0.00    +0.000 HD
BRANCH  21  25
ATOM     25  N   UNL     1       0.468  10.445  19.284  0.00  0.00    +0.000 N 
ATOM     26  H   UNL     1       0.482  10.834  20.225  0.00  0.00    +0.000 HD
BRANCH  25  27
ATOM     27  C   UNL     1      -0.498  10.863  18.420  0.00  0.00    +0.000 C 
ATOM     28  S   UNL     1      -0.989  12.458  18.430  0.00  0.00    +0.000 S 
BRANCH  27  29
ATOM     29  N   UNL     1      -1.064  10.001  17.533  0.00  0.00    +0.000 N 
ATOM     30  H   UNL     1      -0.464   9.228  17.272  0.00  0.00    +0.000 HD
BRANCH  29  31
ATOM     31  C   UNL     1      -2.483   9.842  17.316  0.00  0.00    +0.000 C 
BRANCH  31  33
ATOM     32  C   UNL     1      -3.136  10.714  15.084  0.00  0.00    +0.000 C 
ATOM     33  C   UNL     1      -2.785   9.682  15.865  0.00  0.00    +0.000 C 
ENDBRANCH  31  33
ENDBRANCH  29  31
ENDBRANCH  27  29
ENDBRANCH  25  27
ENDBRANCH  21  25
ENDBRANCH   1  22
TORSDOF 7
ENDMDL
MODEL 4
REMARK VINA RESULT:      -8.5      0.381      1.385
REMARK  Name = 
REMARK  7 active torsions:
REMARK  status: ('A' for Active; 'I' for Inactive)
REMARK    1  A    between atoms: C_2  and  C_3
REMARK    2  A    between atoms: C_3  and  N_4
REMARK    3  A    between atoms: N_4  and  C_5
REMARK    4  A    between atoms: C_5  and  N_7
REMARK    5  A    between atoms: N_7  and  N_8
REMARK    6  A    between atoms: C_9  and  C_11
REMARK    7  A    between atoms: C_13  and  C_14
REMARK                            x       y       z     vdW  Elec       q    Type
REMARK                         _______ _______ _______ _____ _____    ______ ____
ROOT
ATOM      1  C   UNL     1       1.924   7.038  20.197  0.00  0.00    +0.000 A 
ATOM      2  C   UNL     1       2.957   6.941  19.279  0.00  0.00    +0.000 A 
ATOM      3  C   UNL     1       3.599   5.707  19.052  0.00  0.00    +0.000 A 
ATOM      4  C   UNL     1       3.115   4.580  19.795  0.00  0.00    +0.000 A 
ATOM      5  C   UNL     1       3.626   3.254  19.702  0.00  0.00    +0.000 A 
ATOM      6  C   UNL     1       3.098   2.188  20.423  0.00  0.00    +0.000 A 
ATOM      7  C   UNL     1       2.037   2.413  21.277  0.00  0.00    +0.000 A 
ATOM      8  C   UNL     1       1.524   3.708  21.406  0.00  0.00    +0.000 A 
ATOM      9  C   UNL     1       2.031   4.795  20.702  0.00  0.00    +0.000 A 
ATOM     10  N   UNL     1       1.456   5.993  20.914  0.00  0.00    +0.000 NA
ENDROOT
BRANCH   3  11
ATOM     11  C   UNL     1       4.770   5.646  18.034  0.00  0.00    +0.000 C 
ATOM     12  C   UNL     1       6.182   5.554  18.721  0.00  0.00    +0.000 C 
ATOM     13  C   UNL     1       7.326   5.483  17.697  0.00  0.00    +0.000 C 
ATOM     14  C   UNL     1       7.137   4.238  16.821  0.00  0.00    +0.000 C 
ATOM     15  C   UNL     1       5.786   4.313  16.102  0.00  0.00    +0.000 C 
ATOM     16  C   UNL     1       5.739   5.579  15.232  0.00  0.00    +0.000 C 
ATOM     17  C   UNL     1       5.949   6.833  16.098  0.00  0.00    +0.000 C 
ATOM     18  C   UNL     1       7.297   6.741  16.821  0.00  0.00    +0.000 C 
ATOM     19  C   UNL     1       4.827   6.928  17.146  0.00  0.00    +0.000 C 
ATOM     20  C   UNL     1       4.661   4.367  17.149  0.00  0.00    +0.000 C 
ENDBRANCH   3  11
BRANCH   1  22
ATOM     21  N   UNL     1       1.215   9.169  19.249  0.00  0.00    +0.000 N 
ATOM     22  C   UNL     1       1.253   8.374  20.376  0.00  0.00    +0.000 C 
ATOM     23  O   UNL     1       0.774   8.709  21.456  0.00  0.00    +0.000 OA
ATOM     24  H   UNL     1       1.573   8.830  18.360  0.00  0.00    +0.000 HD
BRANCH  21  25
ATOM     25  N   UNL     1       0.860  10.515  19.367  0.00  0.00    +0.000 N 
ATOM     26  H   UNL     1       1.404  11.063  20.031  0.00  0.00    +0.000 HD
BRANCH  25  27
ATOM     27  C   UNL     1      -0.292  11.045  18.872  0.00  0.00    +0.000 C 
ATOM     28  S   UNL     1      -1.057  12.281  19.692  0.00  0.00    +0.000 S 
BRANCH  27  29
ATOM     29  N   UNL     1      -0.826  10.593  17.705  0.00  0.00    +0.000 N 
ATOM     30  H   UNL     1      -0.306   9.833  17.284  0.00  0.00    +0.000 HD
BRANCH  29  31
ATOM     31  C   UNL     1      -2.201  10.762  17.299  0.00  0.00    +0.000 C 
BRANCH  31  33
ATOM     32  C   UNL     1      -2.933  10.265  14.979  0.00  0.00    +0.000 C 
ATOM     33  C   UNL     1      -2.546   9.831  16.187  0.00  0.00    +0.000 C 
ENDBRANCH  31  33
ENDBRANCH  29  31
ENDBRANCH  27  29
ENDBRANCH  25  27
ENDBRANCH  21  25
ENDBRANCH   1  22
TORSDOF 7
ENDMDL
MODEL 5
REMARK VINA RESULT:      -8.5      0.547      1.501
REMARK  Name = 
REMARK  7 active torsions:
REMARK  status: ('A' for Active; 'I' for Inactive)
REMARK    1  A    between atoms: C_2  and  C_3
REMARK    2  A    between atoms: C_3  and  N_4
REMARK    3  A    between atoms: N_4  and  C_5
REMARK    4  A    between atoms: C_5  and  N_7
REMARK    5  A    between atoms: N_7  and  N_8
REMARK    6  A    between atoms: C_9  and  C_11
REMARK    7  A    between atoms: C_13  and  C_14
REMARK                            x       y       z     vdW  Elec       q    Type
REMARK                         _______ _______ _______ _____ _____    ______ ____
ROOT
ATOM      1  C   UNL     1       1.888   6.973  20.251  0.00  0.00    +0.000 A 
ATOM      2  C   UNL     1       2.909   6.891  19.318  0.00  0.00    +0.000 A 
ATOM      3  C   UNL     1       3.598   5.678  19.117  0.00  0.00    +0.000 A 
ATOM      4  C   UNL     1       3.173   4.554  19.899  0.00  0.00    +0.000 A 
ATOM      5  C   UNL     1       3.736   3.248  19.836  0.00  0.00    +0.000 A 
ATOM      6  C   UNL     1       3.264   2.184  20.596  0.00  0.00    +0.000 A 
ATOM      7  C   UNL     1       2.208   2.390  21.461  0.00  0.00    +0.000 A 
ATOM      8  C   UNL     1       1.644   3.666  21.563  0.00  0.00    +0.000 A 
ATOM      9  C   UNL     1       2.095   4.752  20.818  0.00  0.00    +0.000 A 
ATOM     10  N   UNL     1       1.475   5.931  21.006  0.00  0.00    +0.000 NA
ENDROOT
BRANCH   3  11
ATOM     11  C   UNL     1       4.754   5.634  18.081  0.00  0.00    +0.000 C 
ATOM     12  C   UNL     1       4.774   6.883  17.124  0.00  0.00    +0.000 C 
ATOM     13  C   UNL     1       5.932   6.827  16.115  0.00  0.00    +0.000 C 
ATOM     14  C   UNL     1       7.261   6.788  16.879  0.00  0.00    +0.000 C 
ATOM     15  C   UNL     1       7.294   5.559  17.794  0.00  0.00    +0.000 C 
ATOM     16  C   UNL     1       7.139   4.286  16.946  0.00  0.00    +0.000 C 
ATOM     17  C   UNL     1       5.819   4.324  16.158  0.00  0.00    +0.000 C 
ATOM     18  C   UNL     1       5.792   5.564  15.257  0.00  0.00    +0.000 C 
ATOM     19  C   UNL     1       4.636   4.395  17.139  0.00  0.00    +0.000 C 
ATOM     20  C   UNL     1       6.137   5.648  18.802  0.00  0.00    +0.000 C 
ENDBRANCH   3  11
BRANCH   1  22
ATOM     21  N   UNL     1       1.284   9.149  19.334  0.00  0.00    +0.000 N 
ATOM     22  C   UNL     1       1.165   8.286  20.403  0.00  0.00    +0.000 C 
ATOM     23  O   UNL     1       0.516   8.545  21.413  0.00  0.00    +0.000 OA
ATOM     24  H   UNL     1       1.785   8.872  18.493  0.00  0.00    +0.000 HD
BRANCH  21  25
ATOM     25  N   UNL     1       0.884  10.480  19.477  0.00  0.00    +0.000 N 
ATOM     26  H   UNL     1       1.145  10.934  20.350  0.00  0.00    +0.000 HD
BRANCH  25  27
ATOM     27  C   UNL     1      -0.028  11.091  18.670  0.00  0.00    +0.000 C 
ATOM     28  S   UNL     1      -0.157  12.755  18.676  0.00  0.00    +0.000 S 
BRANCH  27  29
ATOM     29  N   UNL     1      -0.829  10.366  17.844  0.00  0.00    +0.000 N 
ATOM     30  H   UNL     1      -0.642   9.371  17.860  0.00  0.00    +0.000 HD
BRANCH  29  31
ATOM     31  C   UNL     1      -2.119  10.791  17.353  0.00  0.00    +0.000 C 
BRANCH  31  33
ATOM     32  C   UNL     1      -3.404  10.577  15.239  0.00  0.00    +0.000 C 
ATOM     33  C   UNL     1      -2.437  10.132  16.054  0.00  0.00    +0.000 C 
ENDBRANCH  31  33
ENDBRANCH  29  31
ENDBRANCH  27  29
ENDBRANCH  25  27
ENDBRANCH  21  25
ENDBRANCH   1  22
TORSDOF 7
ENDMDL
MODEL 6
REMARK VINA RESULT:      -8.5      1.743      4.642
REMARK  Name = 
REMARK  7 active torsions:
REMARK  status: ('A' for Active; 'I' for Inactive)
REMARK    1  A    between atoms: C_2  and  C_3
REMARK    2  A    between atoms: C_3  and  N_4
REMARK    3  A    between atoms: N_4  and  C_5
REMARK    4  A    between atoms: C_5  and  N_7
REMARK    5  A    between atoms: N_7  and  N_8
REMARK    6  A    between atoms: C_9  and  C_11
REMARK    7  A    between atoms: C_13  and  C_14
REMARK                            x       y       z     vdW  Elec       q    Type
REMARK                         _______ _______ _______ _____ _____    ______ ____
ROOT
ATOM      1  C   UNL     1       2.801   8.053  17.771  0.00  0.00    +0.000 A 
ATOM      2  C   UNL     1       2.423   6.932  18.494  0.00  0.00    +0.000 A 
ATOM      3  C   UNL     1       3.000   5.675  18.217  0.00  0.00    +0.000 A 
ATOM      4  C   UNL     1       3.994   5.633  17.186  0.00  0.00    +0.000 A 
ATOM      5  C   UNL     1       4.694   4.466  16.767  0.00  0.00    +0.000 A 
ATOM      6  C   UNL     1       5.674   4.485  15.780  0.00  0.00    +0.000 A 
ATOM      7  C   UNL     1       5.986   5.681  15.165  0.00  0.00    +0.000 A 
ATOM      8  C   UNL     1       5.304   6.843  15.539  0.00  0.00    +0.000 A 
ATOM      9  C   UNL     1       4.317   6.856  16.520  0.00  0.00    +0.000 A 
ATOM     10  N   UNL     1       3.729   8.036  16.789  0.00  0.00    +0.000 NA
ENDROOT
BRANCH   3  11
ATOM     11  C   UNL     1       2.530   4.439  19.031  0.00  0.00    +0.000 C 
ATOM     12  C   UNL     1       3.722   3.587  19.604  0.00  0.00    +0.000 C 
ATOM     13  C   UNL     1       3.237   2.376  20.416  0.00  0.00    +0.000 C 
ATOM     14  C   UNL     1       2.391   2.870  21.596  0.00  0.00    +0.000 C 
ATOM     15  C   UNL     1       1.194   3.672  21.072  0.00  0.00    +0.000 C 
ATOM     16  C   UNL     1       0.343   2.780  20.154  0.00  0.00    +0.000 C 
ATOM     17  C   UNL     1       1.188   2.261  18.978  0.00  0.00    +0.000 C 
ATOM     18  C   UNL     1       2.388   1.472  19.514  0.00  0.00    +0.000 C 
ATOM     19  C   UNL     1       1.704   3.451  18.150  0.00  0.00    +0.000 C 
ATOM     20  C   UNL     1       1.708   4.884  20.279  0.00  0.00    +0.000 C 
ENDBRANCH   3  11
BRANCH   1  22
ATOM     21  N   UNL     1       1.246   9.329  19.149  0.00  0.00    +0.000 N 
ATOM     22  C   UNL     1       2.175   9.375  18.130  0.00  0.00    +0.000 C 
ATOM     23  O   UNL     1       2.490  10.409  17.548  0.00  0.00    +0.000 OA
ATOM     24  H   UNL     1       1.056   8.461  19.642  0.00  0.00    +0.000 HD
BRANCH  21  25
ATOM     25  N   UNL     1       0.421  10.433  19.377  0.00  0.00    +0.000 N 
ATOM     26  H   UNL     1       0.593  10.949  20.239  0.00  0.00    +0.000 HD
BRANCH  25  27
ATOM     27  C   UNL     1      -0.723  10.685  18.682  0.00  0.00    +0.000 C 
ATOM     28  S   UNL     1      -1.883  11.695  19.331  0.00  0.00    +0.000 S 
BRANCH  27  29
ATOM     29  N   UNL     1      -0.932  10.137  17.455  0.00  0.00    +0.000 N 
ATOM     30  H   UNL     1      -0.116   9.682  17.065  0.00  0.00    +0.000 HD
BRANCH  29  31
ATOM     31  C   UNL     1      -2.220   9.764  16.918  0.00  0.00    +0.000 C 
BRANCH  31  33
ATOM     32  C   UNL     1      -3.370  10.160  14.755  0.00  0.00    +0.000 C 
ATOM     33  C   UNL     1      -2.563  10.597  15.731  0.00  0.00    +0.000 C 
ENDBRANCH  31  33
ENDBRANCH  29  31
ENDBRANCH  27  29
ENDBRANCH  25  27
ENDBRANCH  21  25
ENDBRANCH   1  22
TORSDOF 7
ENDMDL
MODEL 7
REMARK VINA RESULT:      -8.3      4.757      7.890
REMARK  Name = 
REMARK  7 active torsions:
REMARK  status: ('A' for Active; 'I' for Inactive)
REMARK    1  A    between atoms: C_2  and  C_3
REMARK    2  A    between atoms: C_3  and  N_4
REMARK    3  A    between atoms: N_4  and  C_5
REMARK    4  A    between atoms: C_5  and  N_7
REMARK    5  A    between atoms: N_7  and  N_8
REMARK    6  A    between atoms: C_9  and  C_11
REMARK    7  A    between atoms: C_13  and  C_14
REMARK                            x       y       z     vdW  Elec       q    Type
REMARK                         _______ _______ _______ _____ _____    ______ ____
ROOT
ATOM      1  C   UNL     1       7.224   6.638  17.553  0.00  0.00    +0.000 A 
ATOM      2  C   UNL     1       6.149   6.025  18.175  0.00  0.00    +0.000 A 
ATOM      3  C   UNL     1       5.343   5.107  17.471  0.00  0.00    +0.000 A 
ATOM      4  C   UNL     1       5.709   4.834  16.113  0.00  0.00    +0.000 A 
ATOM      5  C   UNL     1       5.028   3.937  15.242  0.00  0.00    +0.000 A 
ATOM      6  C   UNL     1       5.445   3.684  13.939  0.00  0.00    +0.000 A 
ATOM      7  C   UNL     1       6.562   4.332  13.453  0.00  0.00    +0.000 A 
ATOM      8  C   UNL     1       7.243   5.235  14.275  0.00  0.00    +0.000 A 
ATOM      9  C   UNL     1       6.850   5.512  15.581  0.00  0.00    +0.000 A 
ATOM     10  N   UNL     1       7.584   6.403  16.272  0.00  0.00    +0.000 NA
ENDROOT
BRANCH   3  11
ATOM     11  C   UNL     1       4.131   4.462  18.197  0.00  0.00    +0.000 C 
ATOM     12  C   UNL     1       3.982   4.933  19.690  0.00  0.00    +0.000 C 
ATOM     13  C   UNL     1       2.770   4.294  20.387  0.00  0.00    +0.000 C 
ATOM     14  C   UNL     1       1.494   4.685  19.631  0.00  0.00    +0.000 C 
ATOM     15  C   UNL     1       1.586   4.204  18.178  0.00  0.00    +0.000 C 
ATOM     16  C   UNL     1       1.763   2.677  18.156  0.00  0.00    +0.000 C 
ATOM     17  C   UNL     1       3.029   2.272  18.929  0.00  0.00    +0.000 C 
ATOM     18  C   UNL     1       2.930   2.769  20.376  0.00  0.00    +0.000 C 
ATOM     19  C   UNL     1       4.263   2.908  18.267  0.00  0.00    +0.000 C 
ATOM     20  C   UNL     1       2.796   4.870  17.503  0.00  0.00    +0.000 C 
ENDBRANCH   3  11
BRANCH   1  22
ATOM     21  N   UNL     1       8.065   8.895  17.928  0.00  0.00    +0.000 N 
ATOM     22  C   UNL     1       8.070   7.586  18.362  0.00  0.00    +0.000 C 
ATOM     23  O   UNL     1       8.704   7.200  19.341  0.00  0.00    +0.000 OA
ATOM     24  H   UNL     1       7.481   9.183  17.147  0.00  0.00    +0.000 HD
BRANCH  21  25
ATOM     25  N   UNL     1       9.010   9.791  18.434  0.00  0.00    +0.000 N 
ATOM     26  H   UNL     1       9.355   9.594  19.371  0.00  0.00    +0.000 HD
BRANCH  25  27
ATOM     27  C   UNL     1       9.279  11.006  17.880  0.00  0.00    +0.000 C 
ATOM     28  S   UNL     1       8.029  12.061  17.547  0.00  0.00    +0.000 S 
BRANCH  27  29
ATOM     29  N   UNL     1      10.556  11.384  17.606  0.00  0.00    +0.000 N 
ATOM     30  H   UNL     1      10.648  11.940  16.765  0.00  0.00    +0.000 HD
BRANCH  29  31
ATOM     31  C   UNL     1      11.627  11.459  18.572  0.00  0.00    +0.000 C 
BRANCH  31  33
ATOM     32  C   UNL     1      11.335  13.530  19.909  0.00  0.00    +0.000 C 
ATOM     33  C   UNL     1      11.195  12.203  19.790  0.00  0.00    +0.000 C 
ENDBRANCH  31  33
ENDBRANCH  29  31
ENDBRANCH  27  29
ENDBRANCH  25  27
ENDBRANCH  21  25
ENDBRANCH   1  22
TORSDOF 7
ENDMDL
MODEL 8
REMARK VINA RESULT:      -8.3      1.849      4.944
REMARK  Name = 
REMARK  7 active torsions:
REMARK  status: ('A' for Active; 'I' for Inactive)
REMARK    1  A    between atoms: C_2  and  C_3
REMARK    2  A    between atoms: C_3  and  N_4
REMARK    3  A    between atoms: N_4  and  C_5
REMARK    4  A    between atoms: C_5  and  N_7
REMARK    5  A    between atoms: N_7  and  N_8
REMARK    6  A    between atoms: C_9  and  C_11
REMARK    7  A    between atoms: C_13  and  C_14
REMARK                            x       y       z     vdW  Elec       q    Type
REMARK                         _______ _______ _______ _____ _____    ______ ____
ROOT
ATOM      1  C   UNL     1       3.010   8.071  17.803  0.00  0.00    +0.000 A 
ATOM      2  C   UNL     1       2.506   6.888  18.319  0.00  0.00    +0.000 A 
ATOM      3  C   UNL     1       3.317   5.737  18.392  0.00  0.00    +0.000 A 
ATOM      4  C   UNL     1       4.669   5.868  17.934  0.00  0.00    +0.000 A 
ATOM      5  C   UNL     1       5.641   4.828  17.933  0.00  0.00    +0.000 A 
ATOM      6  C   UNL     1       6.951   5.016  17.506  0.00  0.00    +0.000 A 
ATOM      7  C   UNL     1       7.338   6.262  17.053  0.00  0.00    +0.000 A 
ATOM      8  C   UNL     1       6.403   7.301  17.022  0.00  0.00    +0.000 A 
ATOM      9  C   UNL     1       5.085   7.143  17.439  0.00  0.00    +0.000 A 
ATOM     10  N   UNL     1       4.277   8.217  17.358  0.00  0.00    +0.000 NA
ENDROOT
BRANCH   3  11
ATOM     11  C   UNL     1       2.706   4.423  18.951  0.00  0.00    +0.000 C 
ATOM     12  C   UNL     1       1.368   4.652  19.746  0.00  0.00    +0.000 C 
ATOM     13  C   UNL     1       0.774   3.340  20.281  0.00  0.00    +0.000 C 
ATOM     14  C   UNL     1       0.476   2.408  19.101  0.00  0.00    +0.000 C 
ATOM     15  C   UNL     1       1.768   2.128  18.325  0.00  0.00    +0.000 C 
ATOM     16  C   UNL     1       2.796   1.475  19.263  0.00  0.00    +0.000 C 
ATOM     17  C   UNL     1       3.087   2.393  20.462  0.00  0.00    +0.000 C 
ATOM     18  C   UNL     1       1.786   2.676  21.222  0.00  0.00    +0.000 C 
ATOM     19  C   UNL     1       3.670   3.725  19.961  0.00  0.00    +0.000 C 
ATOM     20  C   UNL     1       2.331   3.454  17.789  0.00  0.00    +0.000 C 
ENDBRANCH   3  11
BRANCH   1  22
ATOM     21  N   UNL     1       0.766   9.013  17.947  0.00  0.00    +0.000 N 
ATOM     22  C   UNL     1       2.109   9.278  17.778  0.00  0.00    +0.000 C 
ATOM     23  O   UNL     1       2.561  10.409  17.623  0.00  0.00    +0.000 OA
ATOM     24  H   UNL     1       0.440   8.067  18.129  0.00  0.00    +0.000 HD
BRANCH  21  25
ATOM     25  N   UNL     1      -0.172  10.012  17.677  0.00  0.00    +0.000 N 
ATOM     26  H   UNL     1      -0.208  10.343  16.715  0.00  0.00    +0.000 HD
BRANCH  25  27
ATOM     27  C   UNL     1      -0.821  10.727  18.638  0.00  0.00    +0.000 C 
ATOM     28  S   UNL     1      -2.402  11.204  18.393  0.00  0.00    +0.000 S 
BRANCH  27  29
ATOM     29  N   UNL     1      -0.205  11.048  19.807  0.00  0.00    +0.000 N 
ATOM     30  H   UNL     1       0.132  12.002  19.845  0.00  0.00    +0.000 HD
BRANCH  29  31
ATOM     31  C   UNL     1      -0.393  10.361  21.063  0.00  0.00    +0.000 C 
BRANCH  31  33
ATOM     32  C   UNL     1       1.083   8.401  21.440  0.00  0.00    +0.000 C 
ATOM     33  C   UNL     1       0.876   9.723  21.517  0.00  0.00    +0.000 C 
ENDBRANCH  31  33
ENDBRANCH  29  31
ENDBRANCH  27  29
ENDBRANCH  25  27
ENDBRANCH  21  25
ENDBRANCH   1  22
TORSDOF 7
ENDMDL
MODEL 9
REMARK VINA RESULT:      -8.3      4.828      7.656
REMARK  Name = 
REMARK  7 active torsions:
REMARK  status: ('A' for Active; 'I' for Inactive)
REMARK    1  A    between atoms: C_2  and  C_3
REMARK    2  A    between atoms: C_3  and  N_4
REMARK    3  A    between atoms: N_4  and  C_5
REMARK    4  A    between atoms: C_5  and  N_7
REMARK    5  A    between atoms: N_7  and  N_8
REMARK    6  A    between atoms: C_9  and  C_11
REMARK    7  A    between atoms: C_13  and  C_14
REMARK                            x       y       z     vdW  Elec       q    Type
REMARK                         _______ _______ _______ _____ _____    ______ ____
ROOT
ATOM      1  C   UNL     1       7.197   6.496  17.576  0.00  0.00    +0.000 A 
ATOM      2  C   UNL     1       6.112   5.914  18.212  0.00  0.00    +0.000 A 
ATOM      3  C   UNL     1       5.267   5.025  17.516  0.00  0.00    +0.000 A 
ATOM      4  C   UNL     1       5.604   4.747  16.151  0.00  0.00    +0.000 A 
ATOM      5  C   UNL     1       4.883   3.875  15.287  0.00  0.00    +0.000 A 
ATOM      6  C   UNL     1       5.272   3.616  13.977  0.00  0.00    +0.000 A 
ATOM      7  C   UNL     1       6.402   4.230  13.476  0.00  0.00    +0.000 A 
ATOM      8  C   UNL     1       7.123   5.108  14.292  0.00  0.00    +0.000 A 
ATOM      9  C   UNL     1       6.759   5.391  15.605  0.00  0.00    +0.000 A 
ATOM     10  N   UNL     1       7.530   6.256  16.288  0.00  0.00    +0.000 NA
ENDROOT
BRANCH   3  11
ATOM     11  C   UNL     1       4.046   4.416  18.257  0.00  0.00    +0.000 C 
ATOM     12  C   UNL     1       4.109   2.848  18.367  0.00  0.00    +0.000 C 
ATOM     13  C   UNL     1       2.899   2.265  19.113  0.00  0.00    +0.000 C 
ATOM     14  C   UNL     1       2.860   2.844  20.533  0.00  0.00    +0.000 C 
ATOM     15  C   UNL     1       2.756   4.372  20.465  0.00  0.00    +0.000 C 
ATOM     16  C   UNL     1       1.481   4.764  19.703  0.00  0.00    +0.000 C 
ATOM     17  C   UNL     1       1.499   4.171  18.284  0.00  0.00    +0.000 C 
ATOM     18  C   UNL     1       1.615   2.644  18.365  0.00  0.00    +0.000 C 
ATOM     19  C   UNL     1       2.710   4.723  17.511  0.00  0.00    +0.000 C 
ATOM     20  C   UNL     1       3.986   4.928  19.728  0.00  0.00    +0.000 C 
ENDBRANCH   3  11
BRANCH   1  22
ATOM     21  N   UNL     1       8.202   8.696  17.881  0.00  0.00    +0.000 N 
ATOM     22  C   UNL     1       8.084   7.413  18.376  0.00  0.00    +0.000 C 
ATOM     23  O   UNL     1       8.645   7.028  19.398  0.00  0.00    +0.000 OA
ATOM     24  H   UNL     1       7.675   8.989  17.063  0.00  0.00    +0.000 HD
BRANCH  21  25
ATOM     25  N   UNL     1       9.196   9.538  18.386  0.00  0.00    +0.000 N 
ATOM     26  H   UNL     1      10.083   9.095  18.617  0.00  0.00    +0.000 HD
BRANCH  25  27
ATOM     27  C   UNL     1       8.967  10.808  18.821  0.00  0.00    +0.000 C 
ATOM     28  S   UNL     1       9.182  11.185  20.433  0.00  0.00    +0.000 S 
BRANCH  27  29
ATOM     29  N   UNL     1       8.580  11.785  17.958  0.00  0.00    +0.000 N 
ATOM     30  H   UNL     1       7.577  11.846  17.831  0.00  0.00    +0.000 HD
BRANCH  29  31
ATOM     31  C   UNL     1       9.365  12.945  17.606  0.00  0.00    +0.000 C 
BRANCH  31  33
ATOM     32  C   UNL     1      11.681  13.453  16.871  0.00  0.00    +0.000 C 
ATOM     33  C   UNL     1      10.758  12.556  17.248  0.00  0.00    +0.000 C 
ENDBRANCH  31  33
ENDBRANCH  29  31
ENDBRANCH  27  29
ENDBRANCH  25  27
ENDBRANCH  21  25
ENDBRANCH   1  22
TORSDOF 7
ENDMDL
