MODEL 1
REMARK VINA RESULT:      -8.0      0.000      0.000
REMARK  Name = 
REMARK  7 active torsions:
REMARK  status: ('A' for Active; 'I' for Inactive)
REMARK    1  A    between atoms: C_5  and  N_6
REMARK    2  A    between atoms: N_6  and  C_7
REMARK    3  A    between atoms: C_10  and  N_11
REMARK    4  A    between atoms: C_20  and  C_21
REMARK    5  A    between atoms: N_24  and  C_25
REMARK    6  A    between atoms: C_25  and  C_26
REMARK    7  A    between atoms: C_26  and  N_27
REMARK                            x       y       z     vdW  Elec       q    Type
REMARK                         _______ _______ _______ _____ _____    ______ ____
ROOT
ATOM      1  F   UNL     1      -0.506  13.451  17.831  0.00  0.00    +0.000 F 
ATOM      2  C   UNL     1      -0.213  12.350  18.537  0.00  0.00    +0.000 A 
ATOM      3  C   UNL     1       0.917  12.336  19.328  0.00  0.00    +0.000 A 
ATOM      4  N   UNL     1       1.308  11.270  20.061  0.00  0.00    +0.000 NA
ATOM      5  C   UNL     1       0.527  10.169  20.041  0.00  0.00    +0.000 A 
ATOM      6  C   UNL     1      -0.639  10.115  19.282  0.00  0.00    +0.000 A 
ATOM      7  C   UNL     1      -1.013  11.214  18.497  0.00  0.00    +0.000 A 
ENDROOT
BRANCH   7   8
ATOM      8  C   UNL     1      -2.191  11.132  17.639  0.00  0.00    +0.000 A 
ATOM      9  C   UNL     1      -2.407  10.259  16.541  0.00  0.00    +0.000 A 
ATOM     10  C   UNL     1      -3.670  10.540  16.086  0.00  0.00    +0.000 A 
ATOM     11  N   UNL     1      -4.156  11.514  16.909  0.00  0.00    +0.000 N 
ATOM     12  N   UNL     1      -3.283  11.887  17.863  0.00  0.00    +0.000 NA
BRANCH  11  13
ATOM     13  C   UNL     1      -5.545  11.925  16.975  0.00  0.00    +0.000 C 
BRANCH  13  14
ATOM     14  C   UNL     1      -6.337  11.400  18.180  0.00  0.00    +0.000 C 
BRANCH  14  15
ATOM     15  N   UNL     1      -6.925  12.496  18.994  0.00  0.00    +0.000 NA
ATOM     16  C   UNL     1      -5.879  13.251  19.725  0.00  0.00    +0.000 C 
ATOM     17  C   UNL     1      -5.291  12.499  20.934  0.00  0.00    +0.000 C 
ATOM     18  O   UNL     1      -6.314  12.088  21.847  0.00  0.00    +0.000 OA
ATOM     19  C   UNL     1      -7.298  11.283  21.184  0.00  0.00    +0.000 C 
ATOM     20  C   UNL     1      -7.916  12.035  19.996  0.00  0.00    +0.000 C 
ENDBRANCH  14  15
ENDBRANCH  13  14
ENDBRANCH  11  13
ENDBRANCH   7   8
BRANCH   5  21
ATOM     21  N   UNL     1       0.890   9.023  20.771  0.00  0.00    +0.000 N 
ATOM     22  H   UNL     1       1.069   9.242  21.743  0.00  0.00    +0.000 HD
BRANCH  21  23
ATOM     23  C   UNL     1       1.576   7.895  20.296  0.00  0.00    +0.000 A 
ATOM     24  C   UNL     1       1.639   6.733  21.069  0.00  0.00    +0.000 A 
ATOM     25  C   UNL     1       2.226   5.568  20.560  0.00  0.00    +0.000 A 
ATOM     26  C   UNL     1       2.739   5.502  19.258  0.00  0.00    +0.000 A 
ATOM     27  C   UNL     1       2.713   6.685  18.515  0.00  0.00    +0.000 A 
ATOM     28  C   UNL     1       2.151   7.864  19.024  0.00  0.00    +0.000 A 
BRANCH  26  29
ATOM     29  N   UNL     1       3.175   4.310  18.725  0.00  0.00    +0.000 N 
ATOM     30  C   UNL     1       2.704   3.808  17.428  0.00  0.00    +0.000 C 
ATOM     31  C   UNL     1       2.463   2.291  17.535  0.00  0.00    +0.000 C 
ATOM     32  O   UNL     1       3.624   1.591  18.013  0.00  0.00    +0.000 OA
ATOM     33  C   UNL     1       4.009   2.087  19.308  0.00  0.00    +0.000 C 
ATOM     34  C   UNL     1       4.340   3.585  19.256  0.00  0.00    +0.000 C 
ENDBRANCH  26  29
ENDBRANCH  21  23
ENDBRANCH   5  21
TORSDOF 7
ENDMDL
MODEL 2
REMARK VINA RESULT:      -8.0      2.994     10.888
REMARK  Name = 
REMARK  7 active torsions:
REMARK  status: ('A' for Active; 'I' for Inactive)
REMARK    1  A    between atoms: C_5  and  N_6
REMARK    2  A    between atoms: N_6  and  C_7
REMARK    3  A    between atoms: C_10  and  N_11
REMARK    4  A    between atoms: C_20  and  C_21
REMARK    5  A    between atoms: N_24  and  C_25
REMARK    6  A    between atoms: C_25  and  C_26
REMARK    7  A    between atoms: C_26  and  N_27
REMARK                            x       y       z     vdW  Elec       q    Type
REMARK                         _______ _______ _______ _____ _____    ______ ____
ROOT
ATOM      1  F   UNL     1       2.142   8.223  17.315  0.00  0.00    +0.000 F 
ATOM      2  C   UNL     1       1.720   8.902  18.391  0.00  0.00    +0.000 A 
ATOM      3  C   UNL     1       1.325  10.217  18.248  0.00  0.00    +0.000 A 
ATOM      4  N   UNL     1       0.902  10.989  19.273  0.00  0.00    +0.000 NA
ATOM      5  C   UNL     1       0.831  10.429  20.500  0.00  0.00    +0.000 A 
ATOM      6  C   UNL     1       1.193   9.102  20.718  0.00  0.00    +0.000 A 
ATOM      7  C   UNL     1       1.666   8.323  19.654  0.00  0.00    +0.000 A 
ENDROOT
BRANCH   7   8
ATOM      8  C   UNL     1       2.120   6.957  19.894  0.00  0.00    +0.000 A 
ATOM      9  C   UNL     1       1.540   5.987  20.752  0.00  0.00    +0.000 A 
ATOM     10  C   UNL     1       2.304   4.857  20.606  0.00  0.00    +0.000 A 
ATOM     11  N   UNL     1       3.261   5.170  19.685  0.00  0.00    +0.000 N 
ATOM     12  N   UNL     1       3.170   6.434  19.232  0.00  0.00    +0.000 NA
BRANCH  11  13
ATOM     13  C   UNL     1       4.117   4.205  19.020  0.00  0.00    +0.000 C 
BRANCH  13  14
ATOM     14  C   UNL     1       4.529   4.560  17.585  0.00  0.00    +0.000 C 
BRANCH  14  15
ATOM     15  N   UNL     1       5.849   3.987  17.215  0.00  0.00    +0.000 NA
ATOM     16  C   UNL     1       6.966   4.798  17.757  0.00  0.00    +0.000 C 
ATOM     17  C   UNL     1       7.194   6.127  17.013  0.00  0.00    +0.000 C 
ATOM     18  O   UNL     1       7.389   5.919  15.610  0.00  0.00    +0.000 OA
ATOM     19  C   UNL     1       6.280   5.209  15.041  0.00  0.00    +0.000 C 
ATOM     20  C   UNL     1       6.063   3.865  15.753  0.00  0.00    +0.000 C 
ENDBRANCH  14  15
ENDBRANCH  13  14
ENDBRANCH  11  13
ENDBRANCH   7   8
BRANCH   5  21
ATOM     21  N   UNL     1       0.413  11.187  21.607  0.00  0.00    +0.000 N 
ATOM     22  H   UNL     1       0.923  10.935  22.445  0.00  0.00    +0.000 HD
BRANCH  21  23
ATOM     23  C   UNL     1      -0.866  11.713  21.844  0.00  0.00    +0.000 A 
ATOM     24  C   UNL     1      -1.601  12.272  20.796  0.00  0.00    +0.000 A 
ATOM     25  C   UNL     1      -2.919  12.700  20.998  0.00  0.00    +0.000 A 
ATOM     26  C   UNL     1      -3.566  12.558  22.232  0.00  0.00    +0.000 A 
ATOM     27  C   UNL     1      -2.802  12.043  23.283  0.00  0.00    +0.000 A 
ATOM     28  C   UNL     1      -1.474  11.636  23.098  0.00  0.00    +0.000 A 
BRANCH  26  29
ATOM     29  N   UNL     1      -4.906  12.846  22.371  0.00  0.00    +0.000 N 
ATOM     30  C   UNL     1      -5.481  13.320  23.636  0.00  0.00    +0.000 C 
ATOM     31  C   UNL     1      -6.837  12.626  23.862  0.00  0.00    +0.000 C 
ATOM     32  O   UNL     1      -7.726  12.800  22.746  0.00  0.00    +0.000 OA
ATOM     33  C   UNL     1      -7.133  12.271  21.546  0.00  0.00    +0.000 C 
ATOM     34  C   UNL     1      -5.810  12.978  21.219  0.00  0.00    +0.000 C 
ENDBRANCH  26  29
ENDBRANCH  21  23
ENDBRANCH   5  21
TORSDOF 7
ENDMDL
MODEL 3
REMARK VINA RESULT:      -7.9      3.169     10.841
REMARK  Name = 
REMARK  7 active torsions:
REMARK  status: ('A' for Active; 'I' for Inactive)
REMARK    1  A    between atoms: C_5  and  N_6
REMARK    2  A    between atoms: N_6  and  C_7
REMARK    3  A    between atoms: C_10  and  N_11
REMARK    4  A    between atoms: C_20  and  C_21
REMARK    5  A    between atoms: N_24  and  C_25
REMARK    6  A    between atoms: C_25  and  C_26
REMARK    7  A    between atoms: C_26  and  N_27
REMARK                            x       y       z     vdW  Elec       q    Type
REMARK                         _______ _______ _______ _____ _____    ______ ____
ROOT
ATOM      1  F   UNL     1       2.286   8.133  17.394  0.00  0.00    +0.000 F 
ATOM      2  C   UNL     1       1.804   8.839  18.427  0.00  0.00    +0.000 A 
ATOM      3  C   UNL     1       1.439  10.156  18.233  0.00  0.00    +0.000 A 
ATOM      4  N   UNL     1       0.961  10.954  19.212  0.00  0.00    +0.000 NA
ATOM      5  C   UNL     1       0.801  10.420  20.442  0.00  0.00    +0.000 A 
ATOM      6  C   UNL     1       1.128   9.093  20.709  0.00  0.00    +0.000 A 
ATOM      7  C   UNL     1       1.658   8.286  19.694  0.00  0.00    +0.000 A 
ENDROOT
BRANCH   7   8
ATOM      8  C   UNL     1       2.076   6.920  19.990  0.00  0.00    +0.000 A 
ATOM      9  C   UNL     1       1.399   5.958  20.786  0.00  0.00    +0.000 A 
ATOM     10  C   UNL     1       2.168   4.823  20.730  0.00  0.00    +0.000 A 
ATOM     11  N   UNL     1       3.222   5.125  19.918  0.00  0.00    +0.000 N 
ATOM     12  N   UNL     1       3.188   6.387  19.450  0.00  0.00    +0.000 NA
BRANCH  11  13
ATOM     13  C   UNL     1       4.140   4.152  19.356  0.00  0.00    +0.000 C 
BRANCH  13  14
ATOM     14  C   UNL     1       5.575   4.645  19.131  0.00  0.00    +0.000 C 
BRANCH  14  15
ATOM     15  N   UNL     1       6.073   4.340  17.765  0.00  0.00    +0.000 NA
ATOM     16  C   UNL     1       7.395   4.963  17.515  0.00  0.00    +0.000 C 
ATOM     17  C   UNL     1       7.339   6.486  17.291  0.00  0.00    +0.000 C 
ATOM     18  O   UNL     1       6.439   6.829  16.231  0.00  0.00    +0.000 OA
ATOM     19  C   UNL     1       5.127   6.311  16.487  0.00  0.00    +0.000 C 
ATOM     20  C   UNL     1       5.166   4.787  16.680  0.00  0.00    +0.000 C 
ENDBRANCH  14  15
ENDBRANCH  13  14
ENDBRANCH  11  13
ENDBRANCH   7   8
BRANCH   5  21
ATOM     21  N   UNL     1       0.323  11.207  21.505  0.00  0.00    +0.000 N 
ATOM     22  H   UNL     1       0.874  11.074  22.344  0.00  0.00    +0.000 HD
BRANCH  21  23
ATOM     23  C   UNL     1      -1.002  11.604  21.739  0.00  0.00    +0.000 A 
ATOM     24  C   UNL     1      -1.545  11.520  23.024  0.00  0.00    +0.000 A 
ATOM     25  C   UNL     1      -2.827  12.014  23.291  0.00  0.00    +0.000 A 
ATOM     26  C   UNL     1      -3.603  12.639  22.306  0.00  0.00    +0.000 A 
ATOM     27  C   UNL     1      -3.068  12.671  21.015  0.00  0.00    +0.000 A 
ATOM     28  C   UNL     1      -1.795  12.156  20.732  0.00  0.00    +0.000 A 
BRANCH  26  29
ATOM     29  N   UNL     1      -4.797  13.250  22.621  0.00  0.00    +0.000 N 
ATOM     30  C   UNL     1      -5.307  13.318  23.996  0.00  0.00    +0.000 C 
ATOM     31  C   UNL     1      -6.824  13.057  23.981  0.00  0.00    +0.000 C 
ATOM     32  O   UNL     1      -7.517  13.943  23.086  0.00  0.00    +0.000 OA
ATOM     33  C   UNL     1      -7.013  13.795  21.746  0.00  0.00    +0.000 C 
ATOM     34  C   UNL     1      -5.514  14.118  21.675  0.00  0.00    +0.000 C 
ENDBRANCH  26  29
ENDBRANCH  21  23
ENDBRANCH   5  21
TORSDOF 7
ENDMDL
MODEL 4
REMARK VINA RESULT:      -7.7      3.033     10.908
REMARK  Name = 
REMARK  7 active torsions:
REMARK  status: ('A' for Active; 'I' for Inactive)
REMARK    1  A    between atoms: C_5  and  N_6
REMARK    2  A    between atoms: N_6  and  C_7
REMARK    3  A    between atoms: C_10  and  N_11
REMARK    4  A    between atoms: C_20  and  C_21
REMARK    5  A    between atoms: N_24  and  C_25
REMARK    6  A    between atoms: C_25  and  C_26
REMARK    7  A    between atoms: C_26  and  N_27
REMARK                            x       y       z     vdW  Elec       q    Type
REMARK                         _______ _______ _______ _____ _____    ______ ____
ROOT
ATOM      1  F   UNL     1       2.406   7.791  17.552  0.00  0.00    +0.000 F 
ATOM      2  C   UNL     1       1.917   8.403  18.640  0.00  0.00    +0.000 A 
ATOM      3  C   UNL     1       1.538   9.727  18.557  0.00  0.00    +0.000 A 
ATOM      4  N   UNL     1       1.053  10.436  19.600  0.00  0.00    +0.000 NA
ATOM      5  C   UNL     1       0.900   9.799  20.781  0.00  0.00    +0.000 A 
ATOM      6  C   UNL     1       1.242   8.459  20.936  0.00  0.00    +0.000 A 
ATOM      7  C   UNL     1       1.780   7.745  19.857  0.00  0.00    +0.000 A 
ENDROOT
BRANCH   7   8
ATOM      8  C   UNL     1       2.213   6.363  20.038  0.00  0.00    +0.000 A 
ATOM      9  C   UNL     1       1.480   5.292  20.613  0.00  0.00    +0.000 A 
ATOM     10  C   UNL     1       2.297   4.193  20.523  0.00  0.00    +0.000 A 
ATOM     11  N   UNL     1       3.433   4.622  19.902  0.00  0.00    +0.000 N 
ATOM     12  N   UNL     1       3.407   5.931  19.591  0.00  0.00    +0.000 NA
BRANCH  11  13
ATOM     13  C   UNL     1       4.456   3.752  19.354  0.00  0.00    +0.000 C 
BRANCH  13  14
ATOM     14  C   UNL     1       5.611   4.456  18.629  0.00  0.00    +0.000 C 
BRANCH  14  15
ATOM     15  N   UNL     1       5.177   5.099  17.362  0.00  0.00    +0.000 NA
ATOM     16  C   UNL     1       5.604   4.314  16.179  0.00  0.00    +0.000 C 
ATOM     17  C   UNL     1       7.108   4.418  15.865  0.00  0.00    +0.000 C 
ATOM     18  O   UNL     1       7.519   5.781  15.709  0.00  0.00    +0.000 OA
ATOM     19  C   UNL     1       7.195   6.549  16.876  0.00  0.00    +0.000 C 
ATOM     20  C   UNL     1       5.691   6.478  17.181  0.00  0.00    +0.000 C 
ENDBRANCH  14  15
ENDBRANCH  13  14
ENDBRANCH  11  13
ENDBRANCH   7   8
BRANCH   5  21
ATOM     21  N   UNL     1       0.415  10.489  21.906  0.00  0.00    +0.000 N 
ATOM     22  H   UNL     1       0.687  10.034  22.768  0.00  0.00    +0.000 HD
BRANCH  21  23
ATOM     23  C   UNL     1      -0.764  11.244  21.997  0.00  0.00    +0.000 A 
ATOM     24  C   UNL     1      -1.297  11.856  20.860  0.00  0.00    +0.000 A 
ATOM     25  C   UNL     1      -2.529  12.520  20.917  0.00  0.00    +0.000 A 
ATOM     26  C   UNL     1      -3.292  12.570  22.090  0.00  0.00    +0.000 A 
ATOM     27  C   UNL     1      -2.724  11.996  23.231  0.00  0.00    +0.000 A 
ATOM     28  C   UNL     1      -1.479  11.353  23.191  0.00  0.00    +0.000 A 
BRANCH  26  29
ATOM     29  N   UNL     1      -4.564  13.096  22.090  0.00  0.00    +0.000 N 
ATOM     30  C   UNL     1      -4.953  14.218  22.954  0.00  0.00    +0.000 C 
ATOM     31  C   UNL     1      -6.358  13.949  23.523  0.00  0.00    +0.000 C 
ATOM     32  O   UNL     1      -7.320  13.685  22.488  0.00  0.00    +0.000 OA
ATOM     33  C   UNL     1      -6.915  12.546  21.708  0.00  0.00    +0.000 C 
ATOM     34  C   UNL     1      -5.550  12.780  21.045  0.00  0.00    +0.000 C 
ENDBRANCH  26  29
ENDBRANCH  21  23
ENDBRANCH   5  21
TORSDOF 7
ENDMDL
MODEL 5
REMARK VINA RESULT:      -7.6      3.244     10.971
REMARK  Name = 
REMARK  7 active torsions:
REMARK  status: ('A' for Active; 'I' for Inactive)
REMARK    1  A    between atoms: C_5  and  N_6
REMARK    2  A    between atoms: N_6  and  C_7
REMARK    3  A    between atoms: C_10  and  N_11
REMARK    4  A    between atoms: C_20  and  C_21
REMARK    5  A    between atoms: N_24  and  C_25
REMARK    6  A    between atoms: C_25  and  C_26
REMARK    7  A    between atoms: C_26  and  N_27
REMARK                            x       y       z     vdW  Elec       q    Type
REMARK                         _______ _______ _______ _____ _____    ______ ____
ROOT
ATOM      1  F   UNL     1       2.404   7.815  17.435  0.00  0.00    +0.000 F 
ATOM      2  C   UNL     1       1.931   8.484  18.497  0.00  0.00    +0.000 A 
ATOM      3  C   UNL     1       1.568   9.808  18.354  0.00  0.00    +0.000 A 
ATOM      4  N   UNL     1       1.100  10.571  19.366  0.00  0.00    +0.000 NA
ATOM      5  C   UNL     1       0.947   9.992  20.576  0.00  0.00    +0.000 A 
ATOM      6  C   UNL     1       1.272   8.656  20.792  0.00  0.00    +0.000 A 
ATOM      7  C   UNL     1       1.793   7.885  19.744  0.00  0.00    +0.000 A 
ENDROOT
BRANCH   7   8
ATOM      8  C   UNL     1       2.209   6.507  19.986  0.00  0.00    +0.000 A 
ATOM      9  C   UNL     1       1.490   5.490  20.667  0.00  0.00    +0.000 A 
ATOM     10  C   UNL     1       2.279   4.370  20.600  0.00  0.00    +0.000 A 
ATOM     11  N   UNL     1       3.386   4.735  19.891  0.00  0.00    +0.000 N 
ATOM     12  N   UNL     1       3.367   6.022  19.501  0.00  0.00    +0.000 NA
BRANCH  11  13
ATOM     13  C   UNL     1       4.360   3.809  19.342  0.00  0.00    +0.000 C 
BRANCH  13  14
ATOM     14  C   UNL     1       5.547   4.449  18.610  0.00  0.00    +0.000 C 
BRANCH  14  15
ATOM     15  N   UNL     1       5.154   5.056  17.312  0.00  0.00    +0.000 NA
ATOM     16  C   UNL     1       5.641   4.251  16.166  0.00  0.00    +0.000 C 
ATOM     17  C   UNL     1       7.154   4.377  15.909  0.00  0.00    +0.000 C 
ATOM     18  O   UNL     1       7.548   5.743  15.739  0.00  0.00    +0.000 OA
ATOM     19  C   UNL     1       7.164   6.530  16.874  0.00  0.00    +0.000 C 
ATOM     20  C   UNL     1       5.650   6.439  17.120  0.00  0.00    +0.000 C 
ENDBRANCH  14  15
ENDBRANCH  13  14
ENDBRANCH  11  13
ENDBRANCH   7   8
BRANCH   5  21
ATOM     21  N   UNL     1       0.478  10.740  21.671  0.00  0.00    +0.000 N 
ATOM     22  H   UNL     1       0.930  10.462  22.533  0.00  0.00    +0.000 HD
BRANCH  21  23
ATOM     23  C   UNL     1      -0.801  11.290  21.839  0.00  0.00    +0.000 A 
ATOM     24  C   UNL     1      -1.416  11.268  23.093  0.00  0.00    +0.000 A 
ATOM     25  C   UNL     1      -2.645  11.910  23.297  0.00  0.00    +0.000 A 
ATOM     26  C   UNL     1      -3.289  12.623  22.278  0.00  0.00    +0.000 A 
ATOM     27  C   UNL     1      -2.686  12.594  21.017  0.00  0.00    +0.000 A 
ATOM     28  C   UNL     1      -1.470  11.933  20.796  0.00  0.00    +0.000 A 
BRANCH  26  29
ATOM     29  N   UNL     1      -4.417  13.369  22.535  0.00  0.00    +0.000 N 
ATOM     30  C   UNL     1      -5.723  13.052  21.943  0.00  0.00    +0.000 C 
ATOM     31  C   UNL     1      -6.412  14.362  21.519  0.00  0.00    +0.000 C 
ATOM     32  O   UNL     1      -6.507  15.299  22.604  0.00  0.00    +0.000 OA
ATOM     33  C   UNL     1      -5.197  15.613  23.109  0.00  0.00    +0.000 C 
ATOM     34  C   UNL     1      -4.481  14.356  23.624  0.00  0.00    +0.000 C 
ENDBRANCH  26  29
ENDBRANCH  21  23
ENDBRANCH   5  21
TORSDOF 7
ENDMDL
MODEL 6
REMARK VINA RESULT:      -7.6      2.235     10.395
REMARK  Name = 
REMARK  7 active torsions:
REMARK  status: ('A' for Active; 'I' for Inactive)
REMARK    1  A    between atoms: C_5  and  N_6
REMARK    2  A    between atoms: N_6  and  C_7
REMARK    3  A    between atoms: C_10  and  N_11
REMARK    4  A    between atoms: C_20  and  C_21
REMARK    5  A    between atoms: N_24  and  C_25
REMARK    6  A    between atoms: C_25  and  C_26
REMARK    7  A    between atoms: C_26  and  N_27
REMARK                            x       y       z     vdW  Elec       q    Type
REMARK                         _______ _______ _______ _____ _____    ______ ____
ROOT
ATOM      1  F   UNL     1       2.678  11.817  18.757  0.00  0.00    +0.000 F 
ATOM      2  C   UNL     1       1.344  11.790  18.622  0.00  0.00    +0.000 A 
ATOM      3  C   UNL     1       0.677  12.947  18.272  0.00  0.00    +0.000 A 
ATOM      4  N   UNL     1      -0.665  13.026  18.131  0.00  0.00    +0.000 NA
ATOM      5  C   UNL     1      -1.387  11.899  18.310  0.00  0.00    +0.000 A 
ATOM      6  C   UNL     1      -0.782  10.690  18.644  0.00  0.00    +0.000 A 
ATOM      7  C   UNL     1       0.606  10.630  18.825  0.00  0.00    +0.000 A 
ENDROOT
BRANCH   7   8
ATOM      8  C   UNL     1       1.234   9.384  19.253  0.00  0.00    +0.000 A 
ATOM      9  C   UNL     1       1.139   8.755  20.522  0.00  0.00    +0.000 A 
ATOM     10  C   UNL     1       1.870   7.598  20.419  0.00  0.00    +0.000 A 
ATOM     11  N   UNL     1       2.338   7.566  19.138  0.00  0.00    +0.000 N 
ATOM     12  N   UNL     1       1.962   8.632  18.407  0.00  0.00    +0.000 NA
BRANCH  11  13
ATOM     13  C   UNL     1       2.928   6.403  18.502  0.00  0.00    +0.000 C 
BRANCH  13  14
ATOM     14  C   UNL     1       3.487   5.337  19.453  0.00  0.00    +0.000 C 
BRANCH  14  15
ATOM     15  N   UNL     1       3.070   3.962  19.074  0.00  0.00    +0.000 NA
ATOM     16  C   UNL     1       1.603   3.872  18.878  0.00  0.00    +0.000 C 
ATOM     17  C   UNL     1       0.793   3.892  20.187  0.00  0.00    +0.000 C 
ATOM     18  O   UNL     1       1.221   2.863  21.087  0.00  0.00    +0.000 OA
ATOM     19  C   UNL     1       2.624   2.977  21.362  0.00  0.00    +0.000 C 
ATOM     20  C   UNL     1       3.445   2.925  20.065  0.00  0.00    +0.000 C 
ENDBRANCH  14  15
ENDBRANCH  13  14
ENDBRANCH  11  13
ENDBRANCH   7   8
BRANCH   5  21
ATOM     21  N   UNL     1      -2.788  11.923  18.191  0.00  0.00    +0.000 N 
ATOM     22  H   UNL     1      -3.079  12.213  17.266  0.00  0.00    +0.000 HD
BRANCH  21  23
ATOM     23  C   UNL     1      -3.722  12.193  19.203  0.00  0.00    +0.000 A 
ATOM     24  C   UNL     1      -3.310  12.782  20.401  0.00  0.00    +0.000 A 
ATOM     25  C   UNL     1      -4.247  13.155  21.372  0.00  0.00    +0.000 A 
ATOM     26  C   UNL     1      -5.625  12.991  21.177  0.00  0.00    +0.000 A 
ATOM     27  C   UNL     1      -6.018  12.357  19.996  0.00  0.00    +0.000 A 
ATOM     28  C   UNL     1      -5.086  11.956  19.029  0.00  0.00    +0.000 A 
BRANCH  26  29
ATOM     29  N   UNL     1      -6.536  13.499  22.076  0.00  0.00    +0.000 N 
ATOM     30  C   UNL     1      -6.855  14.930  22.150  0.00  0.00    +0.000 C 
ATOM     31  C   UNL     1      -6.974  15.341  23.629  0.00  0.00    +0.000 C 
ATOM     32  O   UNL     1      -7.917  14.524  24.344  0.00  0.00    +0.000 OA
ATOM     33  C   UNL     1      -7.526  13.140  24.282  0.00  0.00    +0.000 C 
ATOM     34  C   UNL     1      -7.463  12.642  22.831  0.00  0.00    +0.000 C 
ENDBRANCH  26  29
ENDBRANCH  21  23
ENDBRANCH   5  21
TORSDOF 7
ENDMDL
MODEL 7
REMARK VINA RESULT:      -7.6      2.986     11.015
REMARK  Name = 
REMARK  7 active torsions:
REMARK  status: ('A' for Active; 'I' for Inactive)
REMARK    1  A    between atoms: C_5  and  N_6
REMARK    2  A    between atoms: N_6  and  C_7
REMARK    3  A    between atoms: C_10  and  N_11
REMARK    4  A    between atoms: C_20  and  C_21
REMARK    5  A    between atoms: N_24  and  C_25
REMARK    6  A    between atoms: C_25  and  C_26
REMARK    7  A    between atoms: C_26  and  N_27
REMARK                            x       y       z     vdW  Elec       q    Type
REMARK                         _______ _______ _______ _____ _____    ______ ____
ROOT
ATOM      1  F   UNL     1       2.455   7.781  17.517  0.00  0.00    +0.000 F 
ATOM      2  C   UNL     1       1.937   8.370  18.605  0.00  0.00    +0.000 A 
ATOM      3  C   UNL     1       1.535   9.688  18.532  0.00  0.00    +0.000 A 
ATOM      4  N   UNL     1       1.019  10.374  19.575  0.00  0.00    +0.000 NA
ATOM      5  C   UNL     1       0.858   9.720  20.745  0.00  0.00    +0.000 A 
ATOM      6  C   UNL     1       1.222   8.383  20.890  0.00  0.00    +0.000 A 
ATOM      7  C   UNL     1       1.790   7.693  19.811  0.00  0.00    +0.000 A 
ENDROOT
BRANCH   7   8
ATOM      8  C   UNL     1       2.245   6.317  19.981  0.00  0.00    +0.000 A 
ATOM      9  C   UNL     1       1.543   5.239  20.580  0.00  0.00    +0.000 A 
ATOM     10  C   UNL     1       2.370   4.150  20.468  0.00  0.00    +0.000 A 
ATOM     11  N   UNL     1       3.482   4.591  19.812  0.00  0.00    +0.000 N 
ATOM     12  N   UNL     1       3.431   5.899  19.500  0.00  0.00    +0.000 NA
BRANCH  11  13
ATOM     13  C   UNL     1       4.499   3.732  19.236  0.00  0.00    +0.000 C 
BRANCH  13  14
ATOM     14  C   UNL     1       4.634   3.794  17.709  0.00  0.00    +0.000 C 
BRANCH  14  15
ATOM     15  N   UNL     1       5.221   5.076  17.242  0.00  0.00    +0.000 NA
ATOM     16  C   UNL     1       5.426   5.079  15.773  0.00  0.00    +0.000 C 
ATOM     17  C   UNL     1       6.615   4.220  15.304  0.00  0.00    +0.000 C 
ATOM     18  O   UNL     1       7.830   4.600  15.959  0.00  0.00    +0.000 OA
ATOM     19  C   UNL     1       7.687   4.525  17.384  0.00  0.00    +0.000 C 
ATOM     20  C   UNL     1       6.524   5.405  17.868  0.00  0.00    +0.000 C 
ENDBRANCH  14  15
ENDBRANCH  13  14
ENDBRANCH  11  13
ENDBRANCH   7   8
BRANCH   5  21
ATOM     21  N   UNL     1       0.341  10.386  21.870  0.00  0.00    +0.000 N 
ATOM     22  H   UNL     1       0.494   9.857  22.720  0.00  0.00    +0.000 HD
BRANCH  21  23
ATOM     23  C   UNL     1      -0.768  11.244  21.915  0.00  0.00    +0.000 A 
ATOM     24  C   UNL     1      -1.193  11.904  20.760  0.00  0.00    +0.000 A 
ATOM     25  C   UNL     1      -2.361  12.676  20.767  0.00  0.00    +0.000 A 
ATOM     26  C   UNL     1      -3.167  12.793  21.907  0.00  0.00    +0.000 A 
ATOM     27  C   UNL     1      -2.703  12.168  23.068  0.00  0.00    +0.000 A 
ATOM     28  C   UNL     1      -1.521  11.415  23.078  0.00  0.00    +0.000 A 
BRANCH  26  29
ATOM     29  N   UNL     1      -4.386  13.432  21.855  0.00  0.00    +0.000 N 
ATOM     30  C   UNL     1      -5.659  12.701  21.878  0.00  0.00    +0.000 C 
ATOM     31  C   UNL     1      -6.627  13.349  20.871  0.00  0.00    +0.000 C 
ATOM     32  O   UNL     1      -6.791  14.758  21.107  0.00  0.00    +0.000 OA
ATOM     33  C   UNL     1      -5.521  15.429  21.020  0.00  0.00    +0.000 C 
ATOM     34  C   UNL     1      -4.528  14.882  22.056  0.00  0.00    +0.000 C 
ENDBRANCH  26  29
ENDBRANCH  21  23
ENDBRANCH   5  21
TORSDOF 7
ENDMDL
MODEL 8
REMARK VINA RESULT:      -7.4      3.762     11.171
REMARK  Name = 
REMARK  7 active torsions:
REMARK  status: ('A' for Active; 'I' for Inactive)
REMARK    1  A    between atoms: C_5  and  N_6
REMARK    2  A    between atoms: N_6  and  C_7
REMARK    3  A    between atoms: C_10  and  N_11
REMARK    4  A    between atoms: C_20  and  C_21
REMARK    5  A    between atoms: N_24  and  C_25
REMARK    6  A    between atoms: C_25  and  C_26
REMARK    7  A    between atoms: C_26  and  N_27
REMARK                            x       y       z     vdW  Elec       q    Type
REMARK                         _______ _______ _______ _____ _____    ______ ____
ROOT
ATOM      1  F   UNL     1       2.120   7.905  17.715  0.00  0.00    +0.000 F 
ATOM      2  C   UNL     1       1.703   8.486  18.850  0.00  0.00    +0.000 A 
ATOM      3  C   UNL     1       1.309   9.809  18.825  0.00  0.00    +0.000 A 
ATOM      4  N   UNL     1       0.892  10.488  19.917  0.00  0.00    +0.000 NA
ATOM      5  C   UNL     1       0.827   9.822  21.089  0.00  0.00    +0.000 A 
ATOM      6  C   UNL     1       1.189   8.481  21.188  0.00  0.00    +0.000 A 
ATOM      7  C   UNL     1       1.655   7.798  20.057  0.00  0.00    +0.000 A 
ENDROOT
BRANCH   7   8
ATOM      8  C   UNL     1       2.110   6.416  20.173  0.00  0.00    +0.000 A 
ATOM      9  C   UNL     1       1.408   5.315  20.730  0.00  0.00    +0.000 A 
ATOM     10  C   UNL     1       2.235   4.231  20.575  0.00  0.00    +0.000 A 
ATOM     11  N   UNL     1       3.346   4.698  19.936  0.00  0.00    +0.000 N 
ATOM     12  N   UNL     1       3.295   6.017  19.674  0.00  0.00    +0.000 NA
BRANCH  11  13
ATOM     13  C   UNL     1       4.363   3.861  19.325  0.00  0.00    +0.000 C 
BRANCH  13  14
ATOM     14  C   UNL     1       5.532   4.608  18.668  0.00  0.00    +0.000 C 
BRANCH  14  15
ATOM     15  N   UNL     1       5.146   5.252  17.386  0.00  0.00    +0.000 NA
ATOM     16  C   UNL     1       5.574   4.443  16.220  0.00  0.00    +0.000 C 
ATOM     17  C   UNL     1       7.087   4.500  15.938  0.00  0.00    +0.000 C 
ATOM     18  O   UNL     1       7.543   5.849  15.780  0.00  0.00    +0.000 OA
ATOM     19  C   UNL     1       7.216   6.636  16.934  0.00  0.00    +0.000 C 
ATOM     20  C   UNL     1       5.704   6.613  17.206  0.00  0.00    +0.000 C 
ENDBRANCH  14  15
ENDBRANCH  13  14
ENDBRANCH  11  13
ENDBRANCH   7   8
BRANCH   5  21
ATOM     21  N   UNL     1       0.416  10.480  22.262  0.00  0.00    +0.000 N 
ATOM     22  H   UNL     1       0.484   9.876  23.071  0.00  0.00    +0.000 HD
BRANCH  21  23
ATOM     23  C   UNL     1      -0.548  11.493  22.374  0.00  0.00    +0.000 A 
ATOM     24  C   UNL     1      -1.768  11.236  23.006  0.00  0.00    +0.000 A 
ATOM     25  C   UNL     1      -2.692  12.267  23.220  0.00  0.00    +0.000 A 
ATOM     26  C   UNL     1      -2.427  13.591  22.849  0.00  0.00    +0.000 A 
ATOM     27  C   UNL     1      -1.225  13.824  22.175  0.00  0.00    +0.000 A 
ATOM     28  C   UNL     1      -0.305  12.795  21.932  0.00  0.00    +0.000 A 
BRANCH  26  29
ATOM     29  N   UNL     1      -3.281  14.613  23.201  0.00  0.00    +0.000 N 
ATOM     30  C   UNL     1      -2.816  15.825  23.888  0.00  0.00    +0.000 C 
ATOM     31  C   UNL     1      -3.839  16.209  24.973  0.00  0.00    +0.000 C 
ATOM     32  O   UNL     1      -5.167  16.345  24.441  0.00  0.00    +0.000 OA
ATOM     33  C   UNL     1      -5.589  15.114  23.827  0.00  0.00    +0.000 C 
ATOM     34  C   UNL     1      -4.652  14.712  22.679  0.00  0.00    +0.000 C 
ENDBRANCH  26  29
ENDBRANCH  21  23
ENDBRANCH   5  21
TORSDOF 7
ENDMDL
MODEL 9
REMARK VINA RESULT:      -7.3      1.020      1.486
REMARK  Name = 
REMARK  7 active torsions:
REMARK  status: ('A' for Active; 'I' for Inactive)
REMARK    1  A    between atoms: C_5  and  N_6
REMARK    2  A    between atoms: N_6  and  C_7
REMARK    3  A    between atoms: C_10  and  N_11
REMARK    4  A    between atoms: C_20  and  C_21
REMARK    5  A    between atoms: N_24  and  C_25
REMARK    6  A    between atoms: C_25  and  C_26
REMARK    7  A    between atoms: C_26  and  N_27
REMARK                            x       y       z     vdW  Elec       q    Type
REMARK                         _______ _______ _______ _____ _____    ______ ____
ROOT
ATOM      1  F   UNL     1      -0.894  14.001  18.884  0.00  0.00    +0.000 F 
ATOM      2  C   UNL     1      -0.496  12.847  19.439  0.00  0.00    +0.000 A 
ATOM      3  C   UNL     1       0.572  12.851  20.314  0.00  0.00    +0.000 A 
ATOM      4  N   UNL     1       1.059  11.740  20.908  0.00  0.00    +0.000 NA
ATOM      5  C   UNL     1       0.443  10.565  20.656  0.00  0.00    +0.000 A 
ATOM      6  C   UNL     1      -0.653  10.485  19.800  0.00  0.00    +0.000 A 
ATOM      7  C   UNL     1      -1.125  11.639  19.160  0.00  0.00    +0.000 A 
ENDROOT
BRANCH   7   8
ATOM      8  C   UNL     1      -2.222  11.546  18.202  0.00  0.00    +0.000 A 
ATOM      9  C   UNL     1      -2.162  11.107  16.853  0.00  0.00    +0.000 A 
ATOM     10  C   UNL     1      -3.451  11.166  16.386  0.00  0.00    +0.000 A 
ATOM     11  N   UNL     1      -4.208  11.598  17.435  0.00  0.00    +0.000 N 
ATOM     12  N   UNL     1      -3.491  11.830  18.549  0.00  0.00    +0.000 NA
BRANCH  11  13
ATOM     13  C   UNL     1      -5.658  11.550  17.484  0.00  0.00    +0.000 C 
BRANCH  13  14
ATOM     14  C   UNL     1      -6.259  10.861  18.716  0.00  0.00    +0.000 C 
BRANCH  14  15
ATOM     15  N   UNL     1      -7.377  11.637  19.312  0.00  0.00    +0.000 NA
ATOM     16  C   UNL     1      -7.328  13.061  18.905  0.00  0.00    +0.000 C 
ATOM     17  C   UNL     1      -6.224  13.877  19.602  0.00  0.00    +0.000 C 
ATOM     18  O   UNL     1      -6.325  13.789  21.028  0.00  0.00    +0.000 OA
ATOM     19  C   UNL     1      -6.289  12.422  21.459  0.00  0.00    +0.000 C 
ATOM     20  C   UNL     1      -7.407  11.605  20.794  0.00  0.00    +0.000 C 
ENDBRANCH  14  15
ENDBRANCH  13  14
ENDBRANCH  11  13
ENDBRANCH   7   8
BRANCH   5  21
ATOM     21  N   UNL     1       0.915   9.373  21.233  0.00  0.00    +0.000 N 
ATOM     22  H   UNL     1       1.365   9.543  22.124  0.00  0.00    +0.000 HD
BRANCH  21  23
ATOM     23  C   UNL     1       1.369   8.227  20.565  0.00  0.00    +0.000 A 
ATOM     24  C   UNL     1       1.990   8.339  19.318  0.00  0.00    +0.000 A 
ATOM     25  C   UNL     1       2.544   7.216  18.692  0.00  0.00    +0.000 A 
ATOM     26  C   UNL     1       2.534   5.950  19.293  0.00  0.00    +0.000 A 
ATOM     27  C   UNL     1       1.867   5.844  20.517  0.00  0.00    +0.000 A 
ATOM     28  C   UNL     1       1.286   6.957  21.139  0.00  0.00    +0.000 A 
BRANCH  26  29
ATOM     29  N   UNL     1       3.213   4.891  18.732  0.00  0.00    +0.000 N 
ATOM     30  C   UNL     1       4.495   5.057  18.037  0.00  0.00    +0.000 C 
ATOM     31  C   UNL     1       4.501   4.173  16.777  0.00  0.00    +0.000 C 
ATOM     32  O   UNL     1       4.206   2.799  17.079  0.00  0.00    +0.000 OA
ATOM     33  C   UNL     1       2.917   2.691  17.709  0.00  0.00    +0.000 C 
ATOM     34  C   UNL     1       2.868   3.490  19.019  0.00  0.00    +0.000 C 
ENDBRANCH  26  29
ENDBRANCH  21  23
ENDBRANCH   5  21
TORSDOF 7
ENDMDL
