MODEL 1
REMARK VINA RESULT:      -6.9      0.000      0.000
REMARK  Name = 
REMARK  6 active torsions:
REMARK  status: ('A' for Active; 'I' for Inactive)
REMARK    1  A    between atoms: C_2  and  C_3
REMARK    2  A    between atoms: C_3  and  C_4
REMARK    3  A    between atoms: C_3  and  N_5
REMARK    4  A    between atoms: N_8  and  C_9
REMARK    5  A    between atoms: N_8  and  C_10
REMARK    6  A    between atoms: C_10  and  C_11
REMARK                            x       y       z     vdW  Elec       q    Type
REMARK                         _______ _______ _______ _____ _____    ______ ____
ROOT
ATOM      1  N   UNL     1       7.096   4.944  14.818  0.00  0.00    +0.000 N 
ATOM      2  C   UNL     1       6.130   5.440  15.654  0.00  0.00    +0.000 C 
ATOM      3  O   UNL     1       5.113   5.974  15.225  0.00  0.00    +0.000 OA
ATOM      4  N   UNL     1       6.372   5.264  17.012  0.00  0.00    +0.000 N 
ATOM      5  C   UNL     1       7.534   4.607  17.598  0.00  0.00    +0.000 C 
ATOM      6  H   UNL     1       8.032   4.906  15.176  0.00  0.00    +0.000 HD
ENDROOT
BRANCH   1   7
ATOM      7  C   UNL     1       7.021   5.066  13.370  0.00  0.00    +0.000 C 
ATOM      8  C   UNL     1       8.359   5.550  12.803  0.00  0.00    +0.000 C 
BRANCH   7  10
ATOM      9  C   UNL     1       5.519   3.402  12.118  0.00  0.00    +0.000 C 
ATOM     10  C   UNL     1       6.579   3.707  12.881  0.00  0.00    +0.000 C 
ENDBRANCH   7  10
ENDBRANCH   1   7
BRANCH   4  11
ATOM     11  C   UNL     1       5.461   5.918  17.958  0.00  0.00    +0.000 C 
BRANCH  11  12
ATOM     12  C   UNL     1       4.287   5.098  18.455  0.00  0.00    +0.000 A 
ATOM     13  C   UNL     1       3.447   5.642  19.445  0.00  0.00    +0.000 A 
ATOM     14  C   UNL     1       2.285   4.979  19.849  0.00  0.00    +0.000 A 
ATOM     15  F   UNL     1       1.502   5.542  20.780  0.00  0.00    +0.000 F 
ATOM     16  C   UNL     1       1.933   3.766  19.280  0.00  0.00    +0.000 A 
ATOM     17  F   UNL     1       0.809   3.142  19.659  0.00  0.00    +0.000 F 
ATOM     18  C   UNL     1       2.750   3.214  18.302  0.00  0.00    +0.000 A 
ATOM     19  F   UNL     1       2.411   2.051  17.730  0.00  0.00    +0.000 F 
ATOM     20  C   UNL     1       3.916   3.870  17.887  0.00  0.00    +0.000 A 
ENDBRANCH  11  12
ENDBRANCH   4  11
TORSDOF 4
ENDMDL
MODEL 2
REMARK VINA RESULT:      -6.8      0.333      1.913
REMARK  Name = 
REMARK  6 active torsions:
REMARK  status: ('A' for Active; 'I' for Inactive)
REMARK    1  A    between atoms: C_2  and  C_3
REMARK    2  A    between atoms: C_3  and  C_4
REMARK    3  A    between atoms: C_3  and  N_5
REMARK    4  A    between atoms: N_8  and  C_9
REMARK    5  A    between atoms: N_8  and  C_10
REMARK    6  A    between atoms: C_10  and  C_11
REMARK                            x       y       z     vdW  Elec       q    Type
REMARK                         _______ _______ _______ _____ _____    ______ ____
ROOT
ATOM      1  N   UNL     1       7.196   5.027  14.774  0.00  0.00    +0.000 N 
ATOM      2  C   UNL     1       6.237   5.576  15.583  0.00  0.00    +0.000 C 
ATOM      3  O   UNL     1       5.290   6.210  15.129  0.00  0.00    +0.000 OA
ATOM      4  N   UNL     1       6.399   5.337  16.943  0.00  0.00    +0.000 N 
ATOM      5  C   UNL     1       7.472   4.564  17.557  0.00  0.00    +0.000 C 
ATOM      6  H   UNL     1       8.107   4.897  15.171  0.00  0.00    +0.000 HD
ENDROOT
BRANCH   1   7
ATOM      7  C   UNL     1       7.200   5.200  13.329  0.00  0.00    +0.000 C 
ATOM      8  C   UNL     1       8.559   5.724  12.856  0.00  0.00    +0.000 C 
BRANCH   7  10
ATOM      9  C   UNL     1       5.582   3.407  12.455  0.00  0.00    +0.000 C 
ATOM     10  C   UNL     1       6.808   3.854  12.767  0.00  0.00    +0.000 C 
ENDBRANCH   7  10
ENDBRANCH   1   7
BRANCH   4  11
ATOM     11  C   UNL     1       5.503   6.037  17.872  0.00  0.00    +0.000 C 
BRANCH  11  12
ATOM     12  C   UNL     1       4.184   5.360  18.189  0.00  0.00    +0.000 A 
ATOM     13  C   UNL     1       3.858   4.161  17.527  0.00  0.00    +0.000 A 
ATOM     14  C   UNL     1       2.715   3.435  17.872  0.00  0.00    +0.000 A 
ATOM     15  F   UNL     1       2.452   2.288  17.230  0.00  0.00    +0.000 F 
ATOM     16  C   UNL     1       1.873   3.883  18.877  0.00  0.00    +0.000 A 
ATOM     17  F   UNL     1       0.786   3.175  19.214  0.00  0.00    +0.000 F 
ATOM     18  C   UNL     1       2.179   5.063  19.541  0.00  0.00    +0.000 A 
ATOM     19  F   UNL     1       1.384   5.497  20.529  0.00  0.00    +0.000 F 
ATOM     20  C   UNL     1       3.324   5.798  19.207  0.00  0.00    +0.000 A 
ENDBRANCH  11  12
ENDBRANCH   4  11
TORSDOF 4
ENDMDL
MODEL 3
REMARK VINA RESULT:      -6.8      3.681      6.900
REMARK  Name = 
REMARK  6 active torsions:
REMARK  status: ('A' for Active; 'I' for Inactive)
REMARK    1  A    between atoms: C_2  and  C_3
REMARK    2  A    between atoms: C_3  and  C_4
REMARK    3  A    between atoms: C_3  and  N_5
REMARK    4  A    between atoms: N_8  and  C_9
REMARK    5  A    between atoms: N_8  and  C_10
REMARK    6  A    between atoms: C_10  and  C_11
REMARK                            x       y       z     vdW  Elec       q    Type
REMARK                         _______ _______ _______ _____ _____    ______ ____
ROOT
ATOM      1  N   UNL     1       3.118   4.905  18.680  0.00  0.00    +0.000 N 
ATOM      2  C   UNL     1       4.201   4.280  18.121  0.00  0.00    +0.000 C 
ATOM      3  O   UNL     1       4.464   3.105  18.354  0.00  0.00    +0.000 OA
ATOM      4  N   UNL     1       4.955   5.061  17.252  0.00  0.00    +0.000 N 
ATOM      5  C   UNL     1       4.688   6.448  16.894  0.00  0.00    +0.000 C 
ATOM      6  H   UNL     1       3.177   5.899  18.797  0.00  0.00    +0.000 HD
ENDROOT
BRANCH   1   7
ATOM      7  C   UNL     1       2.236   4.249  19.633  0.00  0.00    +0.000 C 
ATOM      8  C   UNL     1       1.726   5.253  20.671  0.00  0.00    +0.000 C 
BRANCH   7  10
ATOM      9  C   UNL     1       0.796   2.309  18.762  0.00  0.00    +0.000 C 
ATOM     10  C   UNL     1       1.160   3.600  18.795  0.00  0.00    +0.000 C 
ENDBRANCH   7  10
ENDBRANCH   1   7
BRANCH   4  11
ATOM     11  C   UNL     1       6.218   4.503  16.753  0.00  0.00    +0.000 C 
BRANCH  11  12
ATOM     12  C   UNL     1       6.421   4.509  15.251  0.00  0.00    +0.000 A 
ATOM     13  C   UNL     1       7.502   5.234  14.714  0.00  0.00    +0.000 A 
ATOM     14  C   UNL     1       7.806   5.173  13.351  0.00  0.00    +0.000 A 
ATOM     15  F   UNL     1       8.856   5.862  12.884  0.00  0.00    +0.000 F 
ATOM     16  C   UNL     1       7.044   4.394  12.495  0.00  0.00    +0.000 A 
ATOM     17  F   UNL     1       7.348   4.326  11.191  0.00  0.00    +0.000 F 
ATOM     18  C   UNL     1       5.974   3.672  13.007  0.00  0.00    +0.000 A 
ATOM     19  F   UNL     1       5.242   2.899  12.194  0.00  0.00    +0.000 F 
ATOM     20  C   UNL     1       5.662   3.723  14.372  0.00  0.00    +0.000 A 
ENDBRANCH  11  12
ENDBRANCH   4  11
TORSDOF 4
ENDMDL
MODEL 4
REMARK VINA RESULT:      -6.7      4.116      7.465
REMARK  Name = 
REMARK  6 active torsions:
REMARK  status: ('A' for Active; 'I' for Inactive)
REMARK    1  A    between atoms: C_2  and  C_3
REMARK    2  A    between atoms: C_3  and  C_4
REMARK    3  A    between atoms: C_3  and  N_5
REMARK    4  A    between atoms: N_8  and  C_9
REMARK    5  A    between atoms: N_8  and  C_10
REMARK    6  A    between atoms: C_10  and  C_11
REMARK                            x       y       z     vdW  Elec       q    Type
REMARK                         _______ _______ _______ _____ _____    ______ ____
ROOT
ATOM      1  N   UNL     1       1.485   7.750  20.943  0.00  0.00    +0.000 N 
ATOM      2  C   UNL     1       2.022   7.292  19.769  0.00  0.00    +0.000 C 
ATOM      3  O   UNL     1       2.333   8.052  18.859  0.00  0.00    +0.000 OA
ATOM      4  N   UNL     1       2.215   5.916  19.700  0.00  0.00    +0.000 N 
ATOM      5  C   UNL     1       1.909   4.953  20.750  0.00  0.00    +0.000 C 
ATOM      6  H   UNL     1       0.893   7.117  21.450  0.00  0.00    +0.000 HD
ENDROOT
BRANCH   1   7
ATOM      7  C   UNL     1       1.188   9.154  21.178  0.00  0.00    +0.000 C 
ATOM      8  C   UNL     1       0.016   9.608  20.304  0.00  0.00    +0.000 C 
BRANCH   7  10
ATOM      9  C   UNL     1      -0.178   9.604  23.306  0.00  0.00    +0.000 C 
ATOM     10  C   UNL     1       0.951   9.265  22.666  0.00  0.00    +0.000 C 
ENDBRANCH   7  10
ENDBRANCH   1   7
BRANCH   4  11
ATOM     11  C   UNL     1       2.629   5.349  18.412  0.00  0.00    +0.000 C 
BRANCH  11  12
ATOM     12  C   UNL     1       4.099   5.018  18.251  0.00  0.00    +0.000 A 
ATOM     13  C   UNL     1       4.534   4.415  17.055  0.00  0.00    +0.000 A 
ATOM     14  C   UNL     1       5.893   4.202  16.808  0.00  0.00    +0.000 A 
ATOM     15  F   UNL     1       6.266   3.644  15.648  0.00  0.00    +0.000 F 
ATOM     16  C   UNL     1       6.846   4.582  17.739  0.00  0.00    +0.000 A 
ATOM     17  F   UNL     1       8.149   4.390  17.490  0.00  0.00    +0.000 F 
ATOM     18  C   UNL     1       6.435   5.179  18.923  0.00  0.00    +0.000 A 
ATOM     19  F   UNL     1       7.348   5.569  19.824  0.00  0.00    +0.000 F 
ATOM     20  C   UNL     1       5.076   5.400  19.182  0.00  0.00    +0.000 A 
ENDBRANCH  11  12
ENDBRANCH   4  11
TORSDOF 4
ENDMDL
MODEL 5
REMARK VINA RESULT:      -6.7      0.870      2.016
REMARK  Name = 
REMARK  6 active torsions:
REMARK  status: ('A' for Active; 'I' for Inactive)
REMARK    1  A    between atoms: C_2  and  C_3
REMARK    2  A    between atoms: C_3  and  C_4
REMARK    3  A    between atoms: C_3  and  N_5
REMARK    4  A    between atoms: N_8  and  C_9
REMARK    5  A    between atoms: N_8  and  C_10
REMARK    6  A    between atoms: C_10  and  C_11
REMARK                            x       y       z     vdW  Elec       q    Type
REMARK                         _______ _______ _______ _____ _____    ______ ____
ROOT
ATOM      1  N   UNL     1       7.076   4.861  15.113  0.00  0.00    +0.000 N 
ATOM      2  C   UNL     1       6.172   5.301  16.043  0.00  0.00    +0.000 C 
ATOM      3  O   UNL     1       5.088   5.775  15.721  0.00  0.00    +0.000 OA
ATOM      4  N   UNL     1       6.558   5.141  17.369  0.00  0.00    +0.000 N 
ATOM      5  C   UNL     1       7.808   4.553  17.834  0.00  0.00    +0.000 C 
ATOM      6  H   UNL     1       8.044   4.878  15.376  0.00  0.00    +0.000 HD
ENDROOT
BRANCH   1   7
ATOM      7  C   UNL     1       6.851   4.976  13.680  0.00  0.00    +0.000 C 
ATOM      8  C   UNL     1       8.157   5.318  12.958  0.00  0.00    +0.000 C 
BRANCH   7  10
ATOM      9  C   UNL     1       6.024   3.187  12.034  0.00  0.00    +0.000 C 
ATOM     10  C   UNL     1       6.224   3.664  13.271  0.00  0.00    +0.000 C 
ENDBRANCH   7  10
ENDBRANCH   1   7
BRANCH   4  11
ATOM     11  C   UNL     1       5.710   5.742  18.405  0.00  0.00    +0.000 C 
BRANCH  11  12
ATOM     12  C   UNL     1       4.562   4.898  18.923  0.00  0.00    +0.000 A 
ATOM     13  C   UNL     1       4.611   3.502  18.749  0.00  0.00    +0.000 A 
ATOM     14  C   UNL     1       3.641   2.670  19.314  0.00  0.00    +0.000 A 
ATOM     15  F   UNL     1       3.736   1.345  19.142  0.00  0.00    +0.000 F 
ATOM     16  C   UNL     1       2.604   3.205  20.061  0.00  0.00    +0.000 A 
ATOM     17  F   UNL     1       1.684   2.402  20.614  0.00  0.00    +0.000 F 
ATOM     18  C   UNL     1       2.539   4.580  20.243  0.00  0.00    +0.000 A 
ATOM     19  F   UNL     1       1.552   5.109  20.980  0.00  0.00    +0.000 F 
ATOM     20  C   UNL     1       3.508   5.424  19.684  0.00  0.00    +0.000 A 
ENDBRANCH  11  12
ENDBRANCH   4  11
TORSDOF 4
ENDMDL
MODEL 6
REMARK VINA RESULT:      -6.6      1.197      1.850
REMARK  Name = 
REMARK  6 active torsions:
REMARK  status: ('A' for Active; 'I' for Inactive)
REMARK    1  A    between atoms: C_2  and  C_3
REMARK    2  A    between atoms: C_3  and  C_4
REMARK    3  A    between atoms: C_3  and  N_5
REMARK    4  A    between atoms: N_8  and  C_9
REMARK    5  A    between atoms: N_8  and  C_10
REMARK    6  A    between atoms: C_10  and  C_11
REMARK                            x       y       z     vdW  Elec       q    Type
REMARK                         _______ _______ _______ _____ _____    ______ ____
ROOT
ATOM      1  N   UNL     1       5.643   4.558  14.035  0.00  0.00    +0.000 N 
ATOM      2  C   UNL     1       5.846   4.258  15.356  0.00  0.00    +0.000 C 
ATOM      3  O   UNL     1       6.310   3.180  15.713  0.00  0.00    +0.000 OA
ATOM      4  N   UNL     1       5.520   5.270  16.253  0.00  0.00    +0.000 N 
ATOM      5  C   UNL     1       5.003   6.588  15.908  0.00  0.00    +0.000 C 
ATOM      6  H   UNL     1       4.923   5.224  13.825  0.00  0.00    +0.000 HD
ENDROOT
BRANCH   1   7
ATOM      7  C   UNL     1       5.902   3.609  12.964  0.00  0.00    +0.000 C 
ATOM      8  C   UNL     1       4.664   3.452  12.076  0.00  0.00    +0.000 C 
BRANCH   7  10
ATOM      9  C   UNL     1       7.781   5.288  12.468  0.00  0.00    +0.000 C 
ATOM     10  C   UNL     1       7.129   4.136  12.256  0.00  0.00    +0.000 C 
ENDBRANCH   7  10
ENDBRANCH   1   7
BRANCH   4  11
ATOM     11  C   UNL     1       5.556   4.952  17.685  0.00  0.00    +0.000 C 
BRANCH  11  12
ATOM     12  C   UNL     1       4.237   4.588  18.338  0.00  0.00    +0.000 A 
ATOM     13  C   UNL     1       3.695   5.456  19.305  0.00  0.00    +0.000 A 
ATOM     14  C   UNL     1       2.427   5.230  19.846  0.00  0.00    +0.000 A 
ATOM     15  F   UNL     1       1.939   6.092  20.750  0.00  0.00    +0.000 F 
ATOM     16  C   UNL     1       1.672   4.141  19.440  0.00  0.00    +0.000 A 
ATOM     17  F   UNL     1       0.450   3.938  19.951  0.00  0.00    +0.000 F 
ATOM     18  C   UNL     1       2.191   3.275  18.487  0.00  0.00    +0.000 A 
ATOM     19  F   UNL     1       1.463   2.230  18.071  0.00  0.00    +0.000 F 
ATOM     20  C   UNL     1       3.460   3.493  17.935  0.00  0.00    +0.000 A 
ENDBRANCH  11  12
ENDBRANCH   4  11
TORSDOF 4
ENDMDL
MODEL 7
REMARK VINA RESULT:      -6.6      1.209      1.426
REMARK  Name = 
REMARK  6 active torsions:
REMARK  status: ('A' for Active; 'I' for Inactive)
REMARK    1  A    between atoms: C_2  and  C_3
REMARK    2  A    between atoms: C_3  and  C_4
REMARK    3  A    between atoms: C_3  and  N_5
REMARK    4  A    between atoms: N_8  and  C_9
REMARK    5  A    between atoms: N_8  and  C_10
REMARK    6  A    between atoms: C_10  and  C_11
REMARK                            x       y       z     vdW  Elec       q    Type
REMARK                         _______ _______ _______ _____ _____    ______ ____
ROOT
ATOM      1  N   UNL     1       7.197   5.056  14.998  0.00  0.00    +0.000 N 
ATOM      2  C   UNL     1       6.176   5.438  15.827  0.00  0.00    +0.000 C 
ATOM      3  O   UNL     1       5.098   5.828  15.391  0.00  0.00    +0.000 OA
ATOM      4  N   UNL     1       6.440   5.322  17.187  0.00  0.00    +0.000 N 
ATOM      5  C   UNL     1       7.676   4.833  17.783  0.00  0.00    +0.000 C 
ATOM      6  H   UNL     1       8.130   5.146  15.354  0.00  0.00    +0.000 HD
ENDROOT
BRANCH   1   7
ATOM      7  C   UNL     1       7.106   5.138  13.548  0.00  0.00    +0.000 C 
ATOM      8  C   UNL     1       8.463   5.517  12.947  0.00  0.00    +0.000 C 
BRANCH   7  10
ATOM      9  C   UNL     1       5.838   3.509  12.021  0.00  0.00    +0.000 C 
ATOM     10  C   UNL     1       6.569   3.796  13.108  0.00  0.00    +0.000 C 
ENDBRANCH   7  10
ENDBRANCH   1   7
BRANCH   4  11
ATOM     11  C   UNL     1       5.452   5.871  18.124  0.00  0.00    +0.000 C 
BRANCH  11  12
ATOM     12  C   UNL     1       4.387   4.919  18.631  0.00  0.00    +0.000 A 
ATOM     13  C   UNL     1       3.109   4.952  18.041  0.00  0.00    +0.000 A 
ATOM     14  C   UNL     1       2.131   4.014  18.386  0.00  0.00    +0.000 A 
ATOM     15  F   UNL     1       0.934   4.068  17.786  0.00  0.00    +0.000 F 
ATOM     16  C   UNL     1       2.400   3.029  19.321  0.00  0.00    +0.000 A 
ATOM     17  F   UNL     1       1.464   2.123  19.638  0.00  0.00    +0.000 F 
ATOM     18  C   UNL     1       3.655   2.981  19.913  0.00  0.00    +0.000 A 
ATOM     19  F   UNL     1       3.935   2.021  20.805  0.00  0.00    +0.000 F 
ATOM     20  C   UNL     1       4.645   3.913  19.573  0.00  0.00    +0.000 A 
ENDBRANCH  11  12
ENDBRANCH   4  11
TORSDOF 4
ENDMDL
MODEL 8
REMARK VINA RESULT:      -6.6      1.676      2.321
REMARK  Name = 
REMARK  6 active torsions:
REMARK  status: ('A' for Active; 'I' for Inactive)
REMARK    1  A    between atoms: C_2  and  C_3
REMARK    2  A    between atoms: C_3  and  C_4
REMARK    3  A    between atoms: C_3  and  N_5
REMARK    4  A    between atoms: N_8  and  C_9
REMARK    5  A    between atoms: N_8  and  C_10
REMARK    6  A    between atoms: C_10  and  C_11
REMARK                            x       y       z     vdW  Elec       q    Type
REMARK                         _______ _______ _______ _____ _____    ______ ____
ROOT
ATOM      1  N   UNL     1       5.593   4.539  13.887  0.00  0.00    +0.000 N 
ATOM      2  C   UNL     1       5.817   4.291  15.215  0.00  0.00    +0.000 C 
ATOM      3  O   UNL     1       6.281   3.225  15.607  0.00  0.00    +0.000 OA
ATOM      4  N   UNL     1       5.511   5.339  16.076  0.00  0.00    +0.000 N 
ATOM      5  C   UNL     1       4.995   6.646  15.688  0.00  0.00    +0.000 C 
ATOM      6  H   UNL     1       4.872   5.200  13.663  0.00  0.00    +0.000 HD
ENDROOT
BRANCH   1   7
ATOM      7  C   UNL     1       5.829   3.547  12.850  0.00  0.00    +0.000 C 
ATOM      8  C   UNL     1       4.599   3.412  11.948  0.00  0.00    +0.000 C 
BRANCH   7  10
ATOM      9  C   UNL     1       7.675   5.206  12.188  0.00  0.00    +0.000 C 
ATOM     10  C   UNL     1       7.086   4.001  12.146  0.00  0.00    +0.000 C 
ENDBRANCH   7  10
ENDBRANCH   1   7
BRANCH   4  11
ATOM     11  C   UNL     1       5.570   5.078  17.519  0.00  0.00    +0.000 C 
BRANCH  11  12
ATOM     12  C   UNL     1       4.423   4.288  18.118  0.00  0.00    +0.000 A 
ATOM     13  C   UNL     1       4.655   3.521  19.275  0.00  0.00    +0.000 A 
ATOM     14  C   UNL     1       3.606   2.875  19.935  0.00  0.00    +0.000 A 
ATOM     15  F   UNL     1       3.868   2.171  21.045  0.00  0.00    +0.000 F 
ATOM     16  C   UNL     1       2.309   2.975  19.460  0.00  0.00    +0.000 A 
ATOM     17  F   UNL     1       1.304   2.365  20.105  0.00  0.00    +0.000 F 
ATOM     18  C   UNL     1       2.061   3.727  18.320  0.00  0.00    +0.000 A 
ATOM     19  F   UNL     1       0.807   3.849  17.862  0.00  0.00    +0.000 F 
ATOM     20  C   UNL     1       3.103   4.383  17.652  0.00  0.00    +0.000 A 
ENDBRANCH  11  12
ENDBRANCH   4  11
TORSDOF 4
ENDMDL
MODEL 9
REMARK VINA RESULT:      -6.5      1.204      1.806
REMARK  Name = 
REMARK  6 active torsions:
REMARK  status: ('A' for Active; 'I' for Inactive)
REMARK    1  A    between atoms: C_2  and  C_3
REMARK    2  A    between atoms: C_3  and  C_4
REMARK    3  A    between atoms: C_3  and  N_5
REMARK    4  A    between atoms: N_8  and  C_9
REMARK    5  A    between atoms: N_8  and  C_10
REMARK    6  A    between atoms: C_10  and  C_11
REMARK                            x       y       z     vdW  Elec       q    Type
REMARK                         _______ _______ _______ _____ _____    ______ ____
ROOT
ATOM      1  N   UNL     1       6.096   5.177  15.117  0.00  0.00    +0.000 N 
ATOM      2  C   UNL     1       6.216   4.973  16.466  0.00  0.00    +0.000 C 
ATOM      3  O   UNL     1       6.979   4.133  16.931  0.00  0.00    +0.000 OA
ATOM      4  N   UNL     1       5.437   5.804  17.264  0.00  0.00    +0.000 N 
ATOM      5  C   UNL     1       4.537   6.850  16.793  0.00  0.00    +0.000 C 
ATOM      6  H   UNL     1       5.221   5.540  14.788  0.00  0.00    +0.000 HD
ENDROOT
BRANCH   1   7
ATOM      7  C   UNL     1       6.813   4.380  14.134  0.00  0.00    +0.000 C 
ATOM      8  C   UNL     1       5.831   3.696  13.179  0.00  0.00    +0.000 C 
BRANCH   7  10
ATOM      9  C   UNL     1       7.927   5.601  12.169  0.00  0.00    +0.000 C 
ATOM     10  C   UNL     1       7.778   5.338  13.475  0.00  0.00    +0.000 C 
ENDBRANCH   7  10
ENDBRANCH   1   7
BRANCH   4  11
ATOM     11  C   UNL     1       5.394   5.524  18.705  0.00  0.00    +0.000 C 
BRANCH  11  12
ATOM     12  C   UNL     1       4.188   4.760  19.216  0.00  0.00    +0.000 A 
ATOM     13  C   UNL     1       3.168   5.466  19.881  0.00  0.00    +0.000 A 
ATOM     14  C   UNL     1       1.982   4.831  20.263  0.00  0.00    +0.000 A 
ATOM     15  F   UNL     1       1.028   5.545  20.876  0.00  0.00    +0.000 F 
ATOM     16  C   UNL     1       1.786   3.487  19.993  0.00  0.00    +0.000 A 
ATOM     17  F   UNL     1       0.641   2.886  20.348  0.00  0.00    +0.000 F 
ATOM     18  C   UNL     1       2.781   2.775  19.338  0.00  0.00    +0.000 A 
ATOM     19  F   UNL     1       2.596   1.478  19.054  0.00  0.00    +0.000 F 
ATOM     20  C   UNL     1       3.973   3.400  18.947  0.00  0.00    +0.000 A 
ENDBRANCH  11  12
ENDBRANCH   4  11
TORSDOF 4
ENDMDL
