MODEL 1
REMARK VINA RESULT:      -5.8      0.000      0.000
REMARK  Name = 
REMARK  9 active torsions:
REMARK  status: ('A' for Active; 'I' for Inactive)
REMARK    1  A    between atoms: C_1  and  O_2
REMARK    2  A    between atoms: O_2  and  C_3
REMARK    3  A    between atoms: C_3  and  C_5
REMARK    4  A    between atoms: C_6  and  O_7
REMARK    5  A    between atoms: C_8  and  C_9
REMARK    6  A    between atoms: C_19  and  O_20
REMARK    7  A    between atoms: O_20  and  C_21
REMARK    8  A    between atoms: C_22  and  O_23
REMARK    9  A    between atoms: O_23  and  C_24
REMARK                            x       y       z     vdW  Elec       q    Type
REMARK                         _______ _______ _______ _____ _____    ______ ____
ROOT
ATOM      1  C   UNL     1       0.183  11.151  19.172  0.00  0.00    +0.000 A 
ATOM      2  C   UNL     1      -0.991  11.167  18.513  0.00  0.00    +0.000 A 
ATOM      3  C   UNL     1      -2.201  11.667  19.144  0.00  0.00    +0.000 A 
ATOM      4  C   UNL     1      -2.203  12.143  20.435  0.00  0.00    +0.000 A 
ATOM      5  N   UNL     1      -0.970  12.156  21.110  0.00  0.00    +0.000 N 
ATOM      6  C   UNL     1       0.236  11.737  20.532  0.00  0.00    +0.000 A 
ATOM      7  O   UNL     1       1.307  11.870  21.125  0.00  0.00    +0.000 OA
ATOM      8  C   UNL     1      -0.794  12.634  22.470  0.00  0.00    +0.000 C 
ATOM      9  C   UNL     1      -1.975  13.162  23.244  0.00  0.00    +0.000 C 
ATOM     10  C   UNL     1      -3.275  13.182  22.515  0.00  0.00    +0.000 A 
ATOM     11  C   UNL     1      -4.381  13.716  23.241  0.00  0.00    +0.000 A 
ATOM     12  C   UNL     1      -5.669  13.786  22.706  0.00  0.00    +0.000 A 
ATOM     13  C   UNL     1      -5.842  13.300  21.424  0.00  0.00    +0.000 A 
ATOM     14  C   UNL     1      -4.732  12.770  20.734  0.00  0.00    +0.000 A 
ATOM     15  C   UNL     1      -3.411  12.692  21.212  0.00  0.00    +0.000 A 
ENDROOT
BRANCH   1  16
ATOM     16  C   UNL     1       1.389  10.569  18.538  0.00  0.00    +0.000 C 
ATOM     17  O   UNL     1       2.300  11.260  18.089  0.00  0.00    +0.000 OA
BRANCH  16  19
ATOM     18  C   UNL     1       2.394   8.542  17.849  0.00  0.00    +0.000 C 
ATOM     19  O   UNL     1       1.307   9.226  18.469  0.00  0.00    +0.000 OA
ENDBRANCH  16  19
ENDBRANCH   1  16
BRANCH   2  20
ATOM     20  O   UNL     1      -1.164  10.705  17.221  0.00  0.00    +0.000 OA
ATOM     21  H   UNL     1      -0.287  10.573  16.794  0.00  0.00    +0.000 HD
ENDBRANCH   2  20
BRANCH   3  22
ATOM     22  C   UNL     1      -3.515  11.661  18.381  0.00  0.00    +0.000 C 
ATOM     23  N   UNL     1      -4.606  11.656  17.748  0.00  0.00    +0.000 NA
ENDBRANCH   3  22
BRANCH  12  24
ATOM     24  O   UNL     1      -6.752  14.288  23.362  0.00  0.00    +0.000 OA
ATOM     25  C   UNL     1      -7.490  13.420  24.205  0.00  0.00    +0.000 C 
ENDBRANCH  12  24
BRANCH  13  26
ATOM     26  O   UNL     1      -6.978  13.240  20.661  0.00  0.00    +0.000 OA
ATOM     27  C   UNL     1      -7.409  12.000  20.130  0.00  0.00    +0.000 C 
ENDBRANCH  13  26
TORSDOF 6
ENDMDL
MODEL 2
REMARK VINA RESULT:      -5.6      9.736     12.620
REMARK  Name = 
REMARK  9 active torsions:
REMARK  status: ('A' for Active; 'I' for Inactive)
REMARK    1  A    between atoms: C_1  and  O_2
REMARK    2  A    between atoms: O_2  and  C_3
REMARK    3  A    between atoms: C_3  and  C_5
REMARK    4  A    between atoms: C_6  and  O_7
REMARK    5  A    between atoms: C_8  and  C_9
REMARK    6  A    between atoms: C_19  and  O_20
REMARK    7  A    between atoms: O_20  and  C_21
REMARK    8  A    between atoms: C_22  and  O_23
REMARK    9  A    between atoms: O_23  and  C_24
REMARK                            x       y       z     vdW  Elec       q    Type
REMARK                         _______ _______ _______ _____ _____    ______ ____
ROOT
ATOM      1  C   UNL     1       6.726  12.256  23.472  0.00  0.00    +0.000 A 
ATOM      2  C   UNL     1       7.896  11.896  22.914  0.00  0.00    +0.000 A 
ATOM      3  C   UNL     1       8.485  12.669  21.833  0.00  0.00    +0.000 A 
ATOM      4  C   UNL     1       7.877  13.797  21.333  0.00  0.00    +0.000 A 
ATOM      5  N   UNL     1       6.670  14.190  21.938  0.00  0.00    +0.000 N 
ATOM      6  C   UNL     1       6.086  13.514  23.018  0.00  0.00    +0.000 A 
ATOM      7  O   UNL     1       5.088  13.959  23.585  0.00  0.00    +0.000 OA
ATOM      8  C   UNL     1       5.905  15.359  21.540  0.00  0.00    +0.000 C 
ATOM      9  C   UNL     1       6.396  16.237  20.417  0.00  0.00    +0.000 C 
ATOM     10  C   UNL     1       7.694  15.840  19.800  0.00  0.00    +0.000 A 
ATOM     11  C   UNL     1       8.171  16.695  18.762  0.00  0.00    +0.000 A 
ATOM     12  C   UNL     1       9.360  16.450  18.072  0.00  0.00    +0.000 A 
ATOM     13  C   UNL     1      10.070  15.319  18.429  0.00  0.00    +0.000 A 
ATOM     14  C   UNL     1       9.569  14.489  19.452  0.00  0.00    +0.000 A 
ATOM     15  C   UNL     1       8.392  14.694  20.195  0.00  0.00    +0.000 A 
ENDROOT
BRANCH   1  16
ATOM     16  C   UNL     1       6.106  11.414  24.521  0.00  0.00    +0.000 C 
ATOM     17  O   UNL     1       5.046  10.817  24.351  0.00  0.00    +0.000 OA
BRANCH  16  19
ATOM     18  C   UNL     1       6.446  12.453  26.618  0.00  0.00    +0.000 C 
ATOM     19  O   UNL     1       6.815  11.457  25.666  0.00  0.00    +0.000 OA
ENDBRANCH  16  19
ENDBRANCH   1  16
BRANCH   2  20
ATOM     20  O   UNL     1       8.624  10.780  23.286  0.00  0.00    +0.000 OA
ATOM     21  H   UNL     1       8.115  10.254  23.943  0.00  0.00    +0.000 HD
ENDBRANCH   2  20
BRANCH   3  22
ATOM     22  C   UNL     1       9.802  12.232  21.214  0.00  0.00    +0.000 C 
ATOM     23  N   UNL     1      10.894  11.869  20.699  0.00  0.00    +0.000 NA
ENDBRANCH   3  22
BRANCH  12  24
ATOM     24  O   UNL     1       9.852  17.239  17.077  0.00  0.00    +0.000 OA
ATOM     25  C   UNL     1      10.325  18.532  17.415  0.00  0.00    +0.000 C 
ENDBRANCH  12  24
BRANCH  13  26
ATOM     26  O   UNL     1      11.249  14.837  17.927  0.00  0.00    +0.000 OA
ATOM     27  C   UNL     1      11.301  13.539  17.364  0.00  0.00    +0.000 C 
ENDBRANCH  13  26
TORSDOF 6
ENDMDL
MODEL 3
REMARK VINA RESULT:      -5.5      3.250      4.037
REMARK  Name = 
REMARK  9 active torsions:
REMARK  status: ('A' for Active; 'I' for Inactive)
REMARK    1  A    between atoms: C_1  and  O_2
REMARK    2  A    between atoms: O_2  and  C_3
REMARK    3  A    between atoms: C_3  and  C_5
REMARK    4  A    between atoms: C_6  and  O_7
REMARK    5  A    between atoms: C_8  and  C_9
REMARK    6  A    between atoms: C_19  and  O_20
REMARK    7  A    between atoms: O_20  and  C_21
REMARK    8  A    between atoms: C_22  and  O_23
REMARK    9  A    between atoms: O_23  and  C_24
REMARK                            x       y       z     vdW  Elec       q    Type
REMARK                         _______ _______ _______ _____ _____    ______ ____
ROOT
ATOM      1  C   UNL     1       1.848   8.606  18.980  0.00  0.00    +0.000 A 
ATOM      2  C   UNL     1       1.623   9.836  18.482  0.00  0.00    +0.000 A 
ATOM      3  C   UNL     1       0.853  10.820  19.224  0.00  0.00    +0.000 A 
ATOM      4  C   UNL     1       0.322  10.542  20.462  0.00  0.00    +0.000 A 
ATOM      5  N   UNL     1       0.584   9.268  20.996  0.00  0.00    +0.000 N 
ATOM      6  C   UNL     1       1.365   8.301  20.348  0.00  0.00    +0.000 A 
ATOM      7  O   UNL     1       1.659   7.241  20.903  0.00  0.00    +0.000 OA
ATOM      8  C   UNL     1       0.109   8.815  22.291  0.00  0.00    +0.000 C 
ATOM      9  C   UNL     1      -0.718   9.733  23.155  0.00  0.00    +0.000 C 
ATOM     10  C   UNL     1      -0.967  11.096  22.605  0.00  0.00    +0.000 A 
ATOM     11  C   UNL     1      -1.719  11.972  23.442  0.00  0.00    +0.000 A 
ATOM     12  C   UNL     1      -2.052  13.274  23.064  0.00  0.00    +0.000 A 
ATOM     13  C   UNL     1      -1.627  13.692  21.816  0.00  0.00    +0.000 A 
ATOM     14  C   UNL     1      -0.892  12.802  21.008  0.00  0.00    +0.000 A 
ATOM     15  C   UNL     1      -0.511  11.489  21.342  0.00  0.00    +0.000 A 
ENDROOT
BRANCH   1  16
ATOM     16  C   UNL     1       2.572   7.593  18.176  0.00  0.00    +0.000 C 
ATOM     17  O   UNL     1       3.674   7.807  17.678  0.00  0.00    +0.000 OA
BRANCH  16  19
ATOM     18  C   UNL     1       2.535   5.231  18.070  0.00  0.00    +0.000 C 
ATOM     19  O   UNL     1       1.837   6.474  18.022  0.00  0.00    +0.000 OA
ENDBRANCH  16  19
ENDBRANCH   1  16
BRANCH   2  20
ATOM     20  O   UNL     1       2.068  10.267  17.245  0.00  0.00    +0.000 OA
ATOM     21  H   UNL     1       2.052  11.250  17.210  0.00  0.00    +0.000 HD
ENDBRANCH   2  20
BRANCH   3  22
ATOM     22  C   UNL     1       0.604  12.197  18.632  0.00  0.00    +0.000 C 
ATOM     23  N   UNL     1       0.397  13.340  18.140  0.00  0.00    +0.000 NA
ENDBRANCH   3  22
BRANCH  12  24
ATOM     24  O   UNL     1      -2.767  14.143  23.831  0.00  0.00    +0.000 OA
ATOM     25  C   UNL     1      -2.062  14.997  24.716  0.00  0.00    +0.000 C 
ENDBRANCH  12  24
BRANCH  13  26
ATOM     26  O   UNL     1      -1.810  14.898  21.193  0.00  0.00    +0.000 OA
ATOM     27  C   UNL     1      -0.689  15.662  20.789  0.00  0.00    +0.000 C 
ENDBRANCH  13  26
TORSDOF 6
ENDMDL
MODEL 4
REMARK VINA RESULT:      -5.5      6.526     10.089
REMARK  Name = 
REMARK  9 active torsions:
REMARK  status: ('A' for Active; 'I' for Inactive)
REMARK    1  A    between atoms: C_1  and  O_2
REMARK    2  A    between atoms: O_2  and  C_3
REMARK    3  A    between atoms: C_3  and  C_5
REMARK    4  A    between atoms: C_6  and  O_7
REMARK    5  A    between atoms: C_8  and  C_9
REMARK    6  A    between atoms: C_19  and  O_20
REMARK    7  A    between atoms: O_20  and  C_21
REMARK    8  A    between atoms: C_22  and  O_23
REMARK    9  A    between atoms: O_23  and  C_24
REMARK                            x       y       z     vdW  Elec       q    Type
REMARK                         _______ _______ _______ _____ _____    ______ ____
ROOT
ATOM      1  C   UNL     1       5.776   4.808  15.236  0.00  0.00    +0.000 A 
ATOM      2  C   UNL     1       5.330   3.834  16.051  0.00  0.00    +0.000 A 
ATOM      3  C   UNL     1       4.442   4.131  17.162  0.00  0.00    +0.000 A 
ATOM      4  C   UNL     1       4.020   5.413  17.432  0.00  0.00    +0.000 A 
ATOM      5  N   UNL     1       4.461   6.424  16.561  0.00  0.00    +0.000 N 
ATOM      6  C   UNL     1       5.273   6.186  15.444  0.00  0.00    +0.000 A 
ATOM      7  O   UNL     1       5.543   7.087  14.648  0.00  0.00    +0.000 OA
ATOM      8  C   UNL     1       4.103   7.825  16.695  0.00  0.00    +0.000 C 
ATOM      9  C   UNL     1       3.202   8.270  17.819  0.00  0.00    +0.000 C 
ATOM     10  C   UNL     1       2.705   7.192  18.721  0.00  0.00    +0.000 A 
ATOM     11  C   UNL     1       1.824   7.615  19.760  0.00  0.00    +0.000 A 
ATOM     12  C   UNL     1       1.288   6.731  20.699  0.00  0.00    +0.000 A 
ATOM     13  C   UNL     1       1.657   5.403  20.590  0.00  0.00    +0.000 A 
ATOM     14  C   UNL     1       2.536   5.016  19.558  0.00  0.00    +0.000 A 
ATOM     15  C   UNL     1       3.090   5.856  18.574  0.00  0.00    +0.000 A 
ENDROOT
BRANCH   1  16
ATOM     16  C   UNL     1       6.740   4.496  14.154  0.00  0.00    +0.000 C 
ATOM     17  O   UNL     1       7.787   5.118  14.000  0.00  0.00    +0.000 OA
BRANCH  16  19
ATOM     18  C   UNL     1       6.655   3.564  11.982  0.00  0.00    +0.000 C 
ATOM     19  O   UNL     1       6.278   3.512  13.357  0.00  0.00    +0.000 OA
ENDBRANCH  16  19
ENDBRANCH   1  16
BRANCH   2  20
ATOM     20  O   UNL     1       5.675   2.500  15.931  0.00  0.00    +0.000 OA
ATOM     21  H   UNL     1       6.322   2.388  15.198  0.00  0.00    +0.000 HD
ENDBRANCH   2  20
BRANCH   3  22
ATOM     22  C   UNL     1       3.963   3.014  18.074  0.00  0.00    +0.000 C 
ATOM     23  N   UNL     1       3.566   2.087  18.832  0.00  0.00    +0.000 NA
ENDBRANCH   3  22
BRANCH  12  24
ATOM     24  O   UNL     1       0.445   7.090  21.705  0.00  0.00    +0.000 OA
ATOM     25  C   UNL     1      -0.115   8.393  21.683  0.00  0.00    +0.000 C 
ENDBRANCH  12  24
BRANCH  13  26
ATOM     26  O   UNL     1       1.293   4.332  21.363  0.00  0.00    +0.000 OA
ATOM     27  C   UNL     1       2.259   3.367  21.734  0.00  0.00    +0.000 C 
ENDBRANCH  13  26
TORSDOF 6
ENDMDL
MODEL 5
REMARK VINA RESULT:      -5.4      0.983      1.242
REMARK  Name = 
REMARK  9 active torsions:
REMARK  status: ('A' for Active; 'I' for Inactive)
REMARK    1  A    between atoms: C_1  and  O_2
REMARK    2  A    between atoms: O_2  and  C_3
REMARK    3  A    between atoms: C_3  and  C_5
REMARK    4  A    between atoms: C_6  and  O_7
REMARK    5  A    between atoms: C_8  and  C_9
REMARK    6  A    between atoms: C_19  and  O_20
REMARK    7  A    between atoms: O_20  and  C_21
REMARK    8  A    between atoms: C_22  and  O_23
REMARK    9  A    between atoms: O_23  and  C_24
REMARK                            x       y       z     vdW  Elec       q    Type
REMARK                         _______ _______ _______ _____ _____    ______ ____
ROOT
ATOM      1  C   UNL     1      -0.081  10.641  19.352  0.00  0.00    +0.000 A 
ATOM      2  C   UNL     1      -1.118  10.773  18.504  0.00  0.00    +0.000 A 
ATOM      3  C   UNL     1      -2.334  11.461  18.902  0.00  0.00    +0.000 A 
ATOM      4  C   UNL     1      -2.482  12.006  20.157  0.00  0.00    +0.000 A 
ATOM      5  N   UNL     1      -1.386  11.895  21.031  0.00  0.00    +0.000 N 
ATOM      6  C   UNL     1      -0.171  11.291  20.681  0.00  0.00    +0.000 A 
ATOM      7  O   UNL     1       0.797  11.316  21.442  0.00  0.00    +0.000 OA
ATOM      8  C   UNL     1      -1.371  12.422  22.384  0.00  0.00    +0.000 C 
ATOM      9  C   UNL     1      -2.578  13.143  22.928  0.00  0.00    +0.000 C 
ATOM     10  C   UNL     1      -3.726  13.291  21.989  0.00  0.00    +0.000 A 
ATOM     11  C   UNL     1      -4.852  14.005  22.497  0.00  0.00    +0.000 A 
ATOM     12  C   UNL     1      -6.012  14.212  21.750  0.00  0.00    +0.000 A 
ATOM     13  C   UNL     1      -6.039  13.681  20.474  0.00  0.00    +0.000 A 
ATOM     14  C   UNL     1      -4.915  12.973  20.001  0.00  0.00    +0.000 A 
ATOM     15  C   UNL     1      -3.714  12.750  20.699  0.00  0.00    +0.000 A 
ENDROOT
BRANCH   1  16
ATOM     16  C   UNL     1       1.121   9.872  18.952  0.00  0.00    +0.000 C 
ATOM     17  O   UNL     1       1.475   8.848  19.531  0.00  0.00    +0.000 OA
BRANCH  16  19
ATOM     18  C   UNL     1       2.320  11.771  18.211  0.00  0.00    +0.000 C 
ATOM     19  O   UNL     1       1.778  10.479  17.944  0.00  0.00    +0.000 OA
ENDBRANCH  16  19
ENDBRANCH   1  16
BRANCH   2  20
ATOM     20  O   UNL     1      -1.139  10.265  17.217  0.00  0.00    +0.000 OA
ATOM     21  H   UNL     1      -0.226  10.248  16.851  0.00  0.00    +0.000 HD
ENDBRANCH   2  20
BRANCH   3  22
ATOM     22  C   UNL     1      -3.494  11.584  17.928  0.00  0.00    +0.000 C 
ATOM     23  N   UNL     1      -4.456  11.685  17.119  0.00  0.00    +0.000 NA
ENDBRANCH   3  22
BRANCH  12  24
ATOM     24  O   UNL     1      -7.108  14.887  22.194  0.00  0.00    +0.000 OA
ATOM     25  C   UNL     1      -7.091  15.404  23.515  0.00  0.00    +0.000 C 
ENDBRANCH  12  24
BRANCH  13  26
ATOM     26  O   UNL     1      -7.031  13.727  19.532  0.00  0.00    +0.000 OA
ATOM     27  C   UNL     1      -7.466  12.535  18.903  0.00  0.00    +0.000 C 
ENDBRANCH  13  26
TORSDOF 6
ENDMDL
MODEL 6
REMARK VINA RESULT:      -5.4      1.715      7.572
REMARK  Name = 
REMARK  9 active torsions:
REMARK  status: ('A' for Active; 'I' for Inactive)
REMARK    1  A    between atoms: C_1  and  O_2
REMARK    2  A    between atoms: O_2  and  C_3
REMARK    3  A    between atoms: C_3  and  C_5
REMARK    4  A    between atoms: C_6  and  O_7
REMARK    5  A    between atoms: C_8  and  C_9
REMARK    6  A    between atoms: C_19  and  O_20
REMARK    7  A    between atoms: O_20  and  C_21
REMARK    8  A    between atoms: C_22  and  O_23
REMARK    9  A    between atoms: O_23  and  C_24
REMARK                            x       y       z     vdW  Elec       q    Type
REMARK                         _______ _______ _______ _____ _____    ______ ____
ROOT
ATOM      1  C   UNL     1      -5.781  12.920  19.699  0.00  0.00    +0.000 A 
ATOM      2  C   UNL     1      -4.772  13.403  20.447  0.00  0.00    +0.000 A 
ATOM      3  C   UNL     1      -3.411  12.923  20.276  0.00  0.00    +0.000 A 
ATOM      4  C   UNL     1      -3.093  11.957  19.349  0.00  0.00    +0.000 A 
ATOM      5  N   UNL     1      -4.143  11.476  18.547  0.00  0.00    +0.000 N 
ATOM      6  C   UNL     1      -5.462  11.943  18.631  0.00  0.00    +0.000 A 
ATOM      7  O   UNL     1      -6.323  11.570  17.833  0.00  0.00    +0.000 OA
ATOM      8  C   UNL     1      -3.980  10.466  17.515  0.00  0.00    +0.000 C 
ATOM      9  C   UNL     1      -2.621   9.872  17.249  0.00  0.00    +0.000 C 
ATOM     10  C   UNL     1      -1.501  10.407  18.075  0.00  0.00    +0.000 A 
ATOM     11  C   UNL     1      -0.212   9.866  17.794  0.00  0.00    +0.000 A 
ATOM     12  C   UNL     1       0.934  10.249  18.492  0.00  0.00    +0.000 A 
ATOM     13  C   UNL     1       0.772  11.186  19.496  0.00  0.00    +0.000 A 
ATOM     14  C   UNL     1      -0.515  11.697  19.757  0.00  0.00    +0.000 A 
ATOM     15  C   UNL     1      -1.700  11.364  19.075  0.00  0.00    +0.000 A 
ENDROOT
BRANCH   1  16
ATOM     16  C   UNL     1      -7.173  13.368  19.940  0.00  0.00    +0.000 C 
ATOM     17  O   UNL     1      -7.547  14.516  19.714  0.00  0.00    +0.000 OA
BRANCH  16  19
ATOM     18  C   UNL     1      -7.665  12.068  21.853  0.00  0.00    +0.000 C 
ATOM     19  O   UNL     1      -7.917  12.386  20.485  0.00  0.00    +0.000 OA
ENDBRANCH  16  19
ENDBRANCH   1  16
BRANCH   2  20
ATOM     20  O   UNL     1      -4.925  14.359  21.435  0.00  0.00    +0.000 OA
ATOM     21  H   UNL     1      -5.425  13.979  22.192  0.00  0.00    +0.000 HD
ENDBRANCH   2  20
BRANCH   3  22
ATOM     22  C   UNL     1      -2.293  13.477  21.143  0.00  0.00    +0.000 C 
ATOM     23  N   UNL     1      -1.365  13.938  21.862  0.00  0.00    +0.000 NA
ENDBRANCH   3  22
BRANCH  12  24
ATOM     24  O   UNL     1       2.183   9.760  18.256  0.00  0.00    +0.000 OA
ATOM     25  C   UNL     1       2.311   8.407  17.850  0.00  0.00    +0.000 C 
ENDBRANCH  12  24
BRANCH  13  26
ATOM     26  O   UNL     1       1.706  11.735  20.333  0.00  0.00    +0.000 OA
ATOM     27  C   UNL     1       1.898  13.138  20.356  0.00  0.00    +0.000 C 
ENDBRANCH  13  26
TORSDOF 6
ENDMDL
MODEL 7
REMARK VINA RESULT:      -5.4      2.688      6.009
REMARK  Name = 
REMARK  9 active torsions:
REMARK  status: ('A' for Active; 'I' for Inactive)
REMARK    1  A    between atoms: C_1  and  O_2
REMARK    2  A    between atoms: O_2  and  C_3
REMARK    3  A    between atoms: C_3  and  C_5
REMARK    4  A    between atoms: C_6  and  O_7
REMARK    5  A    between atoms: C_8  and  C_9
REMARK    6  A    between atoms: C_19  and  O_20
REMARK    7  A    between atoms: O_20  and  C_21
REMARK    8  A    between atoms: C_22  and  O_23
REMARK    9  A    between atoms: O_23  and  C_24
REMARK                            x       y       z     vdW  Elec       q    Type
REMARK                         _______ _______ _______ _____ _____    ______ ____
ROOT
ATOM      1  C   UNL     1      -1.153  14.745  22.796  0.00  0.00    +0.000 A 
ATOM      2  C   UNL     1      -2.456  14.551  22.520  0.00  0.00    +0.000 A 
ATOM      3  C   UNL     1      -2.873  13.721  21.403  0.00  0.00    +0.000 A 
ATOM      4  C   UNL     1      -1.963  13.098  20.581  0.00  0.00    +0.000 A 
ATOM      5  N   UNL     1      -0.603  13.275  20.890  0.00  0.00    +0.000 N 
ATOM      6  C   UNL     1      -0.146  14.020  21.986  0.00  0.00    +0.000 A 
ATOM      7  O   UNL     1       1.050  14.055  22.279  0.00  0.00    +0.000 OA
ATOM      8  C   UNL     1       0.486  12.682  20.134  0.00  0.00    +0.000 C 
ATOM      9  C   UNL     1       0.189  11.812  18.938  0.00  0.00    +0.000 C 
ATOM     10  C   UNL     1      -1.253  11.596  18.632  0.00  0.00    +0.000 A 
ATOM     11  C   UNL     1      -1.528  10.743  17.522  0.00  0.00    +0.000 A 
ATOM     12  C   UNL     1      -2.826  10.456  17.096  0.00  0.00    +0.000 A 
ATOM     13  C   UNL     1      -3.860  11.048  17.797  0.00  0.00    +0.000 A 
ATOM     14  C   UNL     1      -3.558  11.892  18.884  0.00  0.00    +0.000 A 
ATOM     15  C   UNL     1      -2.275  12.202  19.371  0.00  0.00    +0.000 A 
ENDROOT
BRANCH   1  16
ATOM     16  C   UNL     1      -0.747  15.655  23.893  0.00  0.00    +0.000 C 
ATOM     17  O   UNL     1      -0.252  16.760  23.688  0.00  0.00    +0.000 OA
BRANCH  16  19
ATOM     18  C   UNL     1      -1.139  15.956  26.205  0.00  0.00    +0.000 C 
ATOM     19  O   UNL     1      -0.932  15.081  25.098  0.00  0.00    +0.000 OA
ENDBRANCH  16  19
ENDBRANCH   1  16
BRANCH   2  20
ATOM     20  O   UNL     1      -3.495  15.121  23.234  0.00  0.00    +0.000 OA
ATOM     21  H   UNL     1      -3.338  15.008  24.198  0.00  0.00    +0.000 HD
ENDBRANCH   2  20
BRANCH   3  22
ATOM     22  C   UNL     1      -4.352  13.530  21.107  0.00  0.00    +0.000 C 
ATOM     23  N   UNL     1      -5.578  13.371  20.860  0.00  0.00    +0.000 NA
ENDBRANCH   3  22
BRANCH  12  24
ATOM     24  O   UNL     1      -3.133   9.648  16.044  0.00  0.00    +0.000 OA
ATOM     25  C   UNL     1      -3.107  10.203  14.739  0.00  0.00    +0.000 C 
ENDBRANCH  12  24
BRANCH  13  26
ATOM     26  O   UNL     1      -5.212  10.949  17.602  0.00  0.00    +0.000 OA
ATOM     27  C   UNL     1      -5.985  12.118  17.400  0.00  0.00    +0.000 C 
ENDBRANCH  13  26
TORSDOF 6
ENDMDL
MODEL 8
REMARK VINA RESULT:      -5.3      2.274      3.427
REMARK  Name = 
REMARK  9 active torsions:
REMARK  status: ('A' for Active; 'I' for Inactive)
REMARK    1  A    between atoms: C_1  and  O_2
REMARK    2  A    between atoms: O_2  and  C_3
REMARK    3  A    between atoms: C_3  and  C_5
REMARK    4  A    between atoms: C_6  and  O_7
REMARK    5  A    between atoms: C_8  and  C_9
REMARK    6  A    between atoms: C_19  and  O_20
REMARK    7  A    between atoms: O_20  and  C_21
REMARK    8  A    between atoms: C_22  and  O_23
REMARK    9  A    between atoms: O_23  and  C_24
REMARK                            x       y       z     vdW  Elec       q    Type
REMARK                         _______ _______ _______ _____ _____    ______ ____
ROOT
ATOM      1  C   UNL     1      -3.001  11.338  17.738  0.00  0.00    +0.000 A 
ATOM      2  C   UNL     1      -4.294  11.515  18.064  0.00  0.00    +0.000 A 
ATOM      3  C   UNL     1      -4.675  12.251  19.258  0.00  0.00    +0.000 A 
ATOM      4  C   UNL     1      -3.738  12.797  20.104  0.00  0.00    +0.000 A 
ATOM      5  N   UNL     1      -2.388  12.639  19.745  0.00  0.00    +0.000 N 
ATOM      6  C   UNL     1      -1.966  11.986  18.578  0.00  0.00    +0.000 A 
ATOM      7  O   UNL     1      -0.779  11.969  18.250  0.00  0.00    +0.000 OA
ATOM      8  C   UNL     1      -1.275  13.159  20.519  0.00  0.00    +0.000 C 
ATOM      9  C   UNL     1      -1.533  13.927  21.791  0.00  0.00    +0.000 C 
ATOM     10  C   UNL     1      -2.965  14.125  22.153  0.00  0.00    +0.000 A 
ATOM     11  C   UNL     1      -3.203  14.882  23.338  0.00  0.00    +0.000 A 
ATOM     12  C   UNL     1      -4.487  15.140  23.822  0.00  0.00    +0.000 A 
ATOM     13  C   UNL     1      -5.545  14.615  23.103  0.00  0.00    +0.000 A 
ATOM     14  C   UNL     1      -5.278  13.863  21.940  0.00  0.00    +0.000 A 
ATOM     15  C   UNL     1      -4.011  13.589  21.394  0.00  0.00    +0.000 A 
ENDROOT
BRANCH   1  16
ATOM     16  C   UNL     1      -2.631  10.522  16.557  0.00  0.00    +0.000 C 
ATOM     17  O   UNL     1      -1.937   9.512  16.641  0.00  0.00    +0.000 OA
BRANCH  16  19
ATOM     18  C   UNL     1      -3.399  10.180  14.347  0.00  0.00    +0.000 C 
ATOM     19  O   UNL     1      -3.095  11.072  15.417  0.00  0.00    +0.000 OA
ENDBRANCH  16  19
ENDBRANCH   1  16
BRANCH   2  20
ATOM     20  O   UNL     1      -5.356  11.014  17.334  0.00  0.00    +0.000 OA
ATOM     21  H   UNL     1      -5.781  11.739  16.823  0.00  0.00    +0.000 HD
ENDBRANCH   2  20
BRANCH   3  22
ATOM     22  C   UNL     1      -6.143  12.424  19.610  0.00  0.00    +0.000 C 
ATOM     23  N   UNL     1      -7.362  12.569  19.901  0.00  0.00    +0.000 NA
ENDBRANCH   3  22
BRANCH  12  24
ATOM     24  O   UNL     1      -4.760  15.857  24.947  0.00  0.00    +0.000 OA
ATOM     25  C   UNL     1      -4.879  17.266  24.835  0.00  0.00    +0.000 C 
ENDBRANCH  12  24
BRANCH  13  26
ATOM     26  O   UNL     1      -6.890  14.704  23.342  0.00  0.00    +0.000 OA
ATOM     27  C   UNL     1      -7.537  13.717  24.123  0.00  0.00    +0.000 C 
ENDBRANCH  13  26
TORSDOF 6
ENDMDL
MODEL 9
REMARK VINA RESULT:      -5.3      1.420      3.422
REMARK  Name = 
REMARK  9 active torsions:
REMARK  status: ('A' for Active; 'I' for Inactive)
REMARK    1  A    between atoms: C_1  and  O_2
REMARK    2  A    between atoms: O_2  and  C_3
REMARK    3  A    between atoms: C_3  and  C_5
REMARK    4  A    between atoms: C_6  and  O_7
REMARK    5  A    between atoms: C_8  and  C_9
REMARK    6  A    between atoms: C_19  and  O_20
REMARK    7  A    between atoms: O_20  and  C_21
REMARK    8  A    between atoms: C_22  and  O_23
REMARK    9  A    between atoms: O_23  and  C_24
REMARK                            x       y       z     vdW  Elec       q    Type
REMARK                         _______ _______ _______ _____ _____    ______ ____
ROOT
ATOM      1  C   UNL     1       0.156  10.498  19.068  0.00  0.00    +0.000 A 
ATOM      2  C   UNL     1       0.154  11.190  20.223  0.00  0.00    +0.000 A 
ATOM      3  C   UNL     1      -1.026  11.915  20.663  0.00  0.00    +0.000 A 
ATOM      4  C   UNL     1      -2.187  11.929  19.925  0.00  0.00    +0.000 A 
ATOM      5  N   UNL     1      -2.193  11.180  18.736  0.00  0.00    +0.000 N 
ATOM      6  C   UNL     1      -1.103  10.419  18.292  0.00  0.00    +0.000 A 
ATOM      7  O   UNL     1      -1.194   9.692  17.301  0.00  0.00    +0.000 OA
ATOM      8  C   UNL     1      -3.336  11.078  17.846  0.00  0.00    +0.000 C 
ATOM      9  C   UNL     1      -4.619  11.799  18.178  0.00  0.00    +0.000 C 
ATOM     10  C   UNL     1      -4.623  12.564  19.457  0.00  0.00    +0.000 A 
ATOM     11  C   UNL     1      -5.850  13.214  19.783  0.00  0.00    +0.000 A 
ATOM     12  C   UNL     1      -6.011  13.985  20.936  0.00  0.00    +0.000 A 
ATOM     13  C   UNL     1      -4.911  14.109  21.765  0.00  0.00    +0.000 A 
ATOM     14  C   UNL     1      -3.710  13.461  21.413  0.00  0.00    +0.000 A 
ATOM     15  C   UNL     1      -3.495  12.658  20.278  0.00  0.00    +0.000 A 
ENDROOT
BRANCH   1  16
ATOM     16  C   UNL     1       1.392   9.827  18.600  0.00  0.00    +0.000 C 
ATOM     17  O   UNL     1       2.047  10.236  17.645  0.00  0.00    +0.000 OA
BRANCH  16  19
ATOM     18  C   UNL     1       2.357   7.669  18.644  0.00  0.00    +0.000 C 
ATOM     19  O   UNL     1       1.639   8.707  19.308  0.00  0.00    +0.000 OA
ENDBRANCH  16  19
ENDBRANCH   1  16
BRANCH   2  20
ATOM     20  O   UNL     1       1.244  11.295  21.068  0.00  0.00    +0.000 OA
ATOM     21  H   UNL     1       1.204  10.589  21.752  0.00  0.00    +0.000 HD
ENDBRANCH   2  20
BRANCH   3  22
ATOM     22  C   UNL     1      -0.996  12.699  21.965  0.00  0.00    +0.000 C 
ATOM     23  N   UNL     1      -0.972  13.349  23.045  0.00  0.00    +0.000 NA
ENDBRANCH   3  22
BRANCH  12  24
ATOM     24  O   UNL     1      -7.162  14.622  21.286  0.00  0.00    +0.000 OA
ATOM     25  C   UNL     1      -7.467  15.857  20.659  0.00  0.00    +0.000 C 
ENDBRANCH  12  24
BRANCH  13  26
ATOM     26  O   UNL     1      -4.782  14.795  22.943  0.00  0.00    +0.000 OA
ATOM     27  C   UNL     1      -4.326  14.128  24.105  0.00  0.00    +0.000 C 
ENDBRANCH  13  26
TORSDOF 6
ENDMDL
