MODEL 1
REMARK VINA RESULT:      -8.6      0.000      0.000
REMARK  Name = 
REMARK  3 active torsions:
REMARK  status: ('A' for Active; 'I' for Inactive)
REMARK    1  A    between atoms: C_2  and  C_3
REMARK    2  A    between atoms: N_11  and  C_12
REMARK    3  A    between atoms: C_14  and  C_15
REMARK                            x       y       z     vdW  Elec       q    Type
REMARK                         _______ _______ _______ _____ _____    ______ ____
ROOT
ATOM      1  C   UNL     1       3.294   5.687  18.023  0.00  0.00    +0.000 A 
ATOM      2  C   UNL     1       4.385   5.704  17.141  0.00  0.00    +0.000 A 
ATOM      3  C   UNL     1       4.831   4.529  16.539  0.00  0.00    +0.000 A 
ATOM      4  N   UNL     1       4.247   3.331  16.796  0.00  0.00    +0.000 NA
ATOM      5  C   UNL     1       3.199   3.285  17.630  0.00  0.00    +0.000 A 
ATOM      6  C   UNL     1       2.616   2.044  17.851  0.00  0.00    +0.000 A 
ATOM      7  C   UNL     1       1.504   1.880  18.680  0.00  0.00    +0.000 A 
ATOM      8  C   UNL     1       0.934   2.990  19.273  0.00  0.00    +0.000 A 
ATOM      9  C   UNL     1       1.489   4.245  19.040  0.00  0.00    +0.000 A 
ATOM     10  C   UNL     1       2.659   4.429  18.256  0.00  0.00    +0.000 A 
ENDROOT
BRANCH   1  16
ATOM     11  O   UNL     1       0.441  10.022  21.504  0.00  0.00    +0.000 OA
ATOM     12  C   UNL     1       0.552  10.036  20.275  0.00  0.00    +0.000 C 
ATOM     13  N   UNL     1       1.259   9.007  19.642  0.00  0.00    +0.000 N 
ATOM     14  C   UNL     1       1.522   8.902  18.195  0.00  0.00    +0.000 C 
ATOM     15  C   UNL     1       2.826   8.144  17.857  0.00  0.00    +0.000 C 
ATOM     16  N   UNL     1       2.843   6.872  18.592  0.00  0.00    +0.000 N 
ATOM     17  C   UNL     1       2.809   7.070  20.052  0.00  0.00    +0.000 C 
ATOM     18  C   UNL     1       1.488   7.774  20.417  0.00  0.00    +0.000 C 
BRANCH  12  19
ATOM     19  C   UNL     1      -0.005  11.153  19.518  0.00  0.00    +0.000 A 
ATOM     20  C   UNL     1      -1.231  11.147  18.872  0.00  0.00    +0.000 A 
ATOM     21  C   UNL     1      -1.477  12.344  18.145  0.00  0.00    +0.000 A 
ATOM     22  C   UNL     1      -0.420  13.220  18.229  0.00  0.00    +0.000 A 
ATOM     23  S   UNL     1       0.885  12.559  19.114  0.00  0.00    +0.000 S 
ENDBRANCH  12  19
ENDBRANCH   1  16
BRANCH   3  24
ATOM     24  C   UNL     1       5.998   4.571  15.564  0.00  0.00    +0.000 C 
ATOM     25  F   UNL     1       6.098   3.447  14.789  0.00  0.00    +0.000 F 
ATOM     26  F   UNL     1       5.923   5.608  14.680  0.00  0.00    +0.000 F 
ATOM     27  F   UNL     1       7.208   4.688  16.180  0.00  0.00    +0.000 F 
ENDBRANCH   3  24
TORSDOF 3
ENDMDL
MODEL 2
REMARK VINA RESULT:      -8.5      0.625      1.098
REMARK  Name = 
REMARK  3 active torsions:
REMARK  status: ('A' for Active; 'I' for Inactive)
REMARK    1  A    between atoms: C_2  and  C_3
REMARK    2  A    between atoms: N_11  and  C_12
REMARK    3  A    between atoms: C_14  and  C_15
REMARK                            x       y       z     vdW  Elec       q    Type
REMARK                         _______ _______ _______ _____ _____    ______ ____
ROOT
ATOM      1  C   UNL     1       3.373   5.609  18.001  0.00  0.00    +0.000 A 
ATOM      2  C   UNL     1       4.478   5.594  17.137  0.00  0.00    +0.000 A 
ATOM      3  C   UNL     1       4.908   4.404  16.554  0.00  0.00    +0.000 A 
ATOM      4  N   UNL     1       4.295   3.221  16.813  0.00  0.00    +0.000 NA
ATOM      5  C   UNL     1       3.233   3.206  17.631  0.00  0.00    +0.000 A 
ATOM      6  C   UNL     1       2.621   1.980  17.854  0.00  0.00    +0.000 A 
ATOM      7  C   UNL     1       1.492   1.847  18.666  0.00  0.00    +0.000 A 
ATOM      8  C   UNL     1       0.936   2.975  19.239  0.00  0.00    +0.000 A 
ATOM      9  C   UNL     1       1.521   4.215  19.002  0.00  0.00    +0.000 A 
ATOM     10  C   UNL     1       2.707   4.367  18.236  0.00  0.00    +0.000 A 
ENDROOT
BRANCH   1  16
ATOM     11  O   UNL     1       0.549  10.038  21.387  0.00  0.00    +0.000 OA
ATOM     12  C   UNL     1       0.686  10.039  20.161  0.00  0.00    +0.000 C 
ATOM     13  N   UNL     1       1.381   8.989  19.551  0.00  0.00    +0.000 N 
ATOM     14  C   UNL     1       1.672   8.865  18.110  0.00  0.00    +0.000 C 
ATOM     15  C   UNL     1       2.964   8.075  17.806  0.00  0.00    +0.000 C 
ATOM     16  N   UNL     1       2.937   6.809  18.551  0.00  0.00    +0.000 N 
ATOM     17  C   UNL     1       2.877   7.021  20.009  0.00  0.00    +0.000 C 
ATOM     18  C   UNL     1       1.566   7.758  20.340  0.00  0.00    +0.000 C 
BRANCH  12  19
ATOM     19  C   UNL     1       0.170  11.162  19.383  0.00  0.00    +0.000 A 
ATOM     20  C   UNL     1       0.748  12.418  19.314  0.00  0.00    +0.000 A 
ATOM     21  C   UNL     1      -0.018  13.337  18.544  0.00  0.00    +0.000 A 
ATOM     22  C   UNL     1      -1.176  12.766  18.071  0.00  0.00    +0.000 A 
ATOM     23  S   UNL     1      -1.365  11.159  18.624  0.00  0.00    +0.000 S 
ENDBRANCH  12  19
ENDBRANCH   1  16
BRANCH   3  24
ATOM     24  C   UNL     1       6.091   4.412  15.599  0.00  0.00    +0.000 C 
ATOM     25  F   UNL     1       6.130   5.517  14.792  0.00  0.00    +0.000 F 
ATOM     26  F   UNL     1       7.298   4.393  16.236  0.00  0.00    +0.000 F 
ATOM     27  F   UNL     1       6.100   3.348  14.746  0.00  0.00    +0.000 F 
ENDBRANCH   3  24
TORSDOF 3
ENDMDL
MODEL 3
REMARK VINA RESULT:      -8.3      2.114      2.771
REMARK  Name = 
REMARK  3 active torsions:
REMARK  status: ('A' for Active; 'I' for Inactive)
REMARK    1  A    between atoms: C_2  and  C_3
REMARK    2  A    between atoms: N_11  and  C_12
REMARK    3  A    between atoms: C_14  and  C_15
REMARK                            x       y       z     vdW  Elec       q    Type
REMARK                         _______ _______ _______ _____ _____    ______ ____
ROOT
ATOM      1  C   UNL     1       3.462   5.875  19.139  0.00  0.00    +0.000 A 
ATOM      2  C   UNL     1       4.830   6.187  19.141  0.00  0.00    +0.000 A 
ATOM      3  C   UNL     1       5.788   5.183  19.016  0.00  0.00    +0.000 A 
ATOM      4  N   UNL     1       5.440   3.875  18.911  0.00  0.00    +0.000 NA
ATOM      5  C   UNL     1       4.141   3.548  18.902  0.00  0.00    +0.000 A 
ATOM      6  C   UNL     1       3.825   2.202  18.772  0.00  0.00    +0.000 A 
ATOM      7  C   UNL     1       2.506   1.747  18.724  0.00  0.00    +0.000 A 
ATOM      8  C   UNL     1       1.473   2.664  18.767  0.00  0.00    +0.000 A 
ATOM      9  C   UNL     1       1.773   4.020  18.869  0.00  0.00    +0.000 A 
ATOM     10  C   UNL     1       3.103   4.501  18.987  0.00  0.00    +0.000 A 
ENDROOT
BRANCH   1  16
ATOM     11  O   UNL     1       0.219  11.188  18.583  0.00  0.00    +0.000 OA
ATOM     12  C   UNL     1       0.458  10.591  19.635  0.00  0.00    +0.000 C 
ATOM     13  N   UNL     1       1.167   9.385  19.590  0.00  0.00    +0.000 N 
ATOM     14  C   UNL     1       1.492   8.529  20.746  0.00  0.00    +0.000 C 
ATOM     15  C   UNL     1       1.622   7.032  20.390  0.00  0.00    +0.000 C 
ATOM     16  N   UNL     1       2.519   6.891  19.234  0.00  0.00    +0.000 N 
ATOM     17  C   UNL     1       2.006   7.590  18.042  0.00  0.00    +0.000 C 
ATOM     18  C   UNL     1       1.923   9.095  18.358  0.00  0.00    +0.000 C 
BRANCH  12  19
ATOM     19  C   UNL     1      -0.051  11.126  20.895  0.00  0.00    +0.000 A 
ATOM     20  C   UNL     1      -0.747  10.401  21.847  0.00  0.00    +0.000 A 
ATOM     21  C   UNL     1      -1.191  11.201  22.935  0.00  0.00    +0.000 A 
ATOM     22  C   UNL     1      -0.848  12.523  22.770  0.00  0.00    +0.000 A 
ATOM     23  S   UNL     1      -0.069  12.796  21.274  0.00  0.00    +0.000 S 
ENDBRANCH  12  19
ENDBRANCH   1  16
BRANCH   3  24
ATOM     24  C   UNL     1       7.266   5.543  18.991  0.00  0.00    +0.000 C 
ATOM     25  F   UNL     1       7.835   5.585  20.235  0.00  0.00    +0.000 F 
ATOM     26  F   UNL     1       8.023   4.656  18.282  0.00  0.00    +0.000 F 
ATOM     27  F   UNL     1       7.511   6.768  18.445  0.00  0.00    +0.000 F 
ENDBRANCH   3  24
TORSDOF 3
ENDMDL
MODEL 4
REMARK VINA RESULT:      -8.0      2.540      3.638
REMARK  Name = 
REMARK  3 active torsions:
REMARK  status: ('A' for Active; 'I' for Inactive)
REMARK    1  A    between atoms: C_2  and  C_3
REMARK    2  A    between atoms: N_11  and  C_12
REMARK    3  A    between atoms: C_14  and  C_15
REMARK                            x       y       z     vdW  Elec       q    Type
REMARK                         _______ _______ _______ _____ _____    ______ ____
ROOT
ATOM      1  C   UNL     1       2.512   5.927  18.670  0.00  0.00    +0.000 A 
ATOM      2  C   UNL     1       1.791   4.819  19.142  0.00  0.00    +0.000 A 
ATOM      3  C   UNL     1       2.048   3.542  18.649  0.00  0.00    +0.000 A 
ATOM      4  N   UNL     1       2.981   3.323  17.688  0.00  0.00    +0.000 NA
ATOM      5  C   UNL     1       3.689   4.361  17.223  0.00  0.00    +0.000 A 
ATOM      6  C   UNL     1       4.648   4.093  16.255  0.00  0.00    +0.000 A 
ATOM      7  C   UNL     1       5.463   5.092  15.717  0.00  0.00    +0.000 A 
ATOM      8  C   UNL     1       5.343   6.387  16.184  0.00  0.00    +0.000 A 
ATOM      9  C   UNL     1       4.405   6.667  17.174  0.00  0.00    +0.000 A 
ATOM     10  C   UNL     1       3.520   5.682  17.689  0.00  0.00    +0.000 A 
ENDROOT
BRANCH   1  16
ATOM     11  O   UNL     1       0.387  10.806  21.946  0.00  0.00    +0.000 OA
ATOM     12  C   UNL     1       0.530  10.761  20.722  0.00  0.00    +0.000 C 
ATOM     13  N   UNL     1       1.058   9.604  20.138  0.00  0.00    +0.000 N 
ATOM     14  C   UNL     1       1.335   9.408  18.702  0.00  0.00    +0.000 C 
ATOM     15  C   UNL     1       2.491   8.422  18.425  0.00  0.00    +0.000 C 
ATOM     16  N   UNL     1       2.264   7.190  19.193  0.00  0.00    +0.000 N 
ATOM     17  C   UNL     1       2.228   7.437  20.646  0.00  0.00    +0.000 C 
ATOM     18  C   UNL     1       1.045   8.375  20.951  0.00  0.00    +0.000 C 
BRANCH  12  19
ATOM     19  C   UNL     1       0.199  11.934  19.918  0.00  0.00    +0.000 A 
ATOM     20  C   UNL     1      -0.893  12.040  19.072  0.00  0.00    +0.000 A 
ATOM     21  C   UNL     1      -0.918  13.268  18.354  0.00  0.00    +0.000 A 
ATOM     22  C   UNL     1       0.172  14.053  18.648  0.00  0.00    +0.000 A 
ATOM     23  S   UNL     1       1.249  13.272  19.721  0.00  0.00    +0.000 S 
ENDBRANCH  12  19
ENDBRANCH   1  16
BRANCH   3  24
ATOM     24  C   UNL     1       1.276   2.349  19.193  0.00  0.00    +0.000 C 
ATOM     25  F   UNL     1       0.867   2.513  20.489  0.00  0.00    +0.000 F 
ATOM     26  F   UNL     1       0.137   2.080  18.490  0.00  0.00    +0.000 F 
ATOM     27  F   UNL     1       2.001   1.194  19.191  0.00  0.00    +0.000 F 
ENDBRANCH   3  24
TORSDOF 3
ENDMDL
MODEL 5
REMARK VINA RESULT:      -8.0      2.573      3.715
REMARK  Name = 
REMARK  3 active torsions:
REMARK  status: ('A' for Active; 'I' for Inactive)
REMARK    1  A    between atoms: C_2  and  C_3
REMARK    2  A    between atoms: N_11  and  C_12
REMARK    3  A    between atoms: C_14  and  C_15
REMARK                            x       y       z     vdW  Elec       q    Type
REMARK                         _______ _______ _______ _____ _____    ______ ____
ROOT
ATOM      1  C   UNL     1       2.583   5.923  18.585  0.00  0.00    +0.000 A 
ATOM      2  C   UNL     1       1.849   4.829  19.067  0.00  0.00    +0.000 A 
ATOM      3  C   UNL     1       2.093   3.543  18.589  0.00  0.00    +0.000 A 
ATOM      4  N   UNL     1       3.027   3.304  17.632  0.00  0.00    +0.000 NA
ATOM      5  C   UNL     1       3.747   4.329  17.157  0.00  0.00    +0.000 A 
ATOM      6  C   UNL     1       4.705   4.041  16.195  0.00  0.00    +0.000 A 
ATOM      7  C   UNL     1       5.532   5.025  15.648  0.00  0.00    +0.000 A 
ATOM      8  C   UNL     1       5.425   6.326  16.101  0.00  0.00    +0.000 A 
ATOM      9  C   UNL     1       4.487   6.627  17.085  0.00  0.00    +0.000 A 
ATOM     10  C   UNL     1       3.591   5.658  17.609  0.00  0.00    +0.000 A 
ENDROOT
BRANCH   1  16
ATOM     11  O   UNL     1       0.470  10.866  21.772  0.00  0.00    +0.000 OA
ATOM     12  C   UNL     1       0.648  10.811  20.553  0.00  0.00    +0.000 C 
ATOM     13  N   UNL     1       1.167   9.639  19.991  0.00  0.00    +0.000 N 
ATOM     14  C   UNL     1       1.481   9.429  18.565  0.00  0.00    +0.000 C 
ATOM     15  C   UNL     1       2.623   8.417  18.326  0.00  0.00    +0.000 C 
ATOM     16  N   UNL     1       2.347   7.195  19.094  0.00  0.00    +0.000 N 
ATOM     17  C   UNL     1       2.275   7.451  20.544  0.00  0.00    +0.000 C 
ATOM     18  C   UNL     1       1.104   8.416  20.810  0.00  0.00    +0.000 C 
BRANCH  12  19
ATOM     19  C   UNL     1       0.365  11.986  19.733  0.00  0.00    +0.000 A 
ATOM     20  C   UNL     1       1.178  13.103  19.631  0.00  0.00    +0.000 A 
ATOM     21  C   UNL     1       0.611  14.127  18.825  0.00  0.00    +0.000 A 
ATOM     22  C   UNL     1      -0.634  13.778  18.356  0.00  0.00    +0.000 A 
ATOM     23  S   UNL     1      -1.137  12.258  18.957  0.00  0.00    +0.000 S 
ENDBRANCH  12  19
ENDBRANCH   1  16
BRANCH   3  24
ATOM     24  C   UNL     1       1.307   2.365  19.143  0.00  0.00    +0.000 C 
ATOM     25  F   UNL     1       0.134   2.134  18.478  0.00  0.00    +0.000 F 
ATOM     26  F   UNL     1       1.991   1.186  19.080  0.00  0.00    +0.000 F 
ATOM     27  F   UNL     1       0.951   2.524  20.450  0.00  0.00    +0.000 F 
ENDBRANCH   3  24
TORSDOF 3
ENDMDL
MODEL 6
REMARK VINA RESULT:      -7.8      1.834      2.570
REMARK  Name = 
REMARK  3 active torsions:
REMARK  status: ('A' for Active; 'I' for Inactive)
REMARK    1  A    between atoms: C_2  and  C_3
REMARK    2  A    between atoms: N_11  and  C_12
REMARK    3  A    between atoms: C_14  and  C_15
REMARK                            x       y       z     vdW  Elec       q    Type
REMARK                         _______ _______ _______ _____ _____    ______ ____
ROOT
ATOM      1  C   UNL     1       3.400   6.308  18.312  0.00  0.00    +0.000 A 
ATOM      2  C   UNL     1       4.731   6.685  18.076  0.00  0.00    +0.000 A 
ATOM      3  C   UNL     1       5.697   5.728  17.774  0.00  0.00    +0.000 A 
ATOM      4  N   UNL     1       5.398   4.405  17.718  0.00  0.00    +0.000 NA
ATOM      5  C   UNL     1       4.134   4.016  17.934  0.00  0.00    +0.000 A 
ATOM      6  C   UNL     1       3.863   2.657  17.848  0.00  0.00    +0.000 A 
ATOM      7  C   UNL     1       2.578   2.140  18.027  0.00  0.00    +0.000 A 
ATOM      8  C   UNL     1       1.527   3.007  18.261  0.00  0.00    +0.000 A 
ATOM      9  C   UNL     1       1.777   4.375  18.324  0.00  0.00    +0.000 A 
ATOM     10  C   UNL     1       3.084   4.919  18.211  0.00  0.00    +0.000 A 
ENDROOT
BRANCH   1  16
ATOM     11  O   UNL     1       0.023  11.559  18.601  0.00  0.00    +0.000 OA
ATOM     12  C   UNL     1       0.329  10.839  19.555  0.00  0.00    +0.000 C 
ATOM     13  N   UNL     1       1.060   9.669  19.321  0.00  0.00    +0.000 N 
ATOM     14  C   UNL     1       1.462   8.682  20.341  0.00  0.00    +0.000 C 
ATOM     15  C   UNL     1       1.604   7.246  19.789  0.00  0.00    +0.000 C 
ATOM     16  N   UNL     1       2.442   7.278  18.583  0.00  0.00    +0.000 N 
ATOM     17  C   UNL     1       1.853   8.109  17.516  0.00  0.00    +0.000 C 
ATOM     18  C   UNL     1       1.756   9.558  18.027  0.00  0.00    +0.000 C 
BRANCH  12  19
ATOM     19  C   UNL     1      -0.125  11.196  20.896  0.00  0.00    +0.000 A 
ATOM     20  C   UNL     1      -0.673  10.316  21.814  0.00  0.00    +0.000 A 
ATOM     21  C   UNL     1      -1.100  10.958  23.009  0.00  0.00    +0.000 A 
ATOM     22  C   UNL     1      -0.896  12.318  22.958  0.00  0.00    +0.000 A 
ATOM     23  S   UNL     1      -0.267  12.811  21.447  0.00  0.00    +0.000 S 
ENDBRANCH  12  19
ENDBRANCH   1  16
BRANCH   3  24
ATOM     24  C   UNL     1       7.129   6.157  17.494  0.00  0.00    +0.000 C 
ATOM     25  F   UNL     1       7.317   7.511  17.581  0.00  0.00    +0.000 F 
ATOM     26  F   UNL     1       8.033   5.615  18.361  0.00  0.00    +0.000 F 
ATOM     27  F   UNL     1       7.557   5.818  16.244  0.00  0.00    +0.000 F 
ENDBRANCH   3  24
TORSDOF 3
ENDMDL
MODEL 7
REMARK VINA RESULT:      -7.7      5.263      8.920
REMARK  Name = 
REMARK  3 active torsions:
REMARK  status: ('A' for Active; 'I' for Inactive)
REMARK    1  A    between atoms: C_2  and  C_3
REMARK    2  A    between atoms: N_11  and  C_12
REMARK    3  A    between atoms: C_14  and  C_15
REMARK                            x       y       z     vdW  Elec       q    Type
REMARK                         _______ _______ _______ _____ _____    ______ ____
ROOT
ATOM      1  C   UNL     1      -0.061  10.411  19.567  0.00  0.00    +0.000 A 
ATOM      2  C   UNL     1      -0.103  11.136  20.767  0.00  0.00    +0.000 A 
ATOM      3  C   UNL     1      -1.184  11.966  21.059  0.00  0.00    +0.000 A 
ATOM      4  N   UNL     1      -2.217  12.121  20.193  0.00  0.00    +0.000 NA
ATOM      5  C   UNL     1      -2.207  11.437  19.041  0.00  0.00    +0.000 A 
ATOM      6  C   UNL     1      -3.292  11.607  18.191  0.00  0.00    +0.000 A 
ATOM      7  C   UNL     1      -3.401  10.925  16.976  0.00  0.00    +0.000 A 
ATOM      8  C   UNL     1      -2.420  10.021  16.618  0.00  0.00    +0.000 A 
ATOM      9  C   UNL     1      -1.339   9.819  17.472  0.00  0.00    +0.000 A 
ATOM     10  C   UNL     1      -1.172  10.548  18.679  0.00  0.00    +0.000 A 
ENDROOT
BRANCH   1  16
ATOM     11  O   UNL     1       4.382   6.935  16.878  0.00  0.00    +0.000 OA
ATOM     12  C   UNL     1       3.646   6.583  17.804  0.00  0.00    +0.000 C 
ATOM     13  N   UNL     1       2.723   7.496  18.326  0.00  0.00    +0.000 N 
ATOM     14  C   UNL     1       1.809   7.250  19.458  0.00  0.00    +0.000 C 
ATOM     15  C   UNL     1       1.445   8.526  20.248  0.00  0.00    +0.000 C 
ATOM     16  N   UNL     1       1.009   9.565  19.304  0.00  0.00    +0.000 N 
ATOM     17  C   UNL     1       2.066   9.923  18.341  0.00  0.00    +0.000 C 
ATOM     18  C   UNL     1       2.404   8.676  17.503  0.00  0.00    +0.000 C 
BRANCH  12  19
ATOM     19  C   UNL     1       3.794   5.245  18.368  0.00  0.00    +0.000 A 
ATOM     20  C   UNL     1       4.838   4.831  19.179  0.00  0.00    +0.000 A 
ATOM     21  C   UNL     1       4.765   3.451  19.514  0.00  0.00    +0.000 A 
ATOM     22  C   UNL     1       3.682   2.840  18.924  0.00  0.00    +0.000 A 
ATOM     23  S   UNL     1       2.817   3.914  17.915  0.00  0.00    +0.000 S 
ENDBRANCH  12  19
ENDBRANCH   1  16
BRANCH   3  24
ATOM     24  C   UNL     1      -1.225  12.723  22.378  0.00  0.00    +0.000 C 
ATOM     25  F   UNL     1      -0.143  13.539  22.569  0.00  0.00    +0.000 F 
ATOM     26  F   UNL     1      -2.313  13.539  22.495  0.00  0.00    +0.000 F 
ATOM     27  F   UNL     1      -1.250  11.903  23.467  0.00  0.00    +0.000 F 
ENDBRANCH   3  24
TORSDOF 3
ENDMDL
MODEL 8
REMARK VINA RESULT:      -7.6      5.199      8.860
REMARK  Name = 
REMARK  3 active torsions:
REMARK  status: ('A' for Active; 'I' for Inactive)
REMARK    1  A    between atoms: C_2  and  C_3
REMARK    2  A    between atoms: N_11  and  C_12
REMARK    3  A    between atoms: C_14  and  C_15
REMARK                            x       y       z     vdW  Elec       q    Type
REMARK                         _______ _______ _______ _____ _____    ______ ____
ROOT
ATOM      1  C   UNL     1      -0.042  10.402  19.537  0.00  0.00    +0.000 A 
ATOM      2  C   UNL     1      -0.075  11.119  20.742  0.00  0.00    +0.000 A 
ATOM      3  C   UNL     1      -1.163  11.930  21.058  0.00  0.00    +0.000 A 
ATOM      4  N   UNL     1      -2.213  12.074  20.210  0.00  0.00    +0.000 NA
ATOM      5  C   UNL     1      -2.212  11.397  19.054  0.00  0.00    +0.000 A 
ATOM      6  C   UNL     1      -3.313  11.555  18.223  0.00  0.00    +0.000 A 
ATOM      7  C   UNL     1      -3.433  10.879  17.006  0.00  0.00    +0.000 A 
ATOM      8  C   UNL     1      -2.444   9.993  16.626  0.00  0.00    +0.000 A 
ATOM      9  C   UNL     1      -1.346   9.802  17.460  0.00  0.00    +0.000 A 
ATOM     10  C   UNL     1      -1.170  10.527  18.669  0.00  0.00    +0.000 A 
ENDROOT
BRANCH   1  16
ATOM     11  O   UNL     1       4.416   7.022  16.752  0.00  0.00    +0.000 OA
ATOM     12  C   UNL     1       3.697   6.649  17.682  0.00  0.00    +0.000 C 
ATOM     13  N   UNL     1       2.767   7.541  18.227  0.00  0.00    +0.000 N 
ATOM     14  C   UNL     1       1.871   7.269  19.366  0.00  0.00    +0.000 C 
ATOM     15  C   UNL     1       1.500   8.531  20.176  0.00  0.00    +0.000 C 
ATOM     16  N   UNL     1       1.037   9.574  19.251  0.00  0.00    +0.000 N 
ATOM     17  C   UNL     1       2.077   9.958  18.279  0.00  0.00    +0.000 C 
ATOM     18  C   UNL     1       2.421   8.726  17.422  0.00  0.00    +0.000 C 
BRANCH  12  19
ATOM     19  C   UNL     1       3.872   5.306  18.228  0.00  0.00    +0.000 A 
ATOM     20  C   UNL     1       2.958   4.271  18.112  0.00  0.00    +0.000 A 
ATOM     21  C   UNL     1       3.357   3.101  18.814  0.00  0.00    +0.000 A 
ATOM     22  C   UNL     1       4.551   3.282  19.472  0.00  0.00    +0.000 A 
ATOM     23  S   UNL     1       5.134   4.880  19.304  0.00  0.00    +0.000 S 
ENDBRANCH  12  19
ENDBRANCH   1  16
BRANCH   3  24
ATOM     24  C   UNL     1      -1.194  12.677  22.382  0.00  0.00    +0.000 C 
ATOM     25  F   UNL     1      -2.247  13.545  22.490  0.00  0.00    +0.000 F 
ATOM     26  F   UNL     1      -1.299  11.852  23.463  0.00  0.00    +0.000 F 
ATOM     27  F   UNL     1      -0.082  13.437  22.596  0.00  0.00    +0.000 F 
ENDBRANCH   3  24
TORSDOF 3
ENDMDL
MODEL 9
REMARK VINA RESULT:      -7.5      1.990      2.553
REMARK  Name = 
REMARK  3 active torsions:
REMARK  status: ('A' for Active; 'I' for Inactive)
REMARK    1  A    between atoms: C_2  and  C_3
REMARK    2  A    between atoms: N_11  and  C_12
REMARK    3  A    between atoms: C_14  and  C_15
REMARK                            x       y       z     vdW  Elec       q    Type
REMARK                         _______ _______ _______ _____ _____    ______ ____
ROOT
ATOM      1  C   UNL     1       3.202   6.244  19.087  0.00  0.00    +0.000 A 
ATOM      2  C   UNL     1       4.318   6.351  18.242  0.00  0.00    +0.000 A 
ATOM      3  C   UNL     1       5.212   5.291  18.108  0.00  0.00    +0.000 A 
ATOM      4  N   UNL     1       5.053   4.133  18.798  0.00  0.00    +0.000 NA
ATOM      5  C   UNL     1       3.993   4.000  19.608  0.00  0.00    +0.000 A 
ATOM      6  C   UNL     1       3.854   2.794  20.281  0.00  0.00    +0.000 A 
ATOM      7  C   UNL     1       2.777   2.533  21.130  0.00  0.00    +0.000 A 
ATOM      8  C   UNL     1       1.790   3.489  21.282  0.00  0.00    +0.000 A 
ATOM      9  C   UNL     1       1.900   4.693  20.594  0.00  0.00    +0.000 A 
ATOM     10  C   UNL     1       3.019   5.008  19.778  0.00  0.00    +0.000 A 
ENDROOT
BRANCH   1  16
ATOM     11  O   UNL     1       0.158  11.671  18.504  0.00  0.00    +0.000 OA
ATOM     12  C   UNL     1       0.407  11.088  19.563  0.00  0.00    +0.000 C 
ATOM     13  N   UNL     1       1.065   9.854  19.524  0.00  0.00    +0.000 N 
ATOM     14  C   UNL     1       1.392   9.011  20.690  0.00  0.00    +0.000 C 
ATOM     15  C   UNL     1       1.450   7.502  20.365  0.00  0.00    +0.000 C 
ATOM     16  N   UNL     1       2.304   7.300  19.186  0.00  0.00    +0.000 N 
ATOM     17  C   UNL     1       1.782   7.992  17.994  0.00  0.00    +0.000 C 
ATOM     18  C   UNL     1       1.769   9.506  18.277  0.00  0.00    +0.000 C 
BRANCH  12  19
ATOM     19  C   UNL     1      -0.041  11.672  20.824  0.00  0.00    +0.000 A 
ATOM     20  C   UNL     1      -0.898  11.063  21.726  0.00  0.00    +0.000 A 
ATOM     21  C   UNL     1      -1.225  11.899  22.828  0.00  0.00    +0.000 A 
ATOM     22  C   UNL     1      -0.633  13.136  22.724  0.00  0.00    +0.000 A 
ATOM     23  S   UNL     1       0.242  13.302  21.264  0.00  0.00    +0.000 S 
ENDBRANCH  12  19
ENDBRANCH   1  16
BRANCH   3  24
ATOM     24  C   UNL     1       6.400   5.415  17.167  0.00  0.00    +0.000 C 
ATOM     25  F   UNL     1       7.503   5.971  17.756  0.00  0.00    +0.000 F 
ATOM     26  F   UNL     1       6.824   4.214  16.676  0.00  0.00    +0.000 F 
ATOM     27  F   UNL     1       6.144   6.196  16.079  0.00  0.00    +0.000 F 
ENDBRANCH   3  24
TORSDOF 3
ENDMDL
