MODEL 1
REMARK VINA RESULT:      -7.8      0.000      0.000
REMARK  Name = 
REMARK  4 active torsions:
REMARK  status: ('A' for Active; 'I' for Inactive)
REMARK    1  A    between atoms: C_2  and  C_3
REMARK    2  A    between atoms: C_2  and  C_12
REMARK    3  A    between atoms: C_4  and  O_5
REMARK    4  A    between atoms: C_4  and  C_6
REMARK                            x       y       z     vdW  Elec       q    Type
REMARK                         _______ _______ _______ _____ _____    ______ ____
ROOT
ATOM      1  O   UNL     1       7.275   5.449  19.820  0.00  0.00    +0.000 OA
ATOM      2  C   UNL     1       6.503   5.406  18.862  0.00  0.00    +0.000 C 
ENDROOT
BRANCH   2   3
ATOM      3  C   UNL     1       7.032   5.607  17.440  0.00  0.00    +0.000 C 
ATOM      4  O   UNL     1       7.757   6.565  17.218  0.00  0.00    +0.000 OA
ATOM      5  N   UNL     1       6.557   4.660  16.565  0.00  0.00    +0.000 N 
ATOM      6  C   UNL     1       6.869   4.709  15.239  0.00  0.00    +0.000 A 
ATOM      7  N   UNL     1       7.741   5.474  14.636  0.00  0.00    +0.000 NA
ATOM      8  C   UNL     1       7.691   5.246  13.277  0.00  0.00    +0.000 A 
ATOM      9  C   UNL     1       6.763   4.312  12.869  0.00  0.00    +0.000 A 
ATOM     10  S   UNL     1       5.975   3.647  14.245  0.00  0.00    +0.000 S 
ATOM     11  H   UNL     1       5.896   3.966  16.890  0.00  0.00    +0.000 HD
ENDBRANCH   2   3
BRANCH   2  12
ATOM     12  C   UNL     1       5.055   5.120  19.003  0.00  0.00    +0.000 C 
ATOM     13  C   UNL     1       4.576   3.896  19.272  0.00  0.00    +0.000 C 
BRANCH  13  14
ATOM     14  C   UNL     1       3.122   3.627  19.386  0.00  0.00    +0.000 A 
ATOM     15  C   UNL     1       2.437   2.831  18.453  0.00  0.00    +0.000 A 
ATOM     16  C   UNL     1       1.067   2.583  18.583  0.00  0.00    +0.000 A 
ATOM     17  C   UNL     1       0.360   3.120  19.655  0.00  0.00    +0.000 A 
ATOM     18  C   UNL     1       1.023   3.900  20.598  0.00  0.00    +0.000 A 
ATOM     19  C   UNL     1       2.392   4.149  20.466  0.00  0.00    +0.000 A 
ENDBRANCH  13  14
BRANCH  13  20
ATOM     20  O   UNL     1       5.383   2.794  19.485  0.00  0.00    +0.000 OA
ATOM     21  H   UNL     1       6.087   3.037  20.119  0.00  0.00    +0.000 HD
ENDBRANCH  13  20
ENDBRANCH   2  12
TORSDOF 4
ENDMDL
MODEL 2
REMARK VINA RESULT:      -7.7      0.256      1.131
REMARK  Name = 
REMARK  4 active torsions:
REMARK  status: ('A' for Active; 'I' for Inactive)
REMARK    1  A    between atoms: C_2  and  C_3
REMARK    2  A    between atoms: C_2  and  C_12
REMARK    3  A    between atoms: C_4  and  O_5
REMARK    4  A    between atoms: C_4  and  C_6
REMARK                            x       y       z     vdW  Elec       q    Type
REMARK                         _______ _______ _______ _____ _____    ______ ____
ROOT
ATOM      1  O   UNL     1       7.367   5.564  19.518  0.00  0.00    +0.000 OA
ATOM      2  C   UNL     1       6.571   5.504  18.582  0.00  0.00    +0.000 C 
ENDROOT
BRANCH   2   3
ATOM      3  C   UNL     1       7.061   5.685  17.144  0.00  0.00    +0.000 C 
ATOM      4  O   UNL     1       7.732   6.670  16.876  0.00  0.00    +0.000 OA
ATOM      5  N   UNL     1       6.619   4.688  16.309  0.00  0.00    +0.000 N 
ATOM      6  C   UNL     1       6.903   4.709  14.975  0.00  0.00    +0.000 A 
ATOM      7  N   UNL     1       7.723   5.497  14.331  0.00  0.00    +0.000 NA
ATOM      8  C   UNL     1       7.659   5.222  12.981  0.00  0.00    +0.000 A 
ATOM      9  C   UNL     1       6.772   4.230  12.622  0.00  0.00    +0.000 A 
ATOM     10  S   UNL     1       6.046   3.571  14.034  0.00  0.00    +0.000 S 
ATOM     11  H   UNL     1       6.001   3.972  16.669  0.00  0.00    +0.000 HD
ENDBRANCH   2   3
BRANCH   2  12
ATOM     12  C   UNL     1       5.128   5.216  18.765  0.00  0.00    +0.000 C 
ATOM     13  C   UNL     1       4.667   4.022  19.169  0.00  0.00    +0.000 C 
BRANCH  13  14
ATOM     14  C   UNL     1       3.219   3.748  19.323  0.00  0.00    +0.000 A 
ATOM     15  C   UNL     1       2.448   4.360  20.326  0.00  0.00    +0.000 A 
ATOM     16  C   UNL     1       1.081   4.093  20.450  0.00  0.00    +0.000 A 
ATOM     17  C   UNL     1       0.459   3.216  19.566  0.00  0.00    +0.000 A 
ATOM     18  C   UNL     1       1.202   2.610  18.557  0.00  0.00    +0.000 A 
ATOM     19  C   UNL     1       2.569   2.876  18.436  0.00  0.00    +0.000 A 
ENDBRANCH  13  14
BRANCH  13  20
ATOM     20  O   UNL     1       5.491   2.960  19.492  0.00  0.00    +0.000 OA
ATOM     21  H   UNL     1       5.885   3.124  20.373  0.00  0.00    +0.000 HD
ENDBRANCH  13  20
ENDBRANCH   2  12
TORSDOF 4
ENDMDL
MODEL 3
REMARK VINA RESULT:      -7.4      2.190      6.588
REMARK  Name = 
REMARK  4 active torsions:
REMARK  status: ('A' for Active; 'I' for Inactive)
REMARK    1  A    between atoms: C_2  and  C_3
REMARK    2  A    between atoms: C_2  and  C_12
REMARK    3  A    between atoms: C_4  and  O_5
REMARK    4  A    between atoms: C_4  and  C_6
REMARK                            x       y       z     vdW  Elec       q    Type
REMARK                         _______ _______ _______ _____ _____    ______ ____
ROOT
ATOM      1  O   UNL     1       7.513   5.091  18.718  0.00  0.00    +0.000 OA
ATOM      2  C   UNL     1       6.480   4.741  18.148  0.00  0.00    +0.000 C 
ENDROOT
BRANCH   2   3
ATOM      3  C   UNL     1       5.148   4.741  18.901  0.00  0.00    +0.000 C 
ATOM      4  O   UNL     1       5.049   5.423  19.910  0.00  0.00    +0.000 OA
ATOM      5  N   UNL     1       4.224   3.898  18.332  0.00  0.00    +0.000 N 
ATOM      6  C   UNL     1       2.996   3.717  18.897  0.00  0.00    +0.000 A 
ATOM      7  N   UNL     1       2.446   4.382  19.880  0.00  0.00    +0.000 NA
ATOM      8  C   UNL     1       1.221   3.828  20.181  0.00  0.00    +0.000 A 
ATOM      9  C   UNL     1       0.865   2.733  19.422  0.00  0.00    +0.000 A 
ATOM     10  S   UNL     1       2.081   2.433  18.244  0.00  0.00    +0.000 S 
ATOM     11  H   UNL     1       4.484   3.337  17.532  0.00  0.00    +0.000 HD
ENDBRANCH   2   3
BRANCH   2  12
ATOM     12  C   UNL     1       6.440   4.348  16.719  0.00  0.00    +0.000 C 
ATOM     13  C   UNL     1       6.955   5.106  15.738  0.00  0.00    +0.000 C 
BRANCH  13  14
ATOM     14  C   UNL     1       6.884   4.705  14.313  0.00  0.00    +0.000 A 
ATOM     15  C   UNL     1       7.764   5.225  13.349  0.00  0.00    +0.000 A 
ATOM     16  C   UNL     1       7.684   4.829  12.010  0.00  0.00    +0.000 A 
ATOM     17  C   UNL     1       6.729   3.897  11.614  0.00  0.00    +0.000 A 
ATOM     18  C   UNL     1       5.857   3.360  12.556  0.00  0.00    +0.000 A 
ATOM     19  C   UNL     1       5.935   3.759  13.894  0.00  0.00    +0.000 A 
ENDBRANCH  13  14
BRANCH  13  20
ATOM     20  O   UNL     1       7.607   6.304  15.967  0.00  0.00    +0.000 OA
ATOM     21  H   UNL     1       6.945   6.978  16.224  0.00  0.00    +0.000 HD
ENDBRANCH  13  20
ENDBRANCH   2  12
TORSDOF 4
ENDMDL
MODEL 4
REMARK VINA RESULT:      -7.4      2.318      6.605
REMARK  Name = 
REMARK  4 active torsions:
REMARK  status: ('A' for Active; 'I' for Inactive)
REMARK    1  A    between atoms: C_2  and  C_3
REMARK    2  A    between atoms: C_2  and  C_12
REMARK    3  A    between atoms: C_4  and  O_5
REMARK    4  A    between atoms: C_4  and  C_6
REMARK                            x       y       z     vdW  Elec       q    Type
REMARK                         _______ _______ _______ _____ _____    ______ ____
ROOT
ATOM      1  O   UNL     1       7.631   4.854  18.894  0.00  0.00    +0.000 OA
ATOM      2  C   UNL     1       6.592   4.632  18.273  0.00  0.00    +0.000 C 
ENDROOT
BRANCH   2   3
ATOM      3  C   UNL     1       5.236   4.771  18.970  0.00  0.00    +0.000 C 
ATOM      4  O   UNL     1       5.064   5.716  19.725  0.00  0.00    +0.000 OA
ATOM      5  N   UNL     1       4.381   3.740  18.666  0.00  0.00    +0.000 N 
ATOM      6  C   UNL     1       3.147   3.657  19.239  0.00  0.00    +0.000 A 
ATOM      7  N   UNL     1       2.527   4.549  19.968  0.00  0.00    +0.000 NA
ATOM      8  C   UNL     1       1.325   4.032  20.402  0.00  0.00    +0.000 A 
ATOM      9  C   UNL     1       1.058   2.739  20.002  0.00  0.00    +0.000 A 
ATOM     10  S   UNL     1       2.329   2.180  18.988  0.00  0.00    +0.000 S 
ATOM     11  H   UNL     1       4.701   2.983  18.076  0.00  0.00    +0.000 HD
ENDBRANCH   2   3
BRANCH   2  12
ATOM     12  C   UNL     1       6.571   4.268  16.836  0.00  0.00    +0.000 C 
ATOM     13  C   UNL     1       6.957   5.108  15.864  0.00  0.00    +0.000 C 
BRANCH  13  14
ATOM     14  C   UNL     1       6.906   4.733  14.431  0.00  0.00    +0.000 A 
ATOM     15  C   UNL     1       5.982   3.794  13.940  0.00  0.00    +0.000 A 
ATOM     16  C   UNL     1       5.946   3.459  12.583  0.00  0.00    +0.000 A 
ATOM     17  C   UNL     1       6.827   4.065  11.691  0.00  0.00    +0.000 A 
ATOM     18  C   UNL     1       7.740   5.007  12.155  0.00  0.00    +0.000 A 
ATOM     19  C   UNL     1       7.777   5.339  13.513  0.00  0.00    +0.000 A 
ENDBRANCH  13  14
BRANCH  13  20
ATOM     20  O   UNL     1       7.450   6.377  16.108  0.00  0.00    +0.000 OA
ATOM     21  H   UNL     1       7.368   6.567  17.066  0.00  0.00    +0.000 HD
ENDBRANCH  13  20
ENDBRANCH   2  12
TORSDOF 4
ENDMDL
MODEL 5
REMARK VINA RESULT:      -7.1      1.077      1.174
REMARK  Name = 
REMARK  4 active torsions:
REMARK  status: ('A' for Active; 'I' for Inactive)
REMARK    1  A    between atoms: C_2  and  C_3
REMARK    2  A    between atoms: C_2  and  C_12
REMARK    3  A    between atoms: C_4  and  O_5
REMARK    4  A    between atoms: C_4  and  C_6
REMARK                            x       y       z     vdW  Elec       q    Type
REMARK                         _______ _______ _______ _____ _____    ______ ____
ROOT
ATOM      1  O   UNL     1       7.329   6.112  19.356  0.00  0.00    +0.000 OA
ATOM      2  C   UNL     1       6.665   5.609  18.451  0.00  0.00    +0.000 C 
ENDROOT
BRANCH   2   3
ATOM      3  C   UNL     1       7.116   5.754  16.996  0.00  0.00    +0.000 C 
ATOM      4  O   UNL     1       7.760   6.743  16.680  0.00  0.00    +0.000 OA
ATOM      5  N   UNL     1       6.672   4.722  16.204  0.00  0.00    +0.000 N 
ATOM      6  C   UNL     1       6.922   4.706  14.863  0.00  0.00    +0.000 A 
ATOM      7  N   UNL     1       7.711   5.489  14.174  0.00  0.00    +0.000 NA
ATOM      8  C   UNL     1       7.618   5.170  12.836  0.00  0.00    +0.000 A 
ATOM      9  C   UNL     1       6.742   4.150  12.530  0.00  0.00    +0.000 A 
ATOM     10  S   UNL     1       6.064   3.524  13.981  0.00  0.00    +0.000 S 
ATOM     11  H   UNL     1       6.077   4.007  16.602  0.00  0.00    +0.000 HD
ENDBRANCH   2   3
BRANCH   2  12
ATOM     12  C   UNL     1       5.439   4.811  18.695  0.00  0.00    +0.000 C 
ATOM     13  C   UNL     1       4.206   5.340  18.668  0.00  0.00    +0.000 C 
BRANCH  13  14
ATOM     14  C   UNL     1       2.995   4.529  18.939  0.00  0.00    +0.000 A 
ATOM     15  C   UNL     1       2.566   3.517  18.063  0.00  0.00    +0.000 A 
ATOM     16  C   UNL     1       1.425   2.758  18.341  0.00  0.00    +0.000 A 
ATOM     17  C   UNL     1       0.698   2.992  19.504  0.00  0.00    +0.000 A 
ATOM     18  C   UNL     1       1.113   3.982  20.391  0.00  0.00    +0.000 A 
ATOM     19  C   UNL     1       2.253   4.742  20.111  0.00  0.00    +0.000 A 
ENDBRANCH  13  14
BRANCH  13  20
ATOM     20  O   UNL     1       3.955   6.667  18.370  0.00  0.00    +0.000 OA
ATOM     21  H   UNL     1       3.258   6.708  17.683  0.00  0.00    +0.000 HD
ENDBRANCH  13  20
ENDBRANCH   2  12
TORSDOF 4
ENDMDL
MODEL 6
REMARK VINA RESULT:      -7.1      1.046      1.577
REMARK  Name = 
REMARK  4 active torsions:
REMARK  status: ('A' for Active; 'I' for Inactive)
REMARK    1  A    between atoms: C_2  and  C_3
REMARK    2  A    between atoms: C_2  and  C_12
REMARK    3  A    between atoms: C_4  and  O_5
REMARK    4  A    between atoms: C_4  and  C_6
REMARK                            x       y       z     vdW  Elec       q    Type
REMARK                         _______ _______ _______ _____ _____    ______ ____
ROOT
ATOM      1  O   UNL     1       7.424   5.978  19.421  0.00  0.00    +0.000 OA
ATOM      2  C   UNL     1       6.733   5.510  18.517  0.00  0.00    +0.000 C 
ENDROOT
BRANCH   2   3
ATOM      3  C   UNL     1       7.161   5.678  17.057  0.00  0.00    +0.000 C 
ATOM      4  O   UNL     1       7.801   6.671  16.748  0.00  0.00    +0.000 OA
ATOM      5  N   UNL     1       6.704   4.659  16.256  0.00  0.00    +0.000 N 
ATOM      6  C   UNL     1       6.933   4.665  14.912  0.00  0.00    +0.000 A 
ATOM      7  N   UNL     1       7.711   5.458  14.222  0.00  0.00    +0.000 NA
ATOM      8  C   UNL     1       7.597   5.162  12.881  0.00  0.00    +0.000 A 
ATOM      9  C   UNL     1       6.716   4.147  12.573  0.00  0.00    +0.000 A 
ATOM     10  S   UNL     1       6.061   3.497  14.024  0.00  0.00    +0.000 S 
ATOM     11  H   UNL     1       6.115   3.938  16.652  0.00  0.00    +0.000 HD
ENDBRANCH   2   3
BRANCH   2  12
ATOM     12  C   UNL     1       5.495   4.733  18.766  0.00  0.00    +0.000 C 
ATOM     13  C   UNL     1       4.271   5.282  18.740  0.00  0.00    +0.000 C 
BRANCH  13  14
ATOM     14  C   UNL     1       3.047   4.491  19.016  0.00  0.00    +0.000 A 
ATOM     15  C   UNL     1       2.348   4.601  20.229  0.00  0.00    +0.000 A 
ATOM     16  C   UNL     1       1.191   3.851  20.466  0.00  0.00    +0.000 A 
ATOM     17  C   UNL     1       0.708   2.986  19.488  0.00  0.00    +0.000 A 
ATOM     18  C   UNL     1       1.379   2.873  18.274  0.00  0.00    +0.000 A 
ATOM     19  C   UNL     1       2.537   3.621  18.039  0.00  0.00    +0.000 A 
ENDBRANCH  13  14
BRANCH  13  20
ATOM     20  O   UNL     1       4.040   6.611  18.440  0.00  0.00    +0.000 OA
ATOM     21  H   UNL     1       3.418   6.980  19.099  0.00  0.00    +0.000 HD
ENDBRANCH  13  20
ENDBRANCH   2  12
TORSDOF 4
ENDMDL
MODEL 7
REMARK VINA RESULT:      -7.1      2.682      6.608
REMARK  Name = 
REMARK  4 active torsions:
REMARK  status: ('A' for Active; 'I' for Inactive)
REMARK    1  A    between atoms: C_2  and  C_3
REMARK    2  A    between atoms: C_2  and  C_12
REMARK    3  A    between atoms: C_4  and  O_5
REMARK    4  A    between atoms: C_4  and  C_6
REMARK                            x       y       z     vdW  Elec       q    Type
REMARK                         _______ _______ _______ _____ _____    ______ ____
ROOT
ATOM      1  O   UNL     1       7.221   5.214  19.205  0.00  0.00    +0.000 OA
ATOM      2  C   UNL     1       6.346   5.217  18.340  0.00  0.00    +0.000 C 
ENDROOT
BRANCH   2   3
ATOM      3  C   UNL     1       4.869   5.244  18.742  0.00  0.00    +0.000 C 
ATOM      4  O   UNL     1       4.221   6.254  18.512  0.00  0.00    +0.000 OA
ATOM      5  N   UNL     1       4.476   4.089  19.374  0.00  0.00    +0.000 N 
ATOM      6  C   UNL     1       3.210   3.949  19.860  0.00  0.00    +0.000 A 
ATOM      7  N   UNL     1       2.176   4.728  19.674  0.00  0.00    +0.000 NA
ATOM      8  C   UNL     1       1.106   4.253  20.402  0.00  0.00    +0.000 A 
ATOM      9  C   UNL     1       1.354   3.118  21.145  0.00  0.00    +0.000 A 
ATOM     10  S   UNL     1       2.966   2.591  20.865  0.00  0.00    +0.000 S 
ATOM     11  H   UNL     1       5.157   3.364  19.559  0.00  0.00    +0.000 HD
ENDBRANCH   2   3
BRANCH   2  12
ATOM     12  C   UNL     1       6.645   5.241  16.888  0.00  0.00    +0.000 C 
ATOM     13  C   UNL     1       6.244   4.277  16.045  0.00  0.00    +0.000 C 
BRANCH  13  14
ATOM     14  C   UNL     1       6.574   4.308  14.599  0.00  0.00    +0.000 A 
ATOM     15  C   UNL     1       5.926   3.477  13.670  0.00  0.00    +0.000 A 
ATOM     16  C   UNL     1       6.247   3.527  12.310  0.00  0.00    +0.000 A 
ATOM     17  C   UNL     1       7.215   4.417  11.854  0.00  0.00    +0.000 A 
ATOM     18  C   UNL     1       7.860   5.258  12.757  0.00  0.00    +0.000 A 
ATOM     19  C   UNL     1       7.540   5.206  14.117  0.00  0.00    +0.000 A 
ENDBRANCH  13  14
BRANCH  13  20
ATOM     20  O   UNL     1       5.481   3.193  16.437  0.00  0.00    +0.000 OA
ATOM     21  H   UNL     1       5.889   2.793  17.232  0.00  0.00    +0.000 HD
ENDBRANCH  13  20
ENDBRANCH   2  12
TORSDOF 4
ENDMDL
MODEL 8
REMARK VINA RESULT:      -7.0      2.835      6.936
REMARK  Name = 
REMARK  4 active torsions:
REMARK  status: ('A' for Active; 'I' for Inactive)
REMARK    1  A    between atoms: C_2  and  C_3
REMARK    2  A    between atoms: C_2  and  C_12
REMARK    3  A    between atoms: C_4  and  O_5
REMARK    4  A    between atoms: C_4  and  C_6
REMARK                            x       y       z     vdW  Elec       q    Type
REMARK                         _______ _______ _______ _____ _____    ______ ____
ROOT
ATOM      1  O   UNL     1       5.196   6.930  17.856  0.00  0.00    +0.000 OA
ATOM      2  C   UNL     1       5.077   5.729  17.617  0.00  0.00    +0.000 C 
ENDROOT
BRANCH   2   3
ATOM      3  C   UNL     1       4.698   4.757  18.737  0.00  0.00    +0.000 C 
ATOM      4  O   UNL     1       5.550   3.987  19.154  0.00  0.00    +0.000 OA
ATOM      5  N   UNL     1       3.378   4.865  19.101  0.00  0.00    +0.000 N 
ATOM      6  C   UNL     1       2.838   4.039  20.043  0.00  0.00    +0.000 A 
ATOM      7  N   UNL     1       3.450   3.198  20.835  0.00  0.00    +0.000 NA
ATOM      8  C   UNL     1       2.519   2.513  21.586  0.00  0.00    +0.000 A 
ATOM      9  C   UNL     1       1.203   2.840  21.337  0.00  0.00    +0.000 A 
ATOM     10  S   UNL     1       1.137   4.102  20.170  0.00  0.00    +0.000 S 
ATOM     11  H   UNL     1       2.773   5.506  18.605  0.00  0.00    +0.000 HD
ENDBRANCH   2   3
BRANCH   2  12
ATOM     12  C   UNL     1       5.241   5.154  16.261  0.00  0.00    +0.000 C 
ATOM     13  C   UNL     1       6.362   5.300  15.537  0.00  0.00    +0.000 C 
BRANCH  13  14
ATOM     14  C   UNL     1       6.497   4.738  14.172  0.00  0.00    +0.000 A 
ATOM     15  C   UNL     1       7.546   5.109  13.314  0.00  0.00    +0.000 A 
ATOM     16  C   UNL     1       7.659   4.561  12.032  0.00  0.00    +0.000 A 
ATOM     17  C   UNL     1       6.731   3.624  11.591  0.00  0.00    +0.000 A 
ATOM     18  C   UNL     1       5.692   3.232  12.430  0.00  0.00    +0.000 A 
ATOM     19  C   UNL     1       5.577   3.783  13.710  0.00  0.00    +0.000 A 
ENDBRANCH  13  14
BRANCH  13  20
ATOM     20  O   UNL     1       7.484   5.963  15.999  0.00  0.00    +0.000 OA
ATOM     21  H   UNL     1       7.467   6.882  15.663  0.00  0.00    +0.000 HD
ENDBRANCH  13  20
ENDBRANCH   2  12
TORSDOF 4
ENDMDL
MODEL 9
REMARK VINA RESULT:      -7.0      2.760      7.013
REMARK  Name = 
REMARK  4 active torsions:
REMARK  status: ('A' for Active; 'I' for Inactive)
REMARK    1  A    between atoms: C_2  and  C_3
REMARK    2  A    between atoms: C_2  and  C_12
REMARK    3  A    between atoms: C_4  and  O_5
REMARK    4  A    between atoms: C_4  and  C_6
REMARK                            x       y       z     vdW  Elec       q    Type
REMARK                         _______ _______ _______ _____ _____    ______ ____
ROOT
ATOM      1  O   UNL     1       6.971   4.711  18.783  0.00  0.00    +0.000 OA
ATOM      2  C   UNL     1       6.005   4.521  18.044  0.00  0.00    +0.000 C 
ENDROOT
BRANCH   2   3
ATOM      3  C   UNL     1       4.583   4.604  18.602  0.00  0.00    +0.000 C 
ATOM      4  O   UNL     1       3.897   5.572  18.310  0.00  0.00    +0.000 OA
ATOM      5  N   UNL     1       4.281   3.548  19.427  0.00  0.00    +0.000 N 
ATOM      6  C   UNL     1       3.079   3.476  20.068  0.00  0.00    +0.000 A 
ATOM      7  N   UNL     1       2.019   4.222  19.894  0.00  0.00    +0.000 NA
ATOM      8  C   UNL     1       1.045   3.853  20.796  0.00  0.00    +0.000 A 
ATOM      9  C   UNL     1       1.391   2.832  21.656  0.00  0.00    +0.000 A 
ATOM     10  S   UNL     1       2.970   2.271  21.271  0.00  0.00    +0.000 S 
ATOM     11  H   UNL     1       4.989   2.855  19.632  0.00  0.00    +0.000 HD
ENDBRANCH   2   3
BRANCH   2  12
ATOM     12  C   UNL     1       6.140   4.252  16.592  0.00  0.00    +0.000 C 
ATOM     13  C   UNL     1       6.829   5.050  15.762  0.00  0.00    +0.000 C 
BRANCH  13  14
ATOM     14  C   UNL     1       6.932   4.775  14.309  0.00  0.00    +0.000 A 
ATOM     15  C   UNL     1       7.801   5.498  13.475  0.00  0.00    +0.000 A 
ATOM     16  C   UNL     1       7.888   5.218  12.107  0.00  0.00    +0.000 A 
ATOM     17  C   UNL     1       7.114   4.203  11.553  0.00  0.00    +0.000 A 
ATOM     18  C   UNL     1       6.257   3.467  12.365  0.00  0.00    +0.000 A 
ATOM     19  C   UNL     1       6.168   3.749  13.731  0.00  0.00    +0.000 A 
ENDBRANCH  13  14
BRANCH  13  20
ATOM     20  O   UNL     1       7.513   6.176  16.184  0.00  0.00    +0.000 OA
ATOM     21  H   UNL     1       6.864   6.840  16.494  0.00  0.00    +0.000 HD
ENDBRANCH  13  20
ENDBRANCH   2  12
TORSDOF 4
ENDMDL
