MODEL 1
REMARK VINA RESULT:      -6.7      0.000      0.000
REMARK  Name = 
REMARK  11 active torsions:
REMARK  status: ('A' for Active; 'I' for Inactive)
REMARK    1  A    between atoms: C_1  and  O_2
REMARK    2  A    between atoms: O_2  and  C_3
REMARK    3  A    between atoms: C_5  and  C_6
REMARK    4  A    between atoms: C_13  and  O_14
REMARK    5  A    between atoms: C_15  and  C_16
REMARK    6  A    between atoms: C_16  and  O_17
REMARK    7  A    between atoms: C_18  and  C_19
REMARK    8  A    between atoms: C_30  and  O_31
REMARK    9  A    between atoms: O_31  and  C_32
REMARK   10  A    between atoms: C_33  and  O_34
REMARK   11  A    between atoms: O_34  and  C_35
REMARK                            x       y       z     vdW  Elec       q    Type
REMARK                         _______ _______ _______ _____ _____    ______ ____
ROOT
ATOM      1  C   UNL     1      -1.937  13.315  20.196  0.00  0.00    +0.000 C 
ATOM      2  C   UNL     1      -1.111  14.686  19.761  0.00  0.00    +0.000 A 
ATOM      3  C   UNL     1      -1.212  16.051  20.069  0.00  0.00    +0.000 A 
ATOM      4  C   UNL     1       0.009  16.790  20.112  0.00  0.00    +0.000 A 
ATOM      5  C   UNL     1       1.231  16.166  20.110  0.00  0.00    +0.000 A 
ATOM      6  C   UNL     1       1.331  15.004  19.497  0.00  0.00    +0.000 A 
ATOM      7  C   UNL     1       0.145  14.368  19.216  0.00  0.00    +0.000 A 
ATOM      8  C   UNL     1       0.314  13.082  18.511  0.00  0.00    +0.000 C 
ATOM      9  C   UNL     1       0.195  12.065  19.692  0.00  0.00    +0.000 C 
ATOM     10  C   UNL     1      -1.350  11.800  19.718  0.00  0.00    +0.000 C 
ATOM     11  O   UNL     1       2.318  16.992  20.233  0.00  0.00    +0.000 OA
ATOM     12  C   UNL     1       1.694  18.059  19.529  0.00  0.00    +0.000 C 
ATOM     13  O   UNL     1       0.267  18.132  19.885  0.00  0.00    +0.000 OA
ENDROOT
BRANCH  10  14
ATOM     14  C   UNL     1      -1.482  10.904  18.357  0.00  0.00    +0.000 C 
ATOM     15  O   UNL     1      -0.587  10.083  18.109  0.00  0.00    +0.000 OA
ATOM     16  N   UNL     1      -2.507  10.907  17.492  0.00  0.00    +0.000 N 
ATOM     17  C   UNL     1      -2.417  10.160  16.228  0.00  0.00    +0.000 C 
ATOM     18  C   UNL     1      -3.413  10.856  15.329  0.00  0.00    +0.000 C 
ATOM     19  C   UNL     1      -4.543  11.166  16.301  0.00  0.00    +0.000 C 
ATOM     20  C   UNL     1      -3.864  11.410  17.648  0.00  0.00    +0.000 C 
ENDBRANCH  10  14
BRANCH   1  23
ATOM     21  C   UNL     1      -3.654  13.741  23.662  0.00  0.00    +0.000 A 
ATOM     22  C   UNL     1      -2.703  13.755  22.643  0.00  0.00    +0.000 A 
ATOM     23  C   UNL     1      -3.003  13.292  21.325  0.00  0.00    +0.000 A 
ATOM     24  C   UNL     1      -4.190  12.587  21.178  0.00  0.00    +0.000 A 
ATOM     25  C   UNL     1      -5.184  12.671  22.149  0.00  0.00    +0.000 A 
ATOM     26  C   UNL     1      -4.951  13.352  23.342  0.00  0.00    +0.000 A 
BRANCH  21  28
ATOM     27  C   UNL     1      -2.973  15.377  25.263  0.00  0.00    +0.000 C 
ATOM     28  O   UNL     1      -3.433  14.067  24.972  0.00  0.00    +0.000 OA
ENDBRANCH  21  28
BRANCH  25  29
ATOM     29  O   UNL     1      -6.388  12.105  21.836  0.00  0.00    +0.000 OA
ATOM     30  C   UNL     1      -6.508  11.991  20.420  0.00  0.00    +0.000 C 
ENDBRANCH  25  29
BRANCH  26  31
ATOM     31  O   UNL     1      -6.004  13.738  24.137  0.00  0.00    +0.000 OA
ATOM     32  C   UNL     1      -6.463  15.030  23.694  0.00  0.00    +0.000 C 
ENDBRANCH  26  31
ENDBRANCH   1  23
BRANCH   8  33
ATOM     33  O   UNL     1      -0.714  13.127  17.504  0.00  0.00    +0.000 OA
ATOM     34  H   UNL     1      -1.295  12.340  17.534  0.00  0.00    +0.000 HD
ENDBRANCH   8  33
BRANCH   9  35
ATOM     35  C   UNL     1       0.797  12.464  21.108  0.00  0.00    +0.000 C 
BRANCH  35  36
ATOM     36  O   UNL     1       0.348  11.622  22.163  0.00  0.00    +0.000 OA
ATOM     37  H   UNL     1       1.054  10.964  22.318  0.00  0.00    +0.000 HD
ENDBRANCH  35  36
ENDBRANCH   9  35
TORSDOF 8
ENDMDL
MODEL 2
REMARK VINA RESULT:      -6.5      1.584      2.299
REMARK  Name = 
REMARK  11 active torsions:
REMARK  status: ('A' for Active; 'I' for Inactive)
REMARK    1  A    between atoms: C_1  and  O_2
REMARK    2  A    between atoms: O_2  and  C_3
REMARK    3  A    between atoms: C_5  and  C_6
REMARK    4  A    between atoms: C_13  and  O_14
REMARK    5  A    between atoms: C_15  and  C_16
REMARK    6  A    between atoms: C_16  and  O_17
REMARK    7  A    between atoms: C_18  and  C_19
REMARK    8  A    between atoms: C_30  and  O_31
REMARK    9  A    between atoms: O_31  and  C_32
REMARK   10  A    between atoms: C_33  and  O_34
REMARK   11  A    between atoms: O_34  and  C_35
REMARK                            x       y       z     vdW  Elec       q    Type
REMARK                         _______ _______ _______ _____ _____    ______ ____
ROOT
ATOM      1  C   UNL     1      -1.073  13.678  20.507  0.00  0.00    +0.000 C 
ATOM      2  C   UNL     1      -0.024  14.639  19.654  0.00  0.00    +0.000 A 
ATOM      3  C   UNL     1       0.488  15.936  19.805  0.00  0.00    +0.000 A 
ATOM      4  C   UNL     1       1.822  16.157  19.346  0.00  0.00    +0.000 A 
ATOM      5  C   UNL     1       2.651  15.116  19.014  0.00  0.00    +0.000 A 
ATOM      6  C   UNL     1       2.104  14.010  18.553  0.00  0.00    +0.000 A 
ATOM      7  C   UNL     1       0.752  13.875  18.766  0.00  0.00    +0.000 A 
ATOM      8  C   UNL     1       0.186  12.629  18.211  0.00  0.00    +0.000 C 
ATOM      9  C   UNL     1       0.139  11.720  19.481  0.00  0.00    +0.000 C 
ATOM     10  C   UNL     1      -1.279  12.060  20.054  0.00  0.00    +0.000 C 
ATOM     11  O   UNL     1       3.930  15.466  18.663  0.00  0.00    +0.000 OA
ATOM     12  C   UNL     1       3.523  16.699  18.080  0.00  0.00    +0.000 C 
ATOM     13  O   UNL     1       2.444  17.303  18.881  0.00  0.00    +0.000 OA
ENDROOT
BRANCH  10  14
ATOM     14  C   UNL     1      -2.199  11.297  18.938  0.00  0.00    +0.000 C 
ATOM     15  O   UNL     1      -1.722  10.307  18.365  0.00  0.00    +0.000 OA
ATOM     16  N   UNL     1      -3.468  11.586  18.612  0.00  0.00    +0.000 N 
ATOM     17  C   UNL     1      -4.118  10.912  17.478  0.00  0.00    +0.000 C 
ATOM     18  C   UNL     1      -5.215  11.868  17.072  0.00  0.00    +0.000 C 
ATOM     19  C   UNL     1      -5.698  12.376  18.425  0.00  0.00    +0.000 C 
ATOM     20  C   UNL     1      -4.461  12.380  19.322  0.00  0.00    +0.000 C 
ENDBRANCH  10  14
BRANCH   1  23
ATOM     21  C   UNL     1      -1.229  15.041  24.149  0.00  0.00    +0.000 A 
ATOM     22  C   UNL     1      -0.765  14.703  22.879  0.00  0.00    +0.000 A 
ATOM     23  C   UNL     1      -1.600  14.048  21.921  0.00  0.00    +0.000 A 
ATOM     24  C   UNL     1      -2.795  13.530  22.400  0.00  0.00    +0.000 A 
ATOM     25  C   UNL     1      -3.311  13.962  23.619  0.00  0.00    +0.000 A 
ATOM     26  C   UNL     1      -2.572  14.813  24.437  0.00  0.00    +0.000 A 
BRANCH  21  28
ATOM     27  C   UNL     1       0.056  16.874  24.979  0.00  0.00    +0.000 C 
ATOM     28  O   UNL     1      -0.482  15.575  25.162  0.00  0.00    +0.000 OA
ENDBRANCH  21  28
BRANCH  25  29
ATOM     29  O   UNL     1      -4.578  13.549  23.923  0.00  0.00    +0.000 OA
ATOM     30  C   UNL     1      -4.518  12.353  24.695  0.00  0.00    +0.000 C 
ENDBRANCH  25  29
BRANCH  26  31
ATOM     31  O   UNL     1      -3.189  15.512  25.448  0.00  0.00    +0.000 OA
ATOM     32  C   UNL     1      -3.732  16.729  24.899  0.00  0.00    +0.000 C 
ENDBRANCH  26  31
ENDBRANCH   1  23
BRANCH   8  33
ATOM     33  O   UNL     1      -1.044  13.073  17.608  0.00  0.00    +0.000 OA
ATOM     34  H   UNL     1      -0.988  13.999  17.295  0.00  0.00    +0.000 HD
ENDBRANCH   8  33
BRANCH   9  35
ATOM     35  C   UNL     1       1.306  11.843  20.553  0.00  0.00    +0.000 C 
BRANCH  35  36
ATOM     36  O   UNL     1       1.076  11.064  21.720  0.00  0.00    +0.000 OA
ATOM     37  H   UNL     1       0.195  10.653  21.615  0.00  0.00    +0.000 HD
ENDBRANCH  35  36
ENDBRANCH   9  35
TORSDOF 8
ENDMDL
MODEL 3
REMARK VINA RESULT:      -6.5      0.639      2.146
REMARK  Name = 
REMARK  11 active torsions:
REMARK  status: ('A' for Active; 'I' for Inactive)
REMARK    1  A    between atoms: C_1  and  O_2
REMARK    2  A    between atoms: O_2  and  C_3
REMARK    3  A    between atoms: C_5  and  C_6
REMARK    4  A    between atoms: C_13  and  O_14
REMARK    5  A    between atoms: C_15  and  C_16
REMARK    6  A    between atoms: C_16  and  O_17
REMARK    7  A    between atoms: C_18  and  C_19
REMARK    8  A    between atoms: C_30  and  O_31
REMARK    9  A    between atoms: O_31  and  C_32
REMARK   10  A    between atoms: C_33  and  O_34
REMARK   11  A    between atoms: O_34  and  C_35
REMARK                            x       y       z     vdW  Elec       q    Type
REMARK                         _______ _______ _______ _____ _____    ______ ____
ROOT
ATOM      1  C   UNL     1      -2.085  13.115  20.150  0.00  0.00    +0.000 C 
ATOM      2  C   UNL     1      -1.224  14.493  19.820  0.00  0.00    +0.000 A 
ATOM      3  C   UNL     1      -1.345  15.849  20.156  0.00  0.00    +0.000 A 
ATOM      4  C   UNL     1      -0.129  16.581  20.316  0.00  0.00    +0.000 A 
ATOM      5  C   UNL     1       1.086  15.952  20.395  0.00  0.00    +0.000 A 
ATOM      6  C   UNL     1       1.233  14.806  19.762  0.00  0.00    +0.000 A 
ATOM      7  C   UNL     1       0.071  14.183  19.369  0.00  0.00    +0.000 A 
ATOM      8  C   UNL     1       0.293  12.916  18.646  0.00  0.00    +0.000 C 
ATOM      9  C   UNL     1       0.076  11.869  19.785  0.00  0.00    +0.000 C 
ATOM     10  C   UNL     1      -1.466  11.611  19.680  0.00  0.00    +0.000 C 
ATOM     11  O   UNL     1       2.163  16.768  20.628  0.00  0.00    +0.000 OA
ATOM     12  C   UNL     1       1.600  17.857  19.905  0.00  0.00    +0.000 C 
ATOM     13  O   UNL     1       0.149  17.928  20.148  0.00  0.00    +0.000 OA
ENDROOT
BRANCH  10  14
ATOM     14  C   UNL     1      -1.491  10.752  18.289  0.00  0.00    +0.000 C 
ATOM     15  O   UNL     1      -0.549   9.978  18.063  0.00  0.00    +0.000 OA
ATOM     16  N   UNL     1      -2.471  10.737  17.373  0.00  0.00    +0.000 N 
ATOM     17  C   UNL     1      -2.286  10.034  16.095  0.00  0.00    +0.000 C 
ATOM     18  C   UNL     1      -3.267  10.713  15.167  0.00  0.00    +0.000 C 
ATOM     19  C   UNL     1      -4.456  10.944  16.090  0.00  0.00    +0.000 C 
ATOM     20  C   UNL     1      -3.856  11.175  17.475  0.00  0.00    +0.000 C 
ENDBRANCH  10  14
BRANCH   1  23
ATOM     21  C   UNL     1      -5.626  12.738  21.720  0.00  0.00    +0.000 A 
ATOM     22  C   UNL     1      -4.584  12.786  20.795  0.00  0.00    +0.000 A 
ATOM     23  C   UNL     1      -3.239  13.067  21.188  0.00  0.00    +0.000 A 
ATOM     24  C   UNL     1      -3.065  13.549  22.479  0.00  0.00    +0.000 A 
ATOM     25  C   UNL     1      -4.069  13.392  23.431  0.00  0.00    +0.000 A 
ATOM     26  C   UNL     1      -5.311  12.875  23.068  0.00  0.00    +0.000 A 
BRANCH  21  28
ATOM     27  C   UNL     1      -7.577  13.552  20.608  0.00  0.00    +0.000 C 
ATOM     28  O   UNL     1      -6.953  12.577  21.428  0.00  0.00    +0.000 OA
ENDBRANCH  21  28
BRANCH  25  29
ATOM     29  O   UNL     1      -3.743  13.719  24.717  0.00  0.00    +0.000 OA
ATOM     30  C   UNL     1      -3.462  15.114  24.798  0.00  0.00    +0.000 C 
ENDBRANCH  25  29
BRANCH  26  31
ATOM     31  O   UNL     1      -6.169  12.396  24.030  0.00  0.00    +0.000 OA
ATOM     32  C   UNL     1      -7.132  13.423  24.339  0.00  0.00    +0.000 C 
ENDBRANCH  26  31
ENDBRANCH   1  23
BRANCH   8  33
ATOM     33  O   UNL     1      -0.651  12.993  17.561  0.00  0.00    +0.000 OA
ATOM     34  H   UNL     1      -1.209  13.795  17.614  0.00  0.00    +0.000 HD
ENDBRANCH   8  33
BRANCH   9  35
ATOM     35  C   UNL     1       0.564  12.226  21.255  0.00  0.00    +0.000 C 
BRANCH  35  36
ATOM     36  O   UNL     1       0.099  11.307  22.236  0.00  0.00    +0.000 OA
ATOM     37  H   UNL     1       0.674  11.418  23.019  0.00  0.00    +0.000 HD
ENDBRANCH  35  36
ENDBRANCH   9  35
TORSDOF 8
ENDMDL
MODEL 4
REMARK VINA RESULT:      -6.4      2.824      4.597
REMARK  Name = 
REMARK  11 active torsions:
REMARK  status: ('A' for Active; 'I' for Inactive)
REMARK    1  A    between atoms: C_1  and  O_2
REMARK    2  A    between atoms: O_2  and  C_3
REMARK    3  A    between atoms: C_5  and  C_6
REMARK    4  A    between atoms: C_13  and  O_14
REMARK    5  A    between atoms: C_15  and  C_16
REMARK    6  A    between atoms: C_16  and  O_17
REMARK    7  A    between atoms: C_18  and  C_19
REMARK    8  A    between atoms: C_30  and  O_31
REMARK    9  A    between atoms: O_31  and  C_32
REMARK   10  A    between atoms: C_33  and  O_34
REMARK   11  A    between atoms: O_34  and  C_35
REMARK                            x       y       z     vdW  Elec       q    Type
REMARK                         _______ _______ _______ _____ _____    ______ ____
ROOT
ATOM      1  C   UNL     1      -0.894  12.002  18.963  0.00  0.00    +0.000 C 
ATOM      2  C   UNL     1      -0.276  13.420  19.561  0.00  0.00    +0.000 A 
ATOM      3  C   UNL     1      -0.735  14.741  19.670  0.00  0.00    +0.000 A 
ATOM      4  C   UNL     1      -0.295  15.480  20.810  0.00  0.00    +0.000 A 
ATOM      5  C   UNL     1       0.326  14.870  21.870  0.00  0.00    +0.000 A 
ATOM      6  C   UNL     1       1.033  13.785  21.633  0.00  0.00    +0.000 A 
ATOM      7  C   UNL     1       0.809  13.174  20.421  0.00  0.00    +0.000 A 
ATOM      8  C   UNL     1       1.642  11.976  20.197  0.00  0.00    +0.000 C 
ATOM      9  C   UNL     1       0.647  10.834  20.580  0.00  0.00    +0.000 C 
ATOM     10  C   UNL     1      -0.049  10.555  19.204  0.00  0.00    +0.000 C 
ATOM     11  O   UNL     1       0.625  15.686  22.931  0.00  0.00    +0.000 OA
ATOM     12  C   UNL     1       0.855  16.820  22.103  0.00  0.00    +0.000 C 
ATOM     13  O   UNL     1      -0.116  16.841  20.995  0.00  0.00    +0.000 OA
ENDROOT
BRANCH  10  14
ATOM     14  C   UNL     1       1.188   9.815  18.433  0.00  0.00    +0.000 C 
ATOM     15  O   UNL     1       1.706  10.395  17.467  0.00  0.00    +0.000 OA
ATOM     16  N   UNL     1       1.767   8.655  18.776  0.00  0.00    +0.000 N 
ATOM     17  C   UNL     1       2.769   8.034  17.897  0.00  0.00    +0.000 C 
ATOM     18  C   UNL     1       2.724   6.572  18.278  0.00  0.00    +0.000 C 
ATOM     19  C   UNL     1       2.539   6.652  19.787  0.00  0.00    +0.000 C 
ATOM     20  C   UNL     1       1.714   7.915  20.029  0.00  0.00    +0.000 C 
ENDBRANCH  10  14
BRANCH   1  23
ATOM     21  C   UNL     1      -4.783  11.903  19.053  0.00  0.00    +0.000 A 
ATOM     22  C   UNL     1      -3.451  12.039  19.441  0.00  0.00    +0.000 A 
ATOM     23  C   UNL     1      -2.375  11.845  18.521  0.00  0.00    +0.000 A 
ATOM     24  C   UNL     1      -2.703  11.259  17.306  0.00  0.00    +0.000 A 
ATOM     25  C   UNL     1      -4.027  11.231  16.873  0.00  0.00    +0.000 A 
ATOM     26  C   UNL     1      -5.053  11.666  17.709  0.00  0.00    +0.000 A 
BRANCH  21  28
ATOM     27  C   UNL     1      -5.735  12.672  21.104  0.00  0.00    +0.000 C 
ATOM     28  O   UNL     1      -5.872  11.970  19.879  0.00  0.00    +0.000 OA
ENDBRANCH  21  28
BRANCH  25  29
ATOM     29  O   UNL     1      -4.237  10.813  15.589  0.00  0.00    +0.000 OA
ATOM     30  C   UNL     1      -3.001  10.394  15.015  0.00  0.00    +0.000 C 
ENDBRANCH  25  29
BRANCH  26  31
ATOM     31  O   UNL     1      -6.289  11.970  17.188  0.00  0.00    +0.000 OA
ATOM     32  C   UNL     1      -6.363  13.395  16.986  0.00  0.00    +0.000 C 
ENDBRANCH  26  31
ENDBRANCH   1  23
BRANCH   8  33
ATOM     33  O   UNL     1       2.063  12.125  18.829  0.00  0.00    +0.000 OA
ATOM     34  H   UNL     1       1.328  12.403  18.245  0.00  0.00    +0.000 HD
ENDBRANCH   8  33
BRANCH   9  35
ATOM     35  C   UNL     1      -0.374  11.076  21.774  0.00  0.00    +0.000 C 
BRANCH  35  36
ATOM     36  O   UNL     1       0.076  10.537  23.011  0.00  0.00    +0.000 OA
ATOM     37  H   UNL     1      -0.601  10.764  23.679  0.00  0.00    +0.000 HD
ENDBRANCH  35  36
ENDBRANCH   9  35
TORSDOF 8
ENDMDL
MODEL 5
REMARK VINA RESULT:      -6.3      2.109      6.842
REMARK  Name = 
REMARK  11 active torsions:
REMARK  status: ('A' for Active; 'I' for Inactive)
REMARK    1  A    between atoms: C_1  and  O_2
REMARK    2  A    between atoms: O_2  and  C_3
REMARK    3  A    between atoms: C_5  and  C_6
REMARK    4  A    between atoms: C_13  and  O_14
REMARK    5  A    between atoms: C_15  and  C_16
REMARK    6  A    between atoms: C_16  and  O_17
REMARK    7  A    between atoms: C_18  and  C_19
REMARK    8  A    between atoms: C_30  and  O_31
REMARK    9  A    between atoms: O_31  and  C_32
REMARK   10  A    between atoms: C_33  and  O_34
REMARK   11  A    between atoms: O_34  and  C_35
REMARK                            x       y       z     vdW  Elec       q    Type
REMARK                         _______ _______ _______ _____ _____    ______ ____
ROOT
ATOM      1  C   UNL     1      -2.383  12.879  20.658  0.00  0.00    +0.000 C 
ATOM      2  C   UNL     1      -3.743  13.240  21.537  0.00  0.00    +0.000 A 
ATOM      3  C   UNL     1      -5.123  13.075  21.350  0.00  0.00    +0.000 A 
ATOM      4  C   UNL     1      -5.904  12.834  22.521  0.00  0.00    +0.000 A 
ATOM      5  C   UNL     1      -5.323  12.523  23.724  0.00  0.00    +0.000 A 
ATOM      6  C   UNL     1      -4.121  13.000  23.973  0.00  0.00    +0.000 A 
ATOM      7  C   UNL     1      -3.425  13.474  22.886  0.00  0.00    +0.000 A 
ATOM      8  C   UNL     1      -2.094  14.017  23.223  0.00  0.00    +0.000 C 
ATOM      9  C   UNL     1      -1.170  12.809  22.868  0.00  0.00    +0.000 C 
ATOM     10  C   UNL     1      -0.856  13.092  21.359  0.00  0.00    +0.000 C 
ATOM     11  O   UNL     1      -6.191  12.238  24.746  0.00  0.00    +0.000 OA
ATOM     12  C   UNL     1      -7.179  13.147  24.272  0.00  0.00    +0.000 C 
ATOM     13  O   UNL     1      -7.232  13.111  22.800  0.00  0.00    +0.000 OA
ENDROOT
BRANCH  10  14
ATOM     14  C   UNL     1       0.148  14.370  21.538  0.00  0.00    +0.000 C 
ATOM     15  O   UNL     1       0.850  14.423  22.558  0.00  0.00    +0.000 OA
ATOM     16  N   UNL     1       0.354  15.358  20.654  0.00  0.00    +0.000 N 
ATOM     17  C   UNL     1       1.171  16.525  21.018  0.00  0.00    +0.000 C 
ATOM     18  C   UNL     1       0.692  17.606  20.077  0.00  0.00    +0.000 C 
ATOM     19  C   UNL     1       0.474  16.821  18.790  0.00  0.00    +0.000 C 
ATOM     20  C   UNL     1       0.038  15.426  19.234  0.00  0.00    +0.000 C 
ENDBRANCH  10  14
BRANCH   1  23
ATOM     21  C   UNL     1      -1.330  10.377  17.870  0.00  0.00    +0.000 A 
ATOM     22  C   UNL     1      -1.312  11.165  19.019  0.00  0.00    +0.000 A 
ATOM     23  C   UNL     1      -2.412  12.007  19.374  0.00  0.00    +0.000 A 
ATOM     24  C   UNL     1      -3.375  12.204  18.394  0.00  0.00    +0.000 A 
ATOM     25  C   UNL     1      -3.460  11.340  17.305  0.00  0.00    +0.000 A 
ATOM     26  C   UNL     1      -2.498  10.350  17.113  0.00  0.00    +0.000 A 
BRANCH  21  28
ATOM     27  C   UNL     1       0.921   9.624  18.130  0.00  0.00    +0.000 C 
ATOM     28  O   UNL     1      -0.293   9.622  17.396  0.00  0.00    +0.000 OA
ENDBRANCH  21  28
BRANCH  25  29
ATOM     29  O   UNL     1      -4.550  11.489  16.494  0.00  0.00    +0.000 OA
ATOM     30  C   UNL     1      -5.591  12.146  17.211  0.00  0.00    +0.000 C 
ENDBRANCH  25  29
BRANCH  26  31
ATOM     31  O   UNL     1      -2.750   9.293  16.270  0.00  0.00    +0.000 OA
ATOM     32  C   UNL     1      -2.752   9.779  14.913  0.00  0.00    +0.000 C 
ENDBRANCH  26  31
ENDBRANCH   1  23
BRANCH   8  33
ATOM     33  O   UNL     1      -2.026  15.221  22.437  0.00  0.00    +0.000 OA
ATOM     34  H   UNL     1      -1.500  15.099  21.620  0.00  0.00    +0.000 HD
ENDBRANCH   8  33
BRANCH   9  35
ATOM     35  C   UNL     1      -1.697  11.335  23.144  0.00  0.00    +0.000 C 
BRANCH  35  36
ATOM     36  O   UNL     1      -0.653  10.413  23.432  0.00  0.00    +0.000 OA
ATOM     37  H   UNL     1      -0.417  10.540  24.372  0.00  0.00    +0.000 HD
ENDBRANCH  35  36
ENDBRANCH   9  35
TORSDOF 8
ENDMDL
MODEL 6
REMARK VINA RESULT:      -6.1      1.647      2.896
REMARK  Name = 
REMARK  11 active torsions:
REMARK  status: ('A' for Active; 'I' for Inactive)
REMARK    1  A    between atoms: C_1  and  O_2
REMARK    2  A    between atoms: O_2  and  C_3
REMARK    3  A    between atoms: C_5  and  C_6
REMARK    4  A    between atoms: C_13  and  O_14
REMARK    5  A    between atoms: C_15  and  C_16
REMARK    6  A    between atoms: C_16  and  O_17
REMARK    7  A    between atoms: C_18  and  C_19
REMARK    8  A    between atoms: C_30  and  O_31
REMARK    9  A    between atoms: O_31  and  C_32
REMARK   10  A    between atoms: C_33  and  O_34
REMARK   11  A    between atoms: O_34  and  C_35
REMARK                            x       y       z     vdW  Elec       q    Type
REMARK                         _______ _______ _______ _____ _____    ______ ____
ROOT
ATOM      1  C   UNL     1      -1.206  13.876  20.330  0.00  0.00    +0.000 C 
ATOM      2  C   UNL     1      -0.081  14.734  19.465  0.00  0.00    +0.000 A 
ATOM      3  C   UNL     1       0.459  16.026  19.538  0.00  0.00    +0.000 A 
ATOM      4  C   UNL     1       1.824  16.174  19.144  0.00  0.00    +0.000 A 
ATOM      5  C   UNL     1       2.641  15.088  18.952  0.00  0.00    +0.000 A 
ATOM      6  C   UNL     1       2.089  13.961  18.554  0.00  0.00    +0.000 A 
ATOM      7  C   UNL     1       0.724  13.877  18.694  0.00  0.00    +0.000 A 
ATOM      8  C   UNL     1       0.154  12.603  18.212  0.00  0.00    +0.000 C 
ATOM      9  C   UNL     1       0.006  11.808  19.549  0.00  0.00    +0.000 C 
ATOM     10  C   UNL     1      -1.433  12.231  20.003  0.00  0.00    +0.000 C 
ATOM     11  O   UNL     1       3.948  15.375  18.653  0.00  0.00    +0.000 OA
ATOM     12  C   UNL     1       3.612  16.563  17.944  0.00  0.00    +0.000 C 
ATOM     13  O   UNL     1       2.507  17.261  18.623  0.00  0.00    +0.000 OA
ENDROOT
BRANCH  10  14
ATOM     14  C   UNL     1      -2.308  11.397  18.901  0.00  0.00    +0.000 C 
ATOM     15  O   UNL     1      -1.782  10.413  18.360  0.00  0.00    +0.000 OA
ATOM     16  N   UNL     1      -3.585  11.621  18.555  0.00  0.00    +0.000 N 
ATOM     17  C   UNL     1      -4.193  10.888  17.436  0.00  0.00    +0.000 C 
ATOM     18  C   UNL     1      -5.327  11.783  16.993  0.00  0.00    +0.000 C 
ATOM     19  C   UNL     1      -5.845  12.307  18.327  0.00  0.00    +0.000 C 
ATOM     20  C   UNL     1      -4.619  12.390  19.234  0.00  0.00    +0.000 C 
ENDBRANCH  10  14
BRANCH   1  23
ATOM     21  C   UNL     1      -2.930  13.916  23.819  0.00  0.00    +0.000 A 
ATOM     22  C   UNL     1      -2.393  13.475  22.610  0.00  0.00    +0.000 A 
ATOM     23  C   UNL     1      -1.804  14.378  21.672  0.00  0.00    +0.000 A 
ATOM     24  C   UNL     1      -2.030  15.730  21.897  0.00  0.00    +0.000 A 
ATOM     25  C   UNL     1      -2.457  16.175  23.146  0.00  0.00    +0.000 A 
ATOM     26  C   UNL     1      -2.793  15.262  24.144  0.00  0.00    +0.000 A 
BRANCH  21  28
ATOM     27  C   UNL     1      -4.883  12.657  24.371  0.00  0.00    +0.000 C 
ATOM     28  O   UNL     1      -3.601  13.146  24.729  0.00  0.00    +0.000 OA
ENDBRANCH  21  28
BRANCH  25  29
ATOM     29  O   UNL     1      -2.468  17.528  23.337  0.00  0.00    +0.000 OA
ATOM     30  C   UNL     1      -1.407  18.123  22.595  0.00  0.00    +0.000 C 
ENDBRANCH  25  29
BRANCH  26  31
ATOM     31  O   UNL     1      -2.873  15.668  25.455  0.00  0.00    +0.000 OA
ATOM     32  C   UNL     1      -1.555  15.611  26.034  0.00  0.00    +0.000 C 
ENDBRANCH  26  31
ENDBRANCH   1  23
BRANCH   8  33
ATOM     33  O   UNL     1      -1.024  13.023  17.499  0.00  0.00    +0.000 OA
ATOM     34  H   UNL     1      -1.826  12.554  17.804  0.00  0.00    +0.000 HD
ENDBRANCH   8  33
BRANCH   9  35
ATOM     35  C   UNL     1       1.110  11.994  20.676  0.00  0.00    +0.000 C 
BRANCH  35  36
ATOM     36  O   UNL     1       0.759  11.378  21.910  0.00  0.00    +0.000 OA
ATOM     37  H   UNL     1       1.596  11.122  22.345  0.00  0.00    +0.000 HD
ENDBRANCH  35  36
ENDBRANCH   9  35
TORSDOF 8
ENDMDL
MODEL 7
REMARK VINA RESULT:      -6.1      1.093      1.112
REMARK  Name = 
REMARK  11 active torsions:
REMARK  status: ('A' for Active; 'I' for Inactive)
REMARK    1  A    between atoms: C_1  and  O_2
REMARK    2  A    between atoms: O_2  and  C_3
REMARK    3  A    between atoms: C_5  and  C_6
REMARK    4  A    between atoms: C_13  and  O_14
REMARK    5  A    between atoms: C_15  and  C_16
REMARK    6  A    between atoms: C_16  and  O_17
REMARK    7  A    between atoms: C_18  and  C_19
REMARK    8  A    between atoms: C_30  and  O_31
REMARK    9  A    between atoms: O_31  and  C_32
REMARK   10  A    between atoms: C_33  and  O_34
REMARK   11  A    between atoms: O_34  and  C_35
REMARK                            x       y       z     vdW  Elec       q    Type
REMARK                         _______ _______ _______ _____ _____    ______ ____
ROOT
ATOM      1  C   UNL     1      -1.576  13.811  20.205  0.00  0.00    +0.000 C 
ATOM      2  C   UNL     1      -0.946  15.122  19.407  0.00  0.00    +0.000 A 
ATOM      3  C   UNL     1      -1.203  16.500  19.396  0.00  0.00    +0.000 A 
ATOM      4  C   UNL     1      -0.082  17.359  19.180  0.00  0.00    +0.000 A 
ATOM      5  C   UNL     1       1.206  16.892  19.238  0.00  0.00    +0.000 A 
ATOM      6  C   UNL     1       1.425  15.636  18.906  0.00  0.00    +0.000 A 
ATOM      7  C   UNL     1       0.316  14.824  18.864  0.00  0.00    +0.000 A 
ATOM      8  C   UNL     1       0.614  13.433  18.467  0.00  0.00    +0.000 C 
ATOM      9  C   UNL     1       0.671  12.721  19.857  0.00  0.00    +0.000 C 
ATOM     10  C   UNL     1      -0.826  12.301  20.052  0.00  0.00    +0.000 C 
ATOM     11  O   UNL     1       2.187  17.839  19.090  0.00  0.00    +0.000 OA
ATOM     12  C   UNL     1       1.406  18.631  18.202  0.00  0.00    +0.000 C 
ATOM     13  O   UNL     1      -0.003  18.628  18.631  0.00  0.00    +0.000 OA
ENDROOT
BRANCH  10  14
ATOM     14  C   UNL     1      -0.902  11.096  18.948  0.00  0.00    +0.000 C 
ATOM     15  O   UNL     1       0.039  10.291  18.896  0.00  0.00    +0.000 OA
ATOM     16  N   UNL     1      -1.923  10.832  18.119  0.00  0.00    +0.000 N 
ATOM     17  C   UNL     1      -1.787   9.809  17.072  0.00  0.00    +0.000 C 
ATOM     18  C   UNL     1      -2.818  10.209  16.043  0.00  0.00    +0.000 C 
ATOM     19  C   UNL     1      -3.967  10.681  16.925  0.00  0.00    +0.000 C 
ATOM     20  C   UNL     1      -3.308  11.281  18.165  0.00  0.00    +0.000 C 
ENDBRANCH  10  14
BRANCH   1  23
ATOM     21  C   UNL     1      -3.261  14.982  23.511  0.00  0.00    +0.000 A 
ATOM     22  C   UNL     1      -2.361  14.857  22.454  0.00  0.00    +0.000 A 
ATOM     23  C   UNL     1      -2.583  13.940  21.380  0.00  0.00    +0.000 A 
ATOM     24  C   UNL     1      -3.587  13.001  21.572  0.00  0.00    +0.000 A 
ATOM     25  C   UNL     1      -4.552  13.192  22.558  0.00  0.00    +0.000 A 
ATOM     26  C   UNL     1      -4.446  14.256  23.452  0.00  0.00    +0.000 A 
BRANCH  21  28
ATOM     27  C   UNL     1      -2.254  15.251  25.660  0.00  0.00    +0.000 C 
ATOM     28  O   UNL     1      -3.087  15.753  24.628  0.00  0.00    +0.000 OA
ENDBRANCH  21  28
BRANCH  25  29
ATOM     29  O   UNL     1      -5.607  12.324  22.552  0.00  0.00    +0.000 OA
ATOM     30  C   UNL     1      -6.247  12.360  21.279  0.00  0.00    +0.000 C 
ENDBRANCH  25  29
BRANCH  26  31
ATOM     31  O   UNL     1      -5.540  14.657  24.183  0.00  0.00    +0.000 OA
ATOM     32  C   UNL     1      -6.299  15.595  23.395  0.00  0.00    +0.000 C 
ENDBRANCH  26  31
ENDBRANCH   1  23
BRANCH   8  33
ATOM     33  O   UNL     1      -0.453  13.123  17.552  0.00  0.00    +0.000 OA
ATOM     34  H   UNL     1      -0.118  12.798  16.692  0.00  0.00    +0.000 HD
ENDBRANCH   8  33
BRANCH   9  35
ATOM     35  C   UNL     1       1.278  13.511  21.096  0.00  0.00    +0.000 C 
BRANCH  35  36
ATOM     36  O   UNL     1       2.673  13.287  21.271  0.00  0.00    +0.000 OA
ATOM     37  H   UNL     1       2.885  13.541  22.191  0.00  0.00    +0.000 HD
ENDBRANCH  35  36
ENDBRANCH   9  35
TORSDOF 8
ENDMDL
MODEL 8
REMARK VINA RESULT:      -6.1      0.951      1.007
REMARK  Name = 
REMARK  11 active torsions:
REMARK  status: ('A' for Active; 'I' for Inactive)
REMARK    1  A    between atoms: C_1  and  O_2
REMARK    2  A    between atoms: O_2  and  C_3
REMARK    3  A    between atoms: C_5  and  C_6
REMARK    4  A    between atoms: C_13  and  O_14
REMARK    5  A    between atoms: C_15  and  C_16
REMARK    6  A    between atoms: C_16  and  O_17
REMARK    7  A    between atoms: C_18  and  C_19
REMARK    8  A    between atoms: C_30  and  O_31
REMARK    9  A    between atoms: O_31  and  C_32
REMARK   10  A    between atoms: C_33  and  O_34
REMARK   11  A    between atoms: O_34  and  C_35
REMARK                            x       y       z     vdW  Elec       q    Type
REMARK                         _______ _______ _______ _____ _____    ______ ____
ROOT
ATOM      1  C   UNL     1      -1.950  13.339  19.978  0.00  0.00    +0.000 C 
ATOM      2  C   UNL     1      -0.864  14.549  19.649  0.00  0.00    +0.000 A 
ATOM      3  C   UNL     1      -0.818  15.934  19.864  0.00  0.00    +0.000 A 
ATOM      4  C   UNL     1       0.468  16.502  20.112  0.00  0.00    +0.000 A 
ATOM      5  C   UNL     1       1.562  15.720  20.383  0.00  0.00    +0.000 A 
ATOM      6  C   UNL     1       1.604  14.512  19.860  0.00  0.00    +0.000 A 
ATOM      7  C   UNL     1       0.412  14.023  19.380  0.00  0.00    +0.000 A 
ATOM      8  C   UNL     1       0.519  12.675  18.786  0.00  0.00    +0.000 C 
ATOM      9  C   UNL     1       0.029  11.778  19.968  0.00  0.00    +0.000 C 
ATOM     10  C   UNL     1      -1.514  11.727  19.700  0.00  0.00    +0.000 C 
ATOM     11  O   UNL     1       2.717  16.398  20.679  0.00  0.00    +0.000 OA
ATOM     12  C   UNL     1       2.402  17.483  19.814  0.00  0.00    +0.000 C 
ATOM     13  O   UNL     1       0.959  17.776  19.876  0.00  0.00    +0.000 OA
ENDROOT
BRANCH  10  14
ATOM     14  C   UNL     1      -1.516  10.755  18.385  0.00  0.00    +0.000 C 
ATOM     15  O   UNL     1      -0.626   9.898  18.290  0.00  0.00    +0.000 OA
ATOM     16  N   UNL     1      -2.434  10.733  17.407  0.00  0.00    +0.000 N 
ATOM     17  C   UNL     1      -2.223   9.911  16.206  0.00  0.00    +0.000 C 
ATOM     18  C   UNL     1      -3.085  10.577  15.158  0.00  0.00    +0.000 C 
ATOM     19  C   UNL     1      -4.309  10.973  15.973  0.00  0.00    +0.000 C 
ATOM     20  C   UNL     1      -3.783  11.279  17.374  0.00  0.00    +0.000 C 
ENDBRANCH  10  14
BRANCH   1  23
ATOM     21  C   UNL     1      -4.228  13.722  23.109  0.00  0.00    +0.000 A 
ATOM     22  C   UNL     1      -3.110  13.533  22.298  0.00  0.00    +0.000 A 
ATOM     23  C   UNL     1      -3.203  13.547  20.872  0.00  0.00    +0.000 A 
ATOM     24  C   UNL     1      -4.483  13.490  20.339  0.00  0.00    +0.000 A 
ATOM     25  C   UNL     1      -5.589  13.794  21.129  0.00  0.00    +0.000 A 
ATOM     26  C   UNL     1      -5.439  14.026  22.495  0.00  0.00    +0.000 A 
BRANCH  21  28
ATOM     27  C   UNL     1      -4.568  12.365  25.045  0.00  0.00    +0.000 C 
ATOM     28  O   UNL     1      -4.257  13.626  24.473  0.00  0.00    +0.000 OA
ENDBRANCH  21  28
BRANCH  25  29
ATOM     29  O   UNL     1      -6.788  13.901  20.481  0.00  0.00    +0.000 OA
ATOM     30  C   UNL     1      -7.386  12.613  20.369  0.00  0.00    +0.000 C 
ENDBRANCH  25  29
BRANCH  26  31
ATOM     31  O   UNL     1      -6.434  14.656  23.204  0.00  0.00    +0.000 OA
ATOM     32  C   UNL     1      -6.230  16.080  23.114  0.00  0.00    +0.000 C 
ENDBRANCH  26  31
ENDBRANCH   1  23
BRANCH   8  33
ATOM     33  O   UNL     1      -0.281  12.782  17.594  0.00  0.00    +0.000 OA
ATOM     34  H   UNL     1      -0.627  13.688  17.462  0.00  0.00    +0.000 HD
ENDBRANCH   8  33
BRANCH   9  35
ATOM     35  C   UNL     1       0.405  12.198  21.454  0.00  0.00    +0.000 C 
BRANCH  35  36
ATOM     36  O   UNL     1      -0.076  11.283  22.432  0.00  0.00    +0.000 OA
ATOM     37  H   UNL     1       0.701  10.986  22.945  0.00  0.00    +0.000 HD
ENDBRANCH  35  36
ENDBRANCH   9  35
TORSDOF 8
ENDMDL
MODEL 9
REMARK VINA RESULT:      -6.0      1.029      2.143
REMARK  Name = 
REMARK  11 active torsions:
REMARK  status: ('A' for Active; 'I' for Inactive)
REMARK    1  A    between atoms: C_1  and  O_2
REMARK    2  A    between atoms: O_2  and  C_3
REMARK    3  A    between atoms: C_5  and  C_6
REMARK    4  A    between atoms: C_13  and  O_14
REMARK    5  A    between atoms: C_15  and  C_16
REMARK    6  A    between atoms: C_16  and  O_17
REMARK    7  A    between atoms: C_18  and  C_19
REMARK    8  A    between atoms: C_30  and  O_31
REMARK    9  A    between atoms: O_31  and  C_32
REMARK   10  A    between atoms: C_33  and  O_34
REMARK   11  A    between atoms: O_34  and  C_35
REMARK                            x       y       z     vdW  Elec       q    Type
REMARK                         _______ _______ _______ _____ _____    ______ ____
ROOT
ATOM      1  C   UNL     1      -1.894  13.498  20.262  0.00  0.00    +0.000 C 
ATOM      2  C   UNL     1      -0.778  14.642  19.817  0.00  0.00    +0.000 A 
ATOM      3  C   UNL     1      -0.640  16.025  20.002  0.00  0.00    +0.000 A 
ATOM      4  C   UNL     1       0.692  16.526  20.127  0.00  0.00    +0.000 A 
ATOM      5  C   UNL     1       1.762  15.689  20.316  0.00  0.00    +0.000 A 
ATOM      6  C   UNL     1       1.694  14.473  19.814  0.00  0.00    +0.000 A 
ATOM      7  C   UNL     1       0.440  14.043  19.449  0.00  0.00    +0.000 A 
ATOM      8  C   UNL     1       0.422  12.684  18.873  0.00  0.00    +0.000 C 
ATOM      9  C   UNL     1      -0.009  11.831  20.109  0.00  0.00    +0.000 C 
ATOM     10  C   UNL     1      -1.570  11.861  19.977  0.00  0.00    +0.000 C 
ATOM     11  O   UNL     1       2.973  16.306  20.499  0.00  0.00    +0.000 OA
ATOM     12  C   UNL     1       2.641  17.395  19.644  0.00  0.00    +0.000 C 
ATOM     13  O   UNL     1       1.228  17.767  19.826  0.00  0.00    +0.000 OA
ENDROOT
BRANCH  10  14
ATOM     14  C   UNL     1      -1.740  10.873  18.685  0.00  0.00    +0.000 C 
ATOM     15  O   UNL     1      -0.926   9.948  18.546  0.00  0.00    +0.000 OA
ATOM     16  N   UNL     1      -2.723  10.907  17.773  0.00  0.00    +0.000 N 
ATOM     17  C   UNL     1      -2.661  10.053  16.578  0.00  0.00    +0.000 C 
ATOM     18  C   UNL     1      -3.541  10.768  15.579  0.00  0.00    +0.000 C 
ATOM     19  C   UNL     1      -4.671  11.271  16.469  0.00  0.00    +0.000 C 
ATOM     20  C   UNL     1      -4.026  11.556  17.824  0.00  0.00    +0.000 C 
ENDBRANCH  10  14
BRANCH   1  23
ATOM     21  C   UNL     1      -5.368  14.515  21.690  0.00  0.00    +0.000 A 
ATOM     22  C   UNL     1      -4.323  14.255  20.805  0.00  0.00    +0.000 A 
ATOM     23  C   UNL     1      -3.050  13.787  21.257  0.00  0.00    +0.000 A 
ATOM     24  C   UNL     1      -2.821  13.857  22.624  0.00  0.00    +0.000 A 
ATOM     25  C   UNL     1      -3.885  14.001  23.511  0.00  0.00    +0.000 A 
ATOM     26  C   UNL     1      -5.177  14.211  23.035  0.00  0.00    +0.000 A 
BRANCH  21  28
ATOM     27  C   UNL     1      -6.677  16.471  21.285  0.00  0.00    +0.000 C 
ATOM     28  O   UNL     1      -6.581  15.058  21.366  0.00  0.00    +0.000 OA
ENDBRANCH  21  28
BRANCH  25  29
ATOM     29  O   UNL     1      -3.591  13.868  24.839  0.00  0.00    +0.000 OA
ATOM     30  C   UNL     1      -2.915  15.036  25.297  0.00  0.00    +0.000 C 
ENDBRANCH  25  29
BRANCH  26  31
ATOM     31  O   UNL     1      -6.260  14.006  23.857  0.00  0.00    +0.000 OA
ATOM     32  C   UNL     1      -6.632  12.616  23.788  0.00  0.00    +0.000 C 
ENDBRANCH  26  31
ENDBRANCH   1  23
BRANCH   8  33
ATOM     33  O   UNL     1      -0.472  12.818  17.753  0.00  0.00    +0.000 OA
ATOM     34  H   UNL     1      -0.108  12.415  16.940  0.00  0.00    +0.000 HD
ENDBRANCH   8  33
BRANCH   9  35
ATOM     35  C   UNL     1       0.517  12.250  21.549  0.00  0.00    +0.000 C 
BRANCH  35  36
ATOM     36  O   UNL     1      -0.105  11.526  22.604  0.00  0.00    +0.000 OA
ATOM     37  H   UNL     1      -0.351  12.180  23.287  0.00  0.00    +0.000 HD
ENDBRANCH  35  36
ENDBRANCH   9  35
TORSDOF 8
ENDMDL
