MODEL 1
REMARK VINA RESULT:      -8.6      0.000      0.000
REMARK  Name = 
REMARK  2 active torsions:
REMARK  status: ('A' for Active; 'I' for Inactive)
REMARK    1  A    between atoms: C_4  and  C_5
REMARK    2  A    between atoms: C_10  and  C_11
REMARK                            x       y       z     vdW  Elec       q    Type
REMARK                         _______ _______ _______ _____ _____    ______ ____
ROOT
ATOM      1  C   UNL     1       5.755   4.300  16.820  0.00  0.00    +0.000 A 
ATOM      2  C   UNL     1       6.622   4.585  17.859  0.00  0.00    +0.000 A 
ATOM      3  N   UNL     1       5.932   4.494  19.034  0.00  0.00    +0.000 N 
ATOM      4  C   UNL     1       4.623   4.149  18.795  0.00  0.00    +0.000 A 
ATOM      5  C   UNL     1       3.572   3.941  19.697  0.00  0.00    +0.000 A 
ATOM      6  C   UNL     1       2.315   3.581  19.181  0.00  0.00    +0.000 A 
ATOM      7  C   UNL     1       2.146   3.439  17.798  0.00  0.00    +0.000 A 
ATOM      8  C   UNL     1       3.212   3.641  16.914  0.00  0.00    +0.000 A 
ATOM      9  C   UNL     1       4.480   4.015  17.414  0.00  0.00    +0.000 A 
ATOM     10  H   UNL     1       6.324   4.656  19.954  0.00  0.00    +0.000 HD
ENDROOT
BRANCH   1  14
ATOM     11  N   UNL     1       8.637   5.904  13.200  0.00  0.00    +0.000 N 
ATOM     12  C   UNL     1       7.600   5.093  13.656  0.00  0.00    +0.000 A 
ATOM     13  C   UNL     1       7.247   5.097  14.996  0.00  0.00    +0.000 A 
ATOM     14  C   UNL     1       6.161   4.324  15.419  0.00  0.00    +0.000 A 
ATOM     15  C   UNL     1       5.469   3.584  14.462  0.00  0.00    +0.000 A 
ATOM     16  C   UNL     1       5.902   3.634  13.149  0.00  0.00    +0.000 A 
ATOM     17  N   UNL     1       6.949   4.372  12.729  0.00  0.00    +0.000 NA
ATOM     18  H   UNL     1       9.489   5.761  13.727  0.00  0.00    +0.000 HD
ATOM     19  H   UNL     1       8.757   5.701  12.211  0.00  0.00    +0.000 HD
ENDBRANCH   1  14
BRANCH   6  20
ATOM     20  C   UNL     1       1.147   3.328  20.102  0.00  0.00    +0.000 C 
ATOM     21  F   UNL     1       0.609   4.465  20.625  0.00  0.00    +0.000 F 
ATOM     22  F   UNL     1       0.122   2.682  19.480  0.00  0.00    +0.000 F 
ATOM     23  F   UNL     1       1.485   2.551  21.169  0.00  0.00    +0.000 F 
ENDBRANCH   6  20
TORSDOF 2
ENDMDL
MODEL 2
REMARK VINA RESULT:      -8.2      0.496      1.447
REMARK  Name = 
REMARK  2 active torsions:
REMARK  status: ('A' for Active; 'I' for Inactive)
REMARK    1  A    between atoms: C_4  and  C_5
REMARK    2  A    between atoms: C_10  and  C_11
REMARK                            x       y       z     vdW  Elec       q    Type
REMARK                         _______ _______ _______ _____ _____    ______ ____
ROOT
ATOM      1  C   UNL     1       5.829   4.324  16.844  0.00  0.00    +0.000 A 
ATOM      2  C   UNL     1       6.673   4.583  17.910  0.00  0.00    +0.000 A 
ATOM      3  N   UNL     1       5.956   4.463  19.067  0.00  0.00    +0.000 N 
ATOM      4  C   UNL     1       4.653   4.124  18.789  0.00  0.00    +0.000 A 
ATOM      5  C   UNL     1       3.581   3.895  19.662  0.00  0.00    +0.000 A 
ATOM      6  C   UNL     1       2.337   3.549  19.108  0.00  0.00    +0.000 A 
ATOM      7  C   UNL     1       2.199   3.442  17.719  0.00  0.00    +0.000 A 
ATOM      8  C   UNL     1       3.285   3.666  16.864  0.00  0.00    +0.000 A 
ATOM      9  C   UNL     1       4.541   4.025  17.402  0.00  0.00    +0.000 A 
ATOM     10  H   UNL     1       6.327   4.601  19.998  0.00  0.00    +0.000 HD
ENDROOT
BRANCH   1  14
ATOM     11  N   UNL     1       5.675   2.750  12.209  0.00  0.00    +0.000 N 
ATOM     12  C   UNL     1       6.162   3.626  13.177  0.00  0.00    +0.000 A 
ATOM     13  C   UNL     1       5.716   3.538  14.487  0.00  0.00    +0.000 A 
ATOM     14  C   UNL     1       6.268   4.384  15.454  0.00  0.00    +0.000 A 
ATOM     15  C   UNL     1       7.256   5.281  15.055  0.00  0.00    +0.000 A 
ATOM     16  C   UNL     1       7.629   5.305  13.724  0.00  0.00    +0.000 A 
ATOM     17  N   UNL     1       7.103   4.496  12.781  0.00  0.00    +0.000 NA
ATOM     18  H   UNL     1       4.663   2.749  12.175  0.00  0.00    +0.000 HD
ATOM     19  H   UNL     1       6.090   3.028  11.324  0.00  0.00    +0.000 HD
ENDBRANCH   1  14
BRANCH   6  20
ATOM     20  C   UNL     1       1.148   3.274  19.996  0.00  0.00    +0.000 C 
ATOM     21  F   UNL     1       0.571   4.400  20.500  0.00  0.00    +0.000 F 
ATOM     22  F   UNL     1       0.155   2.606  19.345  0.00  0.00    +0.000 F 
ATOM     23  F   UNL     1       1.471   2.506  21.073  0.00  0.00    +0.000 F 
ENDBRANCH   6  20
TORSDOF 2
ENDMDL
MODEL 3
REMARK VINA RESULT:      -8.1      1.025      1.845
REMARK  Name = 
REMARK  2 active torsions:
REMARK  status: ('A' for Active; 'I' for Inactive)
REMARK    1  A    between atoms: C_4  and  C_5
REMARK    2  A    between atoms: C_10  and  C_11
REMARK                            x       y       z     vdW  Elec       q    Type
REMARK                         _______ _______ _______ _____ _____    ______ ____
ROOT
ATOM      1  C   UNL     1       6.349   4.324  16.260  0.00  0.00    +0.000 A 
ATOM      2  C   UNL     1       7.362   4.490  17.187  0.00  0.00    +0.000 A 
ATOM      3  N   UNL     1       6.811   4.462  18.437  0.00  0.00    +0.000 N 
ATOM      4  C   UNL     1       5.452   4.274  18.358  0.00  0.00    +0.000 A 
ATOM      5  C   UNL     1       4.499   4.176  19.380  0.00  0.00    +0.000 A 
ATOM      6  C   UNL     1       3.157   3.972  19.018  0.00  0.00    +0.000 A 
ATOM      7  C   UNL     1       2.808   3.873  17.666  0.00  0.00    +0.000 A 
ATOM      8  C   UNL     1       3.776   3.964  16.660  0.00  0.00    +0.000 A 
ATOM      9  C   UNL     1       5.129   4.180  17.003  0.00  0.00    +0.000 A 
ATOM     10  H   UNL     1       7.327   4.562  19.303  0.00  0.00    +0.000 HD
ENDROOT
BRANCH   1  14
ATOM     11  N   UNL     1       5.482   2.609  11.755  0.00  0.00    +0.000 N 
ATOM     12  C   UNL     1       6.129   3.497  12.611  0.00  0.00    +0.000 A 
ATOM     13  C   UNL     1       5.874   3.467  13.974  0.00  0.00    +0.000 A 
ATOM     14  C   UNL     1       6.584   4.324  14.820  0.00  0.00    +0.000 A 
ATOM     15  C   UNL     1       7.533   5.172  14.252  0.00  0.00    +0.000 A 
ATOM     16  C   UNL     1       7.710   5.140  12.881  0.00  0.00    +0.000 A 
ATOM     17  N   UNL     1       7.030   4.321  12.053  0.00  0.00    +0.000 NA
ATOM     18  H   UNL     1       4.476   2.643  11.866  0.00  0.00    +0.000 HD
ATOM     19  H   UNL     1       5.774   2.844  10.810  0.00  0.00    +0.000 HD
ENDBRANCH   1  14
BRANCH   6  20
ATOM     20  C   UNL     1       2.086   3.842  20.074  0.00  0.00    +0.000 C 
ATOM     21  F   UNL     1       0.824   4.038  19.598  0.00  0.00    +0.000 F 
ATOM     22  F   UNL     1       2.077   2.612  20.659  0.00  0.00    +0.000 F 
ATOM     23  F   UNL     1       2.244   4.737  21.088  0.00  0.00    +0.000 F 
ENDBRANCH   6  20
TORSDOF 2
ENDMDL
MODEL 4
REMARK VINA RESULT:      -8.0      1.190      1.227
REMARK  Name = 
REMARK  2 active torsions:
REMARK  status: ('A' for Active; 'I' for Inactive)
REMARK    1  A    between atoms: C_4  and  C_5
REMARK    2  A    between atoms: C_10  and  C_11
REMARK                            x       y       z     vdW  Elec       q    Type
REMARK                         _______ _______ _______ _____ _____    ______ ____
ROOT
ATOM      1  C   UNL     1       4.929   5.340  16.157  0.00  0.00    +0.000 A 
ATOM      2  C   UNL     1       4.971   6.606  16.711  0.00  0.00    +0.000 A 
ATOM      3  N   UNL     1       4.119   6.637  17.780  0.00  0.00    +0.000 N 
ATOM      4  C   UNL     1       3.518   5.413  17.948  0.00  0.00    +0.000 A 
ATOM      5  C   UNL     1       2.590   4.994  18.911  0.00  0.00    +0.000 A 
ATOM      6  C   UNL     1       2.136   3.665  18.862  0.00  0.00    +0.000 A 
ATOM      7  C   UNL     1       2.614   2.804  17.867  0.00  0.00    +0.000 A 
ATOM      8  C   UNL     1       3.548   3.238  16.920  0.00  0.00    +0.000 A 
ATOM      9  C   UNL     1       4.008   4.573  16.947  0.00  0.00    +0.000 A 
ATOM     10  H   UNL     1       3.953   7.444  18.368  0.00  0.00    +0.000 HD
ENDROOT
BRANCH   1  14
ATOM     11  N   UNL     1       8.831   5.833  13.238  0.00  0.00    +0.000 N 
ATOM     12  C   UNL     1       7.641   5.191  13.573  0.00  0.00    +0.000 A 
ATOM     13  C   UNL     1       6.932   5.577  14.701  0.00  0.00    +0.000 A 
ATOM     14  C   UNL     1       5.708   4.963  14.982  0.00  0.00    +0.000 A 
ATOM     15  C   UNL     1       5.245   3.987  14.102  0.00  0.00    +0.000 A 
ATOM     16  C   UNL     1       6.026   3.660  13.008  0.00  0.00    +0.000 A 
ATOM     17  N   UNL     1       7.210   4.242  12.728  0.00  0.00    +0.000 NA
ATOM     18  H   UNL     1       9.488   5.839  14.008  0.00  0.00    +0.000 HD
ATOM     19  H   UNL     1       9.201   5.357  12.419  0.00  0.00    +0.000 HD
ENDBRANCH   1  14
BRANCH   6  20
ATOM     20  C   UNL     1       1.149   3.150  19.880  0.00  0.00    +0.000 C 
ATOM     21  F   UNL     1       0.609   4.128  20.660  0.00  0.00    +0.000 F 
ATOM     22  F   UNL     1       0.095   2.506  19.306  0.00  0.00    +0.000 F 
ATOM     23  F   UNL     1       1.709   2.256  20.741  0.00  0.00    +0.000 F 
ENDBRANCH   6  20
TORSDOF 2
ENDMDL
MODEL 5
REMARK VINA RESULT:      -7.9      1.275      2.074
REMARK  Name = 
REMARK  2 active torsions:
REMARK  status: ('A' for Active; 'I' for Inactive)
REMARK    1  A    between atoms: C_4  and  C_5
REMARK    2  A    between atoms: C_10  and  C_11
REMARK                            x       y       z     vdW  Elec       q    Type
REMARK                         _______ _______ _______ _____ _____    ______ ____
ROOT
ATOM      1  C   UNL     1       5.033   5.246  16.059  0.00  0.00    +0.000 A 
ATOM      2  C   UNL     1       5.203   6.484  16.651  0.00  0.00    +0.000 A 
ATOM      3  N   UNL     1       4.387   6.555  17.745  0.00  0.00    +0.000 N 
ATOM      4  C   UNL     1       3.683   5.384  17.893  0.00  0.00    +0.000 A 
ATOM      5  C   UNL     1       2.747   5.017  18.870  0.00  0.00    +0.000 A 
ATOM      6  C   UNL     1       2.174   3.736  18.792  0.00  0.00    +0.000 A 
ATOM      7  C   UNL     1       2.545   2.870  17.757  0.00  0.00    +0.000 A 
ATOM      8  C   UNL     1       3.489   3.251  16.797  0.00  0.00    +0.000 A 
ATOM      9  C   UNL     1       4.068   4.538  16.852  0.00  0.00    +0.000 A 
ATOM     10  H   UNL     1       4.310   7.353  18.364  0.00  0.00    +0.000 HD
ENDROOT
BRANCH   1  14
ATOM     11  N   UNL     1       5.290   2.771  11.841  0.00  0.00    +0.000 N 
ATOM     12  C   UNL     1       5.847   3.650  12.767  0.00  0.00    +0.000 A 
ATOM     13  C   UNL     1       5.138   4.011  13.902  0.00  0.00    +0.000 A 
ATOM     14  C   UNL     1       5.742   4.842  14.849  0.00  0.00    +0.000 A 
ATOM     15  C   UNL     1       7.048   5.269  14.612  0.00  0.00    +0.000 A 
ATOM     16  C   UNL     1       7.672   4.866  13.446  0.00  0.00    +0.000 A 
ATOM     17  N   UNL     1       7.099   4.067  12.522  0.00  0.00    +0.000 NA
ATOM     18  H   UNL     1       4.377   3.077  11.530  0.00  0.00    +0.000 HD
ATOM     19  H   UNL     1       5.952   2.692  11.073  0.00  0.00    +0.000 HD
ENDBRANCH   1  14
BRANCH   6  20
ATOM     20  C   UNL     1       1.173   3.277  19.823  0.00  0.00    +0.000 C 
ATOM     21  F   UNL     1       0.154   2.537  19.303  0.00  0.00    +0.000 F 
ATOM     22  F   UNL     1       1.739   2.504  20.792  0.00  0.00    +0.000 F 
ATOM     23  F   UNL     1       0.582   4.317  20.474  0.00  0.00    +0.000 F 
ENDBRANCH   6  20
TORSDOF 2
ENDMDL
MODEL 6
REMARK VINA RESULT:      -7.8      5.089      7.113
REMARK  Name = 
REMARK  2 active torsions:
REMARK  status: ('A' for Active; 'I' for Inactive)
REMARK    1  A    between atoms: C_4  and  C_5
REMARK    2  A    between atoms: C_10  and  C_11
REMARK                            x       y       z     vdW  Elec       q    Type
REMARK                         _______ _______ _______ _____ _____    ______ ____
ROOT
ATOM      1  C   UNL     1       2.580   6.452  18.947  0.00  0.00    +0.000 A 
ATOM      2  C   UNL     1       2.233   5.216  19.464  0.00  0.00    +0.000 A 
ATOM      3  N   UNL     1       2.964   4.259  18.819  0.00  0.00    +0.000 N 
ATOM      4  C   UNL     1       3.793   4.836  17.887  0.00  0.00    +0.000 A 
ATOM      5  C   UNL     1       4.712   4.240  17.013  0.00  0.00    +0.000 A 
ATOM      6  C   UNL     1       5.450   5.074  16.157  0.00  0.00    +0.000 A 
ATOM      7  C   UNL     1       5.255   6.460  16.196  0.00  0.00    +0.000 A 
ATOM      8  C   UNL     1       4.340   7.036  17.084  0.00  0.00    +0.000 A 
ATOM      9  C   UNL     1       3.580   6.213  17.945  0.00  0.00    +0.000 A 
ATOM     10  H   UNL     1       2.907   3.264  18.999  0.00  0.00    +0.000 HD
ENDROOT
BRANCH   1  14
ATOM     11  N   UNL     1       0.999  11.015  18.134  0.00  0.00    +0.000 N 
ATOM     12  C   UNL     1       1.172   9.925  18.983  0.00  0.00    +0.000 A 
ATOM     13  C   UNL     1       1.750   8.756  18.513  0.00  0.00    +0.000 A 
ATOM     14  C   UNL     1       1.973   7.699  19.400  0.00  0.00    +0.000 A 
ATOM     15  C   UNL     1       1.608   7.871  20.733  0.00  0.00    +0.000 A 
ATOM     16  C   UNL     1       1.027   9.069  21.109  0.00  0.00    +0.000 A 
ATOM     17  N   UNL     1       0.803  10.095  20.262  0.00  0.00    +0.000 NA
ATOM     18  H   UNL     1       0.501  10.762  17.289  0.00  0.00    +0.000 HD
ATOM     19  H   UNL     1       0.513  11.731  18.668  0.00  0.00    +0.000 HD
ENDBRANCH   1  14
BRANCH   6  20
ATOM     20  C   UNL     1       6.466   4.494  15.203  0.00  0.00    +0.000 C 
ATOM     21  F   UNL     1       7.701   4.329  15.755  0.00  0.00    +0.000 F 
ATOM     22  F   UNL     1       6.101   3.268  14.734  0.00  0.00    +0.000 F 
ATOM     23  F   UNL     1       6.652   5.274  14.103  0.00  0.00    +0.000 F 
ENDBRANCH   6  20
TORSDOF 2
ENDMDL
MODEL 7
REMARK VINA RESULT:      -7.8      4.607      5.269
REMARK  Name = 
REMARK  2 active torsions:
REMARK  status: ('A' for Active; 'I' for Inactive)
REMARK    1  A    between atoms: C_4  and  C_5
REMARK    2  A    between atoms: C_10  and  C_11
REMARK                            x       y       z     vdW  Elec       q    Type
REMARK                         _______ _______ _______ _____ _____    ______ ____
ROOT
ATOM      1  C   UNL     1       3.372   6.190  18.747  0.00  0.00    +0.000 A 
ATOM      2  C   UNL     1       3.077   5.611  19.968  0.00  0.00    +0.000 A 
ATOM      3  N   UNL     1       2.227   6.440  20.644  0.00  0.00    +0.000 N 
ATOM      4  C   UNL     1       1.949   7.556  19.892  0.00  0.00    +0.000 A 
ATOM      5  C   UNL     1       1.129   8.654  20.187  0.00  0.00    +0.000 A 
ATOM      6  C   UNL     1       1.011   9.671  19.224  0.00  0.00    +0.000 A 
ATOM      7  C   UNL     1       1.703   9.565  18.012  0.00  0.00    +0.000 A 
ATOM      8  C   UNL     1       2.509   8.456  17.733  0.00  0.00    +0.000 A 
ATOM      9  C   UNL     1       2.650   7.429  18.692  0.00  0.00    +0.000 A 
ATOM     10  H   UNL     1       1.852   6.261  21.567  0.00  0.00    +0.000 HD
ENDROOT
BRANCH   1  14
ATOM     11  N   UNL     1       7.454   6.218  16.041  0.00  0.00    +0.000 N 
ATOM     12  C   UNL     1       6.292   5.585  16.476  0.00  0.00    +0.000 A 
ATOM     13  C   UNL     1       5.466   6.201  17.403  0.00  0.00    +0.000 A 
ATOM     14  C   UNL     1       4.272   5.576  17.775  0.00  0.00    +0.000 A 
ATOM     15  C   UNL     1       3.959   4.353  17.186  0.00  0.00    +0.000 A 
ATOM     16  C   UNL     1       4.850   3.810  16.279  0.00  0.00    +0.000 A 
ATOM     17  N   UNL     1       6.006   4.401  15.914  0.00  0.00    +0.000 NA
ATOM     18  H   UNL     1       8.043   6.502  16.814  0.00  0.00    +0.000 HD
ATOM     19  H   UNL     1       7.926   5.570  15.415  0.00  0.00    +0.000 HD
ENDBRANCH   1  14
BRANCH   6  20
ATOM     20  C   UNL     1       0.130  10.870  19.475  0.00  0.00    +0.000 C 
ATOM     21  F   UNL     1       0.466  11.569  20.596  0.00  0.00    +0.000 F 
ATOM     22  F   UNL     1       0.168  11.768  18.451  0.00  0.00    +0.000 F 
ATOM     23  F   UNL     1      -1.180  10.531  19.626  0.00  0.00    +0.000 F 
ENDBRANCH   6  20
TORSDOF 2
ENDMDL
MODEL 8
REMARK VINA RESULT:      -7.7      4.416      6.926
REMARK  Name = 
REMARK  2 active torsions:
REMARK  status: ('A' for Active; 'I' for Inactive)
REMARK    1  A    between atoms: C_4  and  C_5
REMARK    2  A    between atoms: C_10  and  C_11
REMARK                            x       y       z     vdW  Elec       q    Type
REMARK                         _______ _______ _______ _____ _____    ______ ____
ROOT
ATOM      1  C   UNL     1       5.631   4.670  17.848  0.00  0.00    +0.000 A 
ATOM      2  C   UNL     1       6.840   5.262  18.165  0.00  0.00    +0.000 A 
ATOM      3  N   UNL     1       7.594   5.338  17.028  0.00  0.00    +0.000 N 
ATOM      4  C   UNL     1       6.906   4.811  15.961  0.00  0.00    +0.000 A 
ATOM      5  C   UNL     1       7.289   4.690  14.619  0.00  0.00    +0.000 A 
ATOM      6  C   UNL     1       6.378   4.114  13.718  0.00  0.00    +0.000 A 
ATOM      7  C   UNL     1       5.128   3.680  14.175  0.00  0.00    +0.000 A 
ATOM      8  C   UNL     1       4.760   3.819  15.518  0.00  0.00    +0.000 A 
ATOM      9  C   UNL     1       5.667   4.386  16.441  0.00  0.00    +0.000 A 
ATOM     10  H   UNL     1       8.527   5.727  16.973  0.00  0.00    +0.000 HD
ENDROOT
BRANCH   1  14
ATOM     11  N   UNL     1       2.044   6.198  20.811  0.00  0.00    +0.000 N 
ATOM     12  C   UNL     1       2.810   5.172  20.264  0.00  0.00    +0.000 A 
ATOM     13  C   UNL     1       3.789   5.454  19.323  0.00  0.00    +0.000 A 
ATOM     14  C   UNL     1       4.589   4.417  18.837  0.00  0.00    +0.000 A 
ATOM     15  C   UNL     1       4.371   3.132  19.331  0.00  0.00    +0.000 A 
ATOM     16  C   UNL     1       3.364   2.944  20.261  0.00  0.00    +0.000 A 
ATOM     17  N   UNL     1       2.583   3.936  20.735  0.00  0.00    +0.000 NA
ATOM     18  H   UNL     1       1.607   6.766  20.096  0.00  0.00    +0.000 HD
ATOM     19  H   UNL     1       1.362   5.762  21.427  0.00  0.00    +0.000 HD
ENDBRANCH   1  14
BRANCH   6  20
ATOM     20  C   UNL     1       6.725   3.970  12.256  0.00  0.00    +0.000 C 
ATOM     21  F   UNL     1       7.550   4.950  11.793  0.00  0.00    +0.000 F 
ATOM     22  F   UNL     1       7.354   2.793  11.983  0.00  0.00    +0.000 F 
ATOM     23  F   UNL     1       5.624   4.001  11.455  0.00  0.00    +0.000 F 
ENDBRANCH   6  20
TORSDOF 2
ENDMDL
MODEL 9
REMARK VINA RESULT:      -7.7      3.929      4.724
REMARK  Name = 
REMARK  2 active torsions:
REMARK  status: ('A' for Active; 'I' for Inactive)
REMARK    1  A    between atoms: C_4  and  C_5
REMARK    2  A    between atoms: C_10  and  C_11
REMARK                            x       y       z     vdW  Elec       q    Type
REMARK                         _______ _______ _______ _____ _____    ______ ____
ROOT
ATOM      1  C   UNL     1       4.176   5.698  18.595  0.00  0.00    +0.000 A 
ATOM      2  C   UNL     1       3.814   5.017  19.743  0.00  0.00    +0.000 A 
ATOM      3  N   UNL     1       2.812   5.711  20.359  0.00  0.00    +0.000 N 
ATOM      4  C   UNL     1       2.498   6.839  19.639  0.00  0.00    +0.000 A 
ATOM      5  C   UNL     1       1.537   7.827  19.893  0.00  0.00    +0.000 A 
ATOM      6  C   UNL     1       1.414   8.884  18.976  0.00  0.00    +0.000 A 
ATOM      7  C   UNL     1       2.241   8.926  17.847  0.00  0.00    +0.000 A 
ATOM      8  C   UNL     1       3.187   7.924  17.605  0.00  0.00    +0.000 A 
ATOM      9  C   UNL     1       3.333   6.858  18.521  0.00  0.00    +0.000 A 
ATOM     10  H   UNL     1       2.360   5.438  21.223  0.00  0.00    +0.000 HD
ENDROOT
BRANCH   1  14
ATOM     11  N   UNL     1       5.765   4.179  14.218  0.00  0.00    +0.000 N 
ATOM     12  C   UNL     1       6.012   4.527  15.545  0.00  0.00    +0.000 A 
ATOM     13  C   UNL     1       4.976   4.960  16.358  0.00  0.00    +0.000 A 
ATOM     14  C   UNL     1       5.236   5.241  17.703  0.00  0.00    +0.000 A 
ATOM     15  C   UNL     1       6.536   5.063  18.172  0.00  0.00    +0.000 A 
ATOM     16  C   UNL     1       7.507   4.638  17.283  0.00  0.00    +0.000 A 
ATOM     17  N   UNL     1       7.270   4.367  15.983  0.00  0.00    +0.000 NA
ATOM     18  H   UNL     1       5.287   4.917  13.716  0.00  0.00    +0.000 HD
ATOM     19  H   UNL     1       6.663   3.949  13.802  0.00  0.00    +0.000 HD
ENDBRANCH   1  14
BRANCH   6  20
ATOM     20  C   UNL     1       0.387   9.970  19.185  0.00  0.00    +0.000 C 
ATOM     21  F   UNL     1      -0.353  10.244  18.075  0.00  0.00    +0.000 F 
ATOM     22  F   UNL     1      -0.508   9.659  20.163  0.00  0.00    +0.000 F 
ATOM     23  F   UNL     1       0.951  11.153  19.558  0.00  0.00    +0.000 F 
ENDBRANCH   6  20
TORSDOF 2
ENDMDL
