MODEL 1
REMARK VINA RESULT:      -8.6      0.000      0.000
REMARK  Name = 
REMARK  7 active torsions:
REMARK  status: ('A' for Active; 'I' for Inactive)
REMARK    1  A    between atoms: C_1  and  C_2
REMARK    2  A    between atoms: C_2  and  C_3
REMARK    3  A    between atoms: C_7  and  O_8
REMARK    4  A    between atoms: O_8  and  C_9
REMARK    5  A    between atoms: C_12  and  S_13
REMARK    6  A    between atoms: S_13  and  N_16
REMARK    7  A    between atoms: C_25  and  C_26
REMARK                            x       y       z     vdW  Elec       q    Type
REMARK                         _______ _______ _______ _____ _____    ______ ____
ROOT
ATOM      1  C   UNL     1       2.828   5.380  19.247  0.00  0.00    +0.000 A 
ATOM      2  C   UNL     1       2.901   6.629  18.612  0.00  0.00    +0.000 A 
ATOM      3  C   UNL     1       2.268   7.742  19.161  0.00  0.00    +0.000 A 
ATOM      4  C   UNL     1       1.600   7.621  20.381  0.00  0.00    +0.000 A 
ATOM      5  C   UNL     1       1.609   6.408  21.080  0.00  0.00    +0.000 A 
ATOM      6  C   UNL     1       2.219   5.280  20.509  0.00  0.00    +0.000 A 
ENDROOT
BRANCH   4   7
ATOM      7  S   UNL     1       0.795   9.058  21.068  0.00  0.00    +0.000 S 
ATOM      8  O   UNL     1      -0.601   8.731  21.261  0.00  0.00    +0.000 OA
ATOM      9  O   UNL     1       1.617   9.515  22.167  0.00  0.00    +0.000 OA
BRANCH   7  10
ATOM     10  N   UNL     1       0.942  10.210  19.843  0.00  0.00    +0.000 N 
ATOM     11  C   UNL     1      -0.264  10.661  19.279  0.00  0.00    +0.000 A 
ATOM     12  C   UNL     1      -1.041  11.637  19.885  0.00  0.00    +0.000 A 
ATOM     13  C   UNL     1      -2.219  12.020  19.247  0.00  0.00    +0.000 A 
ATOM     14  C   UNL     1      -2.568  11.396  18.059  0.00  0.00    +0.000 A 
ATOM     15  F   UNL     1      -3.692  11.739  17.418  0.00  0.00    +0.000 F 
ATOM     16  C   UNL     1      -1.736  10.414  17.546  0.00  0.00    +0.000 A 
ATOM     17  N   UNL     1      -0.576  10.029  18.134  0.00  0.00    +0.000 NA
ATOM     18  H   UNL     1       1.567   9.870  19.115  0.00  0.00    +0.000 HD
ENDBRANCH   7  10
ENDBRANCH   4   7
BRANCH   6  19
ATOM     19  C   UNL     1       2.209   4.037  21.236  0.00  0.00    +0.000 C 
ATOM     20  N   UNL     1       2.157   3.050  21.840  0.00  0.00    +0.000 NA
ENDBRANCH   6  19
BRANCH   1  21
ATOM     21  O   UNL     1       3.386   4.244  18.692  0.00  0.00    +0.000 OA
BRANCH  21  26
ATOM     22  C   UNL     1       5.853   4.294  15.908  0.00  0.00    +0.000 A 
ATOM     23  C   UNL     1       7.009   4.586  16.641  0.00  0.00    +0.000 A 
ATOM     24  C   UNL     1       6.942   4.733  18.027  0.00  0.00    +0.000 A 
ATOM     25  C   UNL     1       5.719   4.609  18.690  0.00  0.00    +0.000 A 
ATOM     26  C   UNL     1       4.555   4.356  17.966  0.00  0.00    +0.000 A 
ATOM     27  C   UNL     1       4.629   4.167  16.581  0.00  0.00    +0.000 A 
BRANCH  22  29
ATOM     28  C   UNL     1       7.095   4.789  13.816  0.00  0.00    +0.000 C 
ATOM     29  C   UNL     1       5.928   4.027  14.427  0.00  0.00    +0.000 C 
ENDBRANCH  22  29
ENDBRANCH  21  26
ENDBRANCH   1  21
TORSDOF 6
ENDMDL
MODEL 2
REMARK VINA RESULT:      -8.5      0.637      1.645
REMARK  Name = 
REMARK  7 active torsions:
REMARK  status: ('A' for Active; 'I' for Inactive)
REMARK    1  A    between atoms: C_1  and  C_2
REMARK    2  A    between atoms: C_2  and  C_3
REMARK    3  A    between atoms: C_7  and  O_8
REMARK    4  A    between atoms: O_8  and  C_9
REMARK    5  A    between atoms: C_12  and  S_13
REMARK    6  A    between atoms: S_13  and  N_16
REMARK    7  A    between atoms: C_25  and  C_26
REMARK                            x       y       z     vdW  Elec       q    Type
REMARK                         _______ _______ _______ _____ _____    ______ ____
ROOT
ATOM      1  C   UNL     1       2.632   5.459  19.236  0.00  0.00    +0.000 A 
ATOM      2  C   UNL     1       2.681   6.716  18.615  0.00  0.00    +0.000 A 
ATOM      3  C   UNL     1       2.096   7.827  19.218  0.00  0.00    +0.000 A 
ATOM      4  C   UNL     1       1.502   7.696  20.475  0.00  0.00    +0.000 A 
ATOM      5  C   UNL     1       1.540   6.473  21.155  0.00  0.00    +0.000 A 
ATOM      6  C   UNL     1       2.101   5.347  20.532  0.00  0.00    +0.000 A 
ENDROOT
BRANCH   4   7
ATOM      7  S   UNL     1       0.757   9.131  21.229  0.00  0.00    +0.000 S 
ATOM      8  O   UNL     1      -0.641   8.832  21.460  0.00  0.00    +0.000 OA
ATOM      9  O   UNL     1       1.626   9.535  22.313  0.00  0.00    +0.000 OA
BRANCH   7  10
ATOM     10  N   UNL     1       0.893  10.315  20.034  0.00  0.00    +0.000 N 
ATOM     11  C   UNL     1      -0.316  10.741  19.456  0.00  0.00    +0.000 A 
ATOM     12  C   UNL     1      -1.134  11.679  20.067  0.00  0.00    +0.000 A 
ATOM     13  C   UNL     1      -2.311  12.041  19.413  0.00  0.00    +0.000 A 
ATOM     14  C   UNL     1      -2.617  11.433  18.204  0.00  0.00    +0.000 A 
ATOM     15  F   UNL     1      -3.737  11.757  17.548  0.00  0.00    +0.000 F 
ATOM     16  C   UNL     1      -1.744  10.490  17.687  0.00  0.00    +0.000 A 
ATOM     17  N   UNL     1      -0.585  10.127  18.290  0.00  0.00    +0.000 NA
ATOM     18  H   UNL     1       1.542  10.012  19.312  0.00  0.00    +0.000 HD
ENDBRANCH   7  10
ENDBRANCH   4   7
BRANCH   6  19
ATOM     19  C   UNL     1       2.121   4.094  21.240  0.00  0.00    +0.000 C 
ATOM     20  N   UNL     1       2.175   3.071  21.781  0.00  0.00    +0.000 NA
ENDBRANCH   6  19
BRANCH   1  21
ATOM     21  O   UNL     1       3.143   4.325  18.633  0.00  0.00    +0.000 OA
BRANCH  21  26
ATOM     22  C   UNL     1       6.764   4.918  18.017  0.00  0.00    +0.000 A 
ATOM     23  C   UNL     1       6.842   4.460  16.697  0.00  0.00    +0.000 A 
ATOM     24  C   UNL     1       5.698   3.994  16.047  0.00  0.00    +0.000 A 
ATOM     25  C   UNL     1       4.473   3.964  16.715  0.00  0.00    +0.000 A 
ATOM     26  C   UNL     1       4.390   4.382  18.043  0.00  0.00    +0.000 A 
ATOM     27  C   UNL     1       5.528   4.888  18.680  0.00  0.00    +0.000 A 
BRANCH  22  29
ATOM     28  C   UNL     1       8.014   7.021  18.436  0.00  0.00    +0.000 C 
ATOM     29  C   UNL     1       7.966   5.523  18.695  0.00  0.00    +0.000 C 
ENDBRANCH  22  29
ENDBRANCH  21  26
ENDBRANCH   1  21
TORSDOF 6
ENDMDL
MODEL 3
REMARK VINA RESULT:      -8.4      1.415      1.831
REMARK  Name = 
REMARK  7 active torsions:
REMARK  status: ('A' for Active; 'I' for Inactive)
REMARK    1  A    between atoms: C_1  and  C_2
REMARK    2  A    between atoms: C_2  and  C_3
REMARK    3  A    between atoms: C_7  and  O_8
REMARK    4  A    between atoms: O_8  and  C_9
REMARK    5  A    between atoms: C_12  and  S_13
REMARK    6  A    between atoms: S_13  and  N_16
REMARK    7  A    between atoms: C_25  and  C_26
REMARK                            x       y       z     vdW  Elec       q    Type
REMARK                         _______ _______ _______ _____ _____    ______ ____
ROOT
ATOM      1  C   UNL     1       2.741   6.561  18.492  0.00  0.00    +0.000 A 
ATOM      2  C   UNL     1       2.792   7.737  17.728  0.00  0.00    +0.000 A 
ATOM      3  C   UNL     1       2.190   8.906  18.187  0.00  0.00    +0.000 A 
ATOM      4  C   UNL     1       1.577   8.920  19.442  0.00  0.00    +0.000 A 
ATOM      5  C   UNL     1       1.611   7.785  20.262  0.00  0.00    +0.000 A 
ATOM      6  C   UNL     1       2.189   6.598  19.784  0.00  0.00    +0.000 A 
ENDROOT
BRANCH   4   7
ATOM      7  S   UNL     1       0.811  10.427  20.010  0.00  0.00    +0.000 S 
ATOM      8  O   UNL     1       1.261  10.667  21.364  0.00  0.00    +0.000 OA
ATOM      9  O   UNL     1       1.003  11.414  18.969  0.00  0.00    +0.000 OA
BRANCH   7  10
ATOM     10  N   UNL     1      -0.834  10.049  20.019  0.00  0.00    +0.000 N 
ATOM     11  C   UNL     1      -1.540  10.366  18.845  0.00  0.00    +0.000 A 
ATOM     12  C   UNL     1      -1.521   9.543  17.728  0.00  0.00    +0.000 A 
ATOM     13  C   UNL     1      -2.256   9.941  16.614  0.00  0.00    +0.000 A 
ATOM     14  C   UNL     1      -2.947  11.142  16.664  0.00  0.00    +0.000 A 
ATOM     15  F   UNL     1      -3.664  11.555  15.612  0.00  0.00    +0.000 F 
ATOM     16  C   UNL     1      -2.885  11.905  17.819  0.00  0.00    +0.000 A 
ATOM     17  N   UNL     1      -2.192  11.539  18.925  0.00  0.00    +0.000 NA
ATOM     18  H   UNL     1      -1.286  10.469  20.827  0.00  0.00    +0.000 HD
ENDBRANCH   7  10
ENDBRANCH   4   7
BRANCH   6  19
ATOM     19  C   UNL     1       2.206   5.437  20.635  0.00  0.00    +0.000 C 
ATOM     20  N   UNL     1       2.194   4.478  21.285  0.00  0.00    +0.000 NA
ENDBRANCH   6  19
BRANCH   1  21
ATOM     21  O   UNL     1       3.268   5.368  18.034  0.00  0.00    +0.000 OA
BRANCH  21  26
ATOM     22  C   UNL     1       6.511   5.028  16.244  0.00  0.00    +0.000 A 
ATOM     23  C   UNL     1       7.380   5.140  17.335  0.00  0.00    +0.000 A 
ATOM     24  C   UNL     1       6.870   5.301  18.624  0.00  0.00    +0.000 A 
ATOM     25  C   UNL     1       5.491   5.369  18.832  0.00  0.00    +0.000 A 
ATOM     26  C   UNL     1       4.617   5.296  17.748  0.00  0.00    +0.000 A 
ATOM     27  C   UNL     1       5.127   5.093  16.461  0.00  0.00    +0.000 A 
BRANCH  22  29
ATOM     28  C   UNL     1       5.979   4.055  14.023  0.00  0.00    +0.000 C 
ATOM     29  C   UNL     1       7.043   4.747  14.862  0.00  0.00    +0.000 C 
ENDBRANCH  22  29
ENDBRANCH  21  26
ENDBRANCH   1  21
TORSDOF 6
ENDMDL
MODEL 4
REMARK VINA RESULT:      -8.3      3.318      8.395
REMARK  Name = 
REMARK  7 active torsions:
REMARK  status: ('A' for Active; 'I' for Inactive)
REMARK    1  A    between atoms: C_1  and  C_2
REMARK    2  A    between atoms: C_2  and  C_3
REMARK    3  A    between atoms: C_7  and  O_8
REMARK    4  A    between atoms: O_8  and  C_9
REMARK    5  A    between atoms: C_12  and  S_13
REMARK    6  A    between atoms: S_13  and  N_16
REMARK    7  A    between atoms: C_25  and  C_26
REMARK                            x       y       z     vdW  Elec       q    Type
REMARK                         _______ _______ _______ _____ _____    ______ ____
ROOT
ATOM      1  C   UNL     1       1.235   9.659  19.290  0.00  0.00    +0.000 A 
ATOM      2  C   UNL     1       1.615   9.073  18.073  0.00  0.00    +0.000 A 
ATOM      3  C   UNL     1       2.163   7.793  18.044  0.00  0.00    +0.000 A 
ATOM      4  C   UNL     1       2.287   7.069  19.232  0.00  0.00    +0.000 A 
ATOM      5  C   UNL     1       1.814   7.598  20.439  0.00  0.00    +0.000 A 
ATOM      6  C   UNL     1       1.292   8.901  20.472  0.00  0.00    +0.000 A 
ENDROOT
BRANCH   4   7
ATOM      7  S   UNL     1       2.993   5.432  19.173  0.00  0.00    +0.000 S 
ATOM      8  O   UNL     1       2.834   4.835  20.482  0.00  0.00    +0.000 OA
ATOM      9  O   UNL     1       2.467   4.790  17.987  0.00  0.00    +0.000 OA
BRANCH   7  10
ATOM     10  N   UNL     1       4.629   5.723  18.878  0.00  0.00    +0.000 N 
ATOM     11  C   UNL     1       5.069   5.469  17.567  0.00  0.00    +0.000 A 
ATOM     12  C   UNL     1       4.886   6.381  16.539  0.00  0.00    +0.000 A 
ATOM     13  C   UNL     1       5.360   6.040  15.274  0.00  0.00    +0.000 A 
ATOM     14  C   UNL     1       5.967   4.804  15.099  0.00  0.00    +0.000 A 
ATOM     15  F   UNL     1       6.435   4.443  13.899  0.00  0.00    +0.000 F 
ATOM     16  C   UNL     1       6.082   3.953  16.186  0.00  0.00    +0.000 A 
ATOM     17  N   UNL     1       5.644   4.261  17.432  0.00  0.00    +0.000 NA
ATOM     18  H   UNL     1       5.202   5.215  19.548  0.00  0.00    +0.000 HD
ENDBRANCH   7  10
ENDBRANCH   4   7
BRANCH   6  19
ATOM     19  C   UNL     1       0.822   9.434  21.723  0.00  0.00    +0.000 C 
ATOM     20  N   UNL     1       0.403   9.881  22.707  0.00  0.00    +0.000 NA
ENDBRANCH   6  19
BRANCH   1  21
ATOM     21  O   UNL     1       0.752  10.953  19.360  0.00  0.00    +0.000 OA
BRANCH  21  26
ATOM     22  C   UNL     1      -2.717  10.826  18.023  0.00  0.00    +0.000 A 
ATOM     23  C   UNL     1      -3.315  11.768  18.869  0.00  0.00    +0.000 A 
ATOM     24  C   UNL     1      -2.552  12.429  19.834  0.00  0.00    +0.000 A 
ATOM     25  C   UNL     1      -1.193  12.142  19.974  0.00  0.00    +0.000 A 
ATOM     26  C   UNL     1      -0.595  11.178  19.162  0.00  0.00    +0.000 A 
ATOM     27  C   UNL     1      -1.350  10.546  18.168  0.00  0.00    +0.000 A 
BRANCH  22  29
ATOM     28  C   UNL     1      -2.641  10.074  15.659  0.00  0.00    +0.000 C 
ATOM     29  C   UNL     1      -3.502  10.184  16.909  0.00  0.00    +0.000 C 
ENDBRANCH  22  29
ENDBRANCH  21  26
ENDBRANCH   1  21
TORSDOF 6
ENDMDL
MODEL 5
REMARK VINA RESULT:      -8.2      1.313      1.990
REMARK  Name = 
REMARK  7 active torsions:
REMARK  status: ('A' for Active; 'I' for Inactive)
REMARK    1  A    between atoms: C_1  and  C_2
REMARK    2  A    between atoms: C_2  and  C_3
REMARK    3  A    between atoms: C_7  and  O_8
REMARK    4  A    between atoms: O_8  and  C_9
REMARK    5  A    between atoms: C_12  and  S_13
REMARK    6  A    between atoms: S_13  and  N_16
REMARK    7  A    between atoms: C_25  and  C_26
REMARK                            x       y       z     vdW  Elec       q    Type
REMARK                         _______ _______ _______ _____ _____    ______ ____
ROOT
ATOM      1  C   UNL     1       2.670   6.160  18.364  0.00  0.00    +0.000 A 
ATOM      2  C   UNL     1       2.510   7.515  18.033  0.00  0.00    +0.000 A 
ATOM      3  C   UNL     1       1.953   8.406  18.947  0.00  0.00    +0.000 A 
ATOM      4  C   UNL     1       1.599   7.956  20.220  0.00  0.00    +0.000 A 
ATOM      5  C   UNL     1       1.851   6.633  20.602  0.00  0.00    +0.000 A 
ATOM      6  C   UNL     1       2.382   5.728  19.669  0.00  0.00    +0.000 A 
ENDROOT
BRANCH   4   7
ATOM      7  S   UNL     1       0.886   9.114  21.375  0.00  0.00    +0.000 S 
ATOM      8  O   UNL     1      -0.481   8.705  21.621  0.00  0.00    +0.000 OA
ATOM      9  O   UNL     1       1.831   9.261  22.461  0.00  0.00    +0.000 OA
BRANCH   7  10
ATOM     10  N   UNL     1       0.897  10.571  20.525  0.00  0.00    +0.000 N 
ATOM     11  C   UNL     1      -0.357  11.177  20.332  0.00  0.00    +0.000 A 
ATOM     12  C   UNL     1      -0.965  11.941  21.317  0.00  0.00    +0.000 A 
ATOM     13  C   UNL     1      -2.207  12.503  21.031  0.00  0.00    +0.000 A 
ATOM     14  C   UNL     1      -2.784  12.255  19.794  0.00  0.00    +0.000 A 
ATOM     15  F   UNL     1      -3.975  12.779  19.484  0.00  0.00    +0.000 F 
ATOM     16  C   UNL     1      -2.106  11.458  18.886  0.00  0.00    +0.000 A 
ATOM     17  N   UNL     1      -0.890  10.909  19.127  0.00  0.00    +0.000 NA
ATOM     18  H   UNL     1       1.372  10.453  19.633  0.00  0.00    +0.000 HD
ENDBRANCH   7  10
ENDBRANCH   4   7
BRANCH   6  19
ATOM     19  C   UNL     1       2.624   4.368  20.075  0.00  0.00    +0.000 C 
ATOM     20  N   UNL     1       2.771   3.270  20.413  0.00  0.00    +0.000 NA
ENDBRANCH   6  19
BRANCH   1  21
ATOM     21  O   UNL     1       3.156   5.238  17.456  0.00  0.00    +0.000 OA
BRANCH  21  26
ATOM     22  C   UNL     1       6.823   5.839  17.620  0.00  0.00    +0.000 A 
ATOM     23  C   UNL     1       7.240   4.939  16.632  0.00  0.00    +0.000 A 
ATOM     24  C   UNL     1       6.300   4.183  15.930  0.00  0.00    +0.000 A 
ATOM     25  C   UNL     1       4.939   4.306  16.221  0.00  0.00    +0.000 A 
ATOM     26  C   UNL     1       4.516   5.171  17.229  0.00  0.00    +0.000 A 
ATOM     27  C   UNL     1       5.455   5.959  17.903  0.00  0.00    +0.000 A 
BRANCH  22  29
ATOM     28  C   UNL     1       7.835   8.106  17.642  0.00  0.00    +0.000 C 
ATOM     29  C   UNL     1       7.816   6.739  18.310  0.00  0.00    +0.000 C 
ENDBRANCH  22  29
ENDBRANCH  21  26
ENDBRANCH   1  21
TORSDOF 6
ENDMDL
MODEL 6
REMARK VINA RESULT:      -8.2      1.118      1.286
REMARK  Name = 
REMARK  7 active torsions:
REMARK  status: ('A' for Active; 'I' for Inactive)
REMARK    1  A    between atoms: C_1  and  C_2
REMARK    2  A    between atoms: C_2  and  C_3
REMARK    3  A    between atoms: C_7  and  O_8
REMARK    4  A    between atoms: O_8  and  C_9
REMARK    5  A    between atoms: C_12  and  S_13
REMARK    6  A    between atoms: S_13  and  N_16
REMARK    7  A    between atoms: C_25  and  C_26
REMARK                            x       y       z     vdW  Elec       q    Type
REMARK                         _______ _______ _______ _____ _____    ______ ____
ROOT
ATOM      1  C   UNL     1       2.793   6.257  18.666  0.00  0.00    +0.000 A 
ATOM      2  C   UNL     1       2.842   7.425  17.889  0.00  0.00    +0.000 A 
ATOM      3  C   UNL     1       2.159   8.571  18.290  0.00  0.00    +0.000 A 
ATOM      4  C   UNL     1       1.465   8.572  19.501  0.00  0.00    +0.000 A 
ATOM      5  C   UNL     1       1.495   7.450  20.338  0.00  0.00    +0.000 A 
ATOM      6  C   UNL     1       2.156   6.285  19.918  0.00  0.00    +0.000 A 
ENDROOT
BRANCH   4   7
ATOM      7  S   UNL     1       0.596  10.049  19.994  0.00  0.00    +0.000 S 
ATOM      8  O   UNL     1      -0.590   9.643  20.719  0.00  0.00    +0.000 OA
ATOM      9  O   UNL     1       1.574  10.932  20.592  0.00  0.00    +0.000 OA
BRANCH   7  10
ATOM     10  N   UNL     1       0.149  10.749  18.525  0.00  0.00    +0.000 N 
ATOM     11  C   UNL     1      -1.234  10.826  18.280  0.00  0.00    +0.000 A 
ATOM     12  C   UNL     1      -2.022  11.834  18.816  0.00  0.00    +0.000 A 
ATOM     13  C   UNL     1      -3.381  11.828  18.512  0.00  0.00    +0.000 A 
ATOM     14  C   UNL     1      -3.883  10.809  17.715  0.00  0.00    +0.000 A 
ATOM     15  F   UNL     1      -5.184  10.772  17.402  0.00  0.00    +0.000 F 
ATOM     16  C   UNL     1      -3.017   9.834  17.247  0.00  0.00    +0.000 A 
ATOM     17  N   UNL     1      -1.687   9.820  17.511  0.00  0.00    +0.000 NA
ATOM     18  H   UNL     1       0.618  10.277  17.755  0.00  0.00    +0.000 HD
ENDBRANCH   7  10
ENDBRANCH   4   7
BRANCH   6  19
ATOM     19  C   UNL     1       2.168   5.137  20.786  0.00  0.00    +0.000 C 
ATOM     20  N   UNL     1       2.209   4.237  21.515  0.00  0.00    +0.000 NA
ENDBRANCH   6  19
BRANCH   1  21
ATOM     21  O   UNL     1       3.403   5.084  18.262  0.00  0.00    +0.000 OA
BRANCH  21  26
ATOM     22  C   UNL     1       6.537   4.921  16.264  0.00  0.00    +0.000 A 
ATOM     23  C   UNL     1       7.463   5.173  17.284  0.00  0.00    +0.000 A 
ATOM     24  C   UNL     1       7.027   5.366  18.595  0.00  0.00    +0.000 A 
ATOM     25  C   UNL     1       5.664   5.326  18.897  0.00  0.00    +0.000 A 
ATOM     26  C   UNL     1       4.730   5.113  17.884  0.00  0.00    +0.000 A 
ATOM     27  C   UNL     1       5.170   4.879  16.576  0.00  0.00    +0.000 A 
BRANCH  22  29
ATOM     28  C   UNL     1       5.837   4.076  14.037  0.00  0.00    +0.000 C 
ATOM     29  C   UNL     1       6.999   4.606  14.865  0.00  0.00    +0.000 C 
ENDBRANCH  22  29
ENDBRANCH  21  26
ENDBRANCH   1  21
TORSDOF 6
ENDMDL
MODEL 7
REMARK VINA RESULT:      -7.9      3.925      8.168
REMARK  Name = 
REMARK  7 active torsions:
REMARK  status: ('A' for Active; 'I' for Inactive)
REMARK    1  A    between atoms: C_1  and  C_2
REMARK    2  A    between atoms: C_2  and  C_3
REMARK    3  A    between atoms: C_7  and  O_8
REMARK    4  A    between atoms: O_8  and  C_9
REMARK    5  A    between atoms: C_12  and  S_13
REMARK    6  A    between atoms: S_13  and  N_16
REMARK    7  A    between atoms: C_25  and  C_26
REMARK                            x       y       z     vdW  Elec       q    Type
REMARK                         _______ _______ _______ _____ _____    ______ ____
ROOT
ATOM      1  C   UNL     1       0.927   9.644  19.128  0.00  0.00    +0.000 A 
ATOM      2  C   UNL     1       1.458   9.466  17.842  0.00  0.00    +0.000 A 
ATOM      3  C   UNL     1       2.358   8.434  17.584  0.00  0.00    +0.000 A 
ATOM      4  C   UNL     1       2.691   7.539  18.603  0.00  0.00    +0.000 A 
ATOM      5  C   UNL     1       2.088   7.640  19.862  0.00  0.00    +0.000 A 
ATOM      6  C   UNL     1       1.207   8.700  20.130  0.00  0.00    +0.000 A 
ENDROOT
BRANCH   4   7
ATOM      7  S   UNL     1       3.846   6.226  18.252  0.00  0.00    +0.000 S 
ATOM      8  O   UNL     1       4.575   6.587  17.055  0.00  0.00    +0.000 OA
ATOM      9  O   UNL     1       4.536   5.932  19.490  0.00  0.00    +0.000 OA
BRANCH   7  10
ATOM     10  N   UNL     1       2.848   4.904  17.930  0.00  0.00    +0.000 N 
ATOM     11  C   UNL     1       2.481   4.129  19.045  0.00  0.00    +0.000 A 
ATOM     12  C   UNL     1       1.448   4.500  19.892  0.00  0.00    +0.000 A 
ATOM     13  C   UNL     1       1.157   3.665  20.969  0.00  0.00    +0.000 A 
ATOM     14  C   UNL     1       1.923   2.524  21.155  0.00  0.00    +0.000 A 
ATOM     15  F   UNL     1       1.671   1.698  22.177  0.00  0.00    +0.000 F 
ATOM     16  C   UNL     1       2.950   2.252  20.265  0.00  0.00    +0.000 A 
ATOM     17  N   UNL     1       3.249   3.036  19.200  0.00  0.00    +0.000 NA
ATOM     18  H   UNL     1       3.265   4.315  17.214  0.00  0.00    +0.000 HD
ENDBRANCH   7  10
ENDBRANCH   4   7
BRANCH   6  19
ATOM     19  C   UNL     1       0.604   8.795  21.433  0.00  0.00    +0.000 C 
ATOM     20  N   UNL     1       0.148   8.910  22.492  0.00  0.00    +0.000 NA
ENDBRANCH   6  19
BRANCH   1  21
ATOM     21  O   UNL     1       0.086  10.699  19.432  0.00  0.00    +0.000 OA
BRANCH  21  26
ATOM     22  C   UNL     1      -2.657  10.289  16.953  0.00  0.00    +0.000 A 
ATOM     23  C   UNL     1      -3.581  11.191  17.494  0.00  0.00    +0.000 A 
ATOM     24  C   UNL     1      -3.261  11.920  18.641  0.00  0.00    +0.000 A 
ATOM     25  C   UNL     1      -2.026  11.740  19.267  0.00  0.00    +0.000 A 
ATOM     26  C   UNL     1      -1.113  10.816  18.759  0.00  0.00    +0.000 A 
ATOM     27  C   UNL     1      -1.417  10.117  17.586  0.00  0.00    +0.000 A 
BRANCH  22  29
ATOM     28  C   UNL     1      -3.803  10.453  14.757  0.00  0.00    +0.000 C 
ATOM     29  C   UNL     1      -2.946   9.576  15.658  0.00  0.00    +0.000 C 
ENDBRANCH  22  29
ENDBRANCH  21  26
ENDBRANCH   1  21
TORSDOF 6
ENDMDL
MODEL 8
REMARK VINA RESULT:      -7.9      1.827      2.593
REMARK  Name = 
REMARK  7 active torsions:
REMARK  status: ('A' for Active; 'I' for Inactive)
REMARK    1  A    between atoms: C_1  and  C_2
REMARK    2  A    between atoms: C_2  and  C_3
REMARK    3  A    between atoms: C_7  and  O_8
REMARK    4  A    between atoms: O_8  and  C_9
REMARK    5  A    between atoms: C_12  and  S_13
REMARK    6  A    between atoms: S_13  and  N_16
REMARK    7  A    between atoms: C_25  and  C_26
REMARK                            x       y       z     vdW  Elec       q    Type
REMARK                         _______ _______ _______ _____ _____    ______ ____
ROOT
ATOM      1  C   UNL     1       2.711   5.651  19.263  0.00  0.00    +0.000 A 
ATOM      2  C   UNL     1       2.723   6.902  18.629  0.00  0.00    +0.000 A 
ATOM      3  C   UNL     1       2.033   7.981  19.176  0.00  0.00    +0.000 A 
ATOM      4  C   UNL     1       1.367   7.827  20.393  0.00  0.00    +0.000 A 
ATOM      5  C   UNL     1       1.435   6.615  21.092  0.00  0.00    +0.000 A 
ATOM      6  C   UNL     1       2.103   5.519  20.523  0.00  0.00    +0.000 A 
ENDROOT
BRANCH   4   7
ATOM      7  S   UNL     1       0.487   9.220  21.076  0.00  0.00    +0.000 S 
ATOM      8  O   UNL     1      -0.566   8.704  21.926  0.00  0.00    +0.000 OA
ATOM      9  O   UNL     1       1.483  10.136  21.589  0.00  0.00    +0.000 OA
BRANCH   7  10
ATOM     10  N   UNL     1      -0.192   9.957  19.718  0.00  0.00    +0.000 N 
ATOM     11  C   UNL     1       0.283  11.246  19.420  0.00  0.00    +0.000 A 
ATOM     12  C   UNL     1       1.474  11.454  18.740  0.00  0.00    +0.000 A 
ATOM     13  C   UNL     1       1.859  12.770  18.489  0.00  0.00    +0.000 A 
ATOM     14  C   UNL     1       1.052  13.801  18.948  0.00  0.00    +0.000 A 
ATOM     15  F   UNL     1       1.390  15.076  18.724  0.00  0.00    +0.000 F 
ATOM     16  C   UNL     1      -0.108  13.489  19.639  0.00  0.00    +0.000 A 
ATOM     17  N   UNL     1      -0.518  12.220  19.886  0.00  0.00    +0.000 NA
ATOM     18  H   UNL     1      -1.206   9.963  19.792  0.00  0.00    +0.000 HD
ENDBRANCH   7  10
ENDBRANCH   4   7
BRANCH   6  19
ATOM     19  C   UNL     1       2.154   4.278  21.250  0.00  0.00    +0.000 C 
ATOM     20  N   UNL     1       2.167   3.300  21.871  0.00  0.00    +0.000 NA
ENDBRANCH   6  19
BRANCH   1  21
ATOM     21  O   UNL     1       3.329   4.544  18.711  0.00  0.00    +0.000 OA
BRANCH  21  26
ATOM     22  C   UNL     1       6.825   5.586  17.979  0.00  0.00    +0.000 A 
ATOM     23  C   UNL     1       7.003   4.922  16.760  0.00  0.00    +0.000 A 
ATOM     24  C   UNL     1       5.961   4.174  16.209  0.00  0.00    +0.000 A 
ATOM     25  C   UNL     1       4.741   4.068  16.879  0.00  0.00    +0.000 A 
ATOM     26  C   UNL     1       4.564   4.694  18.113  0.00  0.00    +0.000 A 
ATOM     27  C   UNL     1       5.594   5.477  18.644  0.00  0.00    +0.000 A 
BRANCH  22  29
ATOM     28  C   UNL     1       7.867   7.834  17.836  0.00  0.00    +0.000 C 
ATOM     29  C   UNL     1       7.902   6.482  18.533  0.00  0.00    +0.000 C 
ENDBRANCH  22  29
ENDBRANCH  21  26
ENDBRANCH   1  21
TORSDOF 6
ENDMDL
MODEL 9
REMARK VINA RESULT:      -7.9      1.733      2.089
REMARK  Name = 
REMARK  7 active torsions:
REMARK  status: ('A' for Active; 'I' for Inactive)
REMARK    1  A    between atoms: C_1  and  C_2
REMARK    2  A    between atoms: C_2  and  C_3
REMARK    3  A    between atoms: C_7  and  O_8
REMARK    4  A    between atoms: O_8  and  C_9
REMARK    5  A    between atoms: C_12  and  S_13
REMARK    6  A    between atoms: S_13  and  N_16
REMARK    7  A    between atoms: C_25  and  C_26
REMARK                            x       y       z     vdW  Elec       q    Type
REMARK                         _______ _______ _______ _____ _____    ______ ____
ROOT
ATOM      1  C   UNL     1       2.710   5.807  19.241  0.00  0.00    +0.000 A 
ATOM      2  C   UNL     1       2.714   7.068  18.625  0.00  0.00    +0.000 A 
ATOM      3  C   UNL     1       2.011   8.132  19.185  0.00  0.00    +0.000 A 
ATOM      4  C   UNL     1       1.340   7.954  20.396  0.00  0.00    +0.000 A 
ATOM      5  C   UNL     1       1.415   6.733  21.077  0.00  0.00    +0.000 A 
ATOM      6  C   UNL     1       2.097   5.652  20.496  0.00  0.00    +0.000 A 
ENDROOT
BRANCH   4   7
ATOM      7  S   UNL     1       0.444   9.329  21.095  0.00  0.00    +0.000 S 
ATOM      8  O   UNL     1      -0.593   8.792  21.949  0.00  0.00    +0.000 OA
ATOM      9  O   UNL     1       1.430  10.257  21.606  0.00  0.00    +0.000 OA
BRANCH   7  10
ATOM     10  N   UNL     1      -0.256  10.064  19.747  0.00  0.00    +0.000 N 
ATOM     11  C   UNL     1       0.211  11.354  19.441  0.00  0.00    +0.000 A 
ATOM     12  C   UNL     1       1.391  11.564  18.744  0.00  0.00    +0.000 A 
ATOM     13  C   UNL     1       1.770  12.880  18.486  0.00  0.00    +0.000 A 
ATOM     14  C   UNL     1       0.968  13.910  18.956  0.00  0.00    +0.000 A 
ATOM     15  F   UNL     1       1.299  15.186  18.727  0.00  0.00    +0.000 F 
ATOM     16  C   UNL     1      -0.181  13.596  19.665  0.00  0.00    +0.000 A 
ATOM     17  N   UNL     1      -0.585  12.327  19.919  0.00  0.00    +0.000 NA
ATOM     18  H   UNL     1      -1.270  10.068  19.836  0.00  0.00    +0.000 HD
ENDBRANCH   7  10
ENDBRANCH   4   7
BRANCH   6  19
ATOM     19  C   UNL     1       2.155   4.400  21.204  0.00  0.00    +0.000 C 
ATOM     20  N   UNL     1       2.241   3.410  21.799  0.00  0.00    +0.000 NA
ENDBRANCH   6  19
BRANCH   1  21
ATOM     21  O   UNL     1       3.341   4.715  18.676  0.00  0.00    +0.000 OA
BRANCH  21  26
ATOM     22  C   UNL     1       6.411   4.721  16.575  0.00  0.00    +0.000 A 
ATOM     23  C   UNL     1       7.342   5.112  17.545  0.00  0.00    +0.000 A 
ATOM     24  C   UNL     1       6.933   5.338  18.860  0.00  0.00    +0.000 A 
ATOM     25  C   UNL     1       5.590   5.193  19.213  0.00  0.00    +0.000 A 
ATOM     26  C   UNL     1       4.647   4.841  18.248  0.00  0.00    +0.000 A 
ATOM     27  C   UNL     1       5.064   4.574  16.939  0.00  0.00    +0.000 A 
BRANCH  22  29
ATOM     28  C   UNL     1       5.653   4.318  14.246  0.00  0.00    +0.000 C 
ATOM     29  C   UNL     1       6.855   4.371  15.179  0.00  0.00    +0.000 C 
ENDBRANCH  22  29
ENDBRANCH  21  26
ENDBRANCH   1  21
TORSDOF 6
ENDMDL
