MODEL 1
REMARK VINA RESULT:      -7.7      0.000      0.000
REMARK  Name = 
REMARK  3 active torsions:
REMARK  status: ('A' for Active; 'I' for Inactive)
REMARK    1  A    between atoms: C_1  and  N_2
REMARK    2  A    between atoms: N_11  and  C_12
REMARK    3  A    between atoms: C_12  and  C_13
REMARK                            x       y       z     vdW  Elec       q    Type
REMARK                         _______ _______ _______ _____ _____    ______ ____
ROOT
ATOM      1  C   UNL     1      -0.437   9.804  22.647  0.00  0.00    +0.000 C 
ATOM      2  N   UNL     1      -0.223  10.123  21.260  0.00  0.00    +0.000 N 
ATOM      3  C   UNL     1      -0.821  11.175  20.588  0.00  0.00    +0.000 A 
ATOM      4  C   UNL     1      -1.720  12.242  20.875  0.00  0.00    +0.000 A 
ATOM      5  C   UNL     1      -1.946  12.984  19.736  0.00  0.00    +0.000 A 
ATOM      6  S   UNL     1      -1.114  12.417  18.341  0.00  0.00    +0.000 S 
ATOM      7  C   UNL     1      -0.414  11.142  19.281  0.00  0.00    +0.000 A 
ATOM      8  C   UNL     1       0.468  10.043  19.142  0.00  0.00    +0.000 A 
ATOM      9  N   UNL     1       1.130   9.586  18.003  0.00  0.00    +0.000 NA
ATOM     10  C   UNL     1       1.882   8.554  18.230  0.00  0.00    +0.000 A 
ATOM     11  N   UNL     1       2.079   7.903  19.439  0.00  0.00    +0.000 N 
ATOM     12  C   UNL     1       1.416   8.306  20.594  0.00  0.00    +0.000 A 
ATOM     13  O   UNL     1       1.515   7.737  21.677  0.00  0.00    +0.000 OA
ATOM     14  C   UNL     1       0.580   9.452  20.373  0.00  0.00    +0.000 A 
ENDROOT
BRANCH  11  15
ATOM     15  C   UNL     1       2.909   6.714  19.490  0.00  0.00    +0.000 C 
BRANCH  15  16
ATOM     16  C   UNL     1       2.152   5.425  19.246  0.00  0.00    +0.000 A 
ATOM     17  C   UNL     1       2.087   4.874  17.954  0.00  0.00    +0.000 A 
ATOM     18  C   UNL     1       1.489   3.629  17.744  0.00  0.00    +0.000 A 
ATOM     19  C   UNL     1       0.944   2.940  18.819  0.00  0.00    +0.000 A 
ATOM     20  F   UNL     1       0.407   1.729  18.624  0.00  0.00    +0.000 F 
ATOM     21  C   UNL     1       0.960   3.485  20.097  0.00  0.00    +0.000 A 
ATOM     22  C   UNL     1       1.556   4.731  20.311  0.00  0.00    +0.000 A 
ENDBRANCH  15  16
ENDBRANCH  11  15
TORSDOF 2
ENDMDL
MODEL 2
REMARK VINA RESULT:      -7.6      2.164      2.812
REMARK  Name = 
REMARK  3 active torsions:
REMARK  status: ('A' for Active; 'I' for Inactive)
REMARK    1  A    between atoms: C_1  and  N_2
REMARK    2  A    between atoms: N_11  and  C_12
REMARK    3  A    between atoms: C_12  and  C_13
REMARK                            x       y       z     vdW  Elec       q    Type
REMARK                         _______ _______ _______ _____ _____    ______ ____
ROOT
ATOM      1  C   UNL     1       0.565  11.854  18.703  0.00  0.00    +0.000 C 
ATOM      2  N   UNL     1       0.545  10.820  19.704  0.00  0.00    +0.000 N 
ATOM      3  C   UNL     1      -0.064  10.929  20.943  0.00  0.00    +0.000 A 
ATOM      4  C   UNL     1      -0.826  11.889  21.669  0.00  0.00    +0.000 A 
ATOM      5  C   UNL     1      -1.155  11.385  22.909  0.00  0.00    +0.000 A 
ATOM      6  S   UNL     1      -0.558   9.801  23.215  0.00  0.00    +0.000 S 
ATOM      7  C   UNL     1       0.158   9.770  21.638  0.00  0.00    +0.000 A 
ATOM      8  C   UNL     1       0.919   8.917  20.803  0.00  0.00    +0.000 A 
ATOM      9  N   UNL     1       1.406   7.637  21.065  0.00  0.00    +0.000 NA
ATOM     10  C   UNL     1       2.057   7.125  20.066  0.00  0.00    +0.000 A 
ATOM     11  N   UNL     1       2.295   7.703  18.828  0.00  0.00    +0.000 N 
ATOM     12  C   UNL     1       1.853   8.990  18.535  0.00  0.00    +0.000 A 
ATOM     13  O   UNL     1       2.077   9.568  17.475  0.00  0.00    +0.000 OA
ATOM     14  C   UNL     1       1.123   9.579  19.621  0.00  0.00    +0.000 A 
ENDROOT
BRANCH  11  15
ATOM     15  C   UNL     1       3.108   7.004  17.851  0.00  0.00    +0.000 C 
BRANCH  15  16
ATOM     16  C   UNL     1       3.131   5.501  18.035  0.00  0.00    +0.000 A 
ATOM     17  C   UNL     1       2.002   4.728  17.714  0.00  0.00    +0.000 A 
ATOM     18  C   UNL     1       2.057   3.333  17.772  0.00  0.00    +0.000 A 
ATOM     19  C   UNL     1       3.233   2.710  18.165  0.00  0.00    +0.000 A 
ATOM     20  F   UNL     1       3.298   1.372  18.183  0.00  0.00    +0.000 F 
ATOM     21  C   UNL     1       4.348   3.455  18.529  0.00  0.00    +0.000 A 
ATOM     22  C   UNL     1       4.297   4.850  18.472  0.00  0.00    +0.000 A 
ENDBRANCH  15  16
ENDBRANCH  11  15
TORSDOF 2
ENDMDL
MODEL 3
REMARK VINA RESULT:      -7.5      2.141      2.830
REMARK  Name = 
REMARK  3 active torsions:
REMARK  status: ('A' for Active; 'I' for Inactive)
REMARK    1  A    between atoms: C_1  and  N_2
REMARK    2  A    between atoms: N_11  and  C_12
REMARK    3  A    between atoms: C_12  and  C_13
REMARK                            x       y       z     vdW  Elec       q    Type
REMARK                         _______ _______ _______ _____ _____    ______ ____
ROOT
ATOM      1  C   UNL     1       0.180  11.586  18.679  0.00  0.00    +0.000 C 
ATOM      2  N   UNL     1       0.328  10.588  19.705  0.00  0.00    +0.000 N 
ATOM      3  C   UNL     1      -0.211  10.675  20.977  0.00  0.00    +0.000 A 
ATOM      4  C   UNL     1      -1.024  11.574  21.725  0.00  0.00    +0.000 A 
ATOM      5  C   UNL     1      -1.222  11.081  22.996  0.00  0.00    +0.000 A 
ATOM      6  S   UNL     1      -0.446   9.576  23.305  0.00  0.00    +0.000 S 
ATOM      7  C   UNL     1       0.171   9.567  21.687  0.00  0.00    +0.000 A 
ATOM      8  C   UNL     1       0.964   8.769  20.827  0.00  0.00    +0.000 A 
ATOM      9  N   UNL     1       1.597   7.555  21.090  0.00  0.00    +0.000 NA
ATOM     10  C   UNL     1       2.235   7.080  20.065  0.00  0.00    +0.000 A 
ATOM     11  N   UNL     1       2.336   7.639  18.800  0.00  0.00    +0.000 N 
ATOM     12  C   UNL     1       1.745   8.864  18.502  0.00  0.00    +0.000 A 
ATOM     13  O   UNL     1       1.844   9.427  17.416  0.00  0.00    +0.000 OA
ATOM     14  C   UNL     1       1.026   9.410  19.618  0.00  0.00    +0.000 A 
ENDROOT
BRANCH  11  15
ATOM     15  C   UNL     1       3.155   6.995  17.791  0.00  0.00    +0.000 C 
BRANCH  15  16
ATOM     16  C   UNL     1       3.134   5.482  17.857  0.00  0.00    +0.000 A 
ATOM     17  C   UNL     1       4.321   4.765  18.092  0.00  0.00    +0.000 A 
ATOM     18  C   UNL     1       4.289   3.380  18.268  0.00  0.00    +0.000 A 
ATOM     19  C   UNL     1       3.076   2.707  18.196  0.00  0.00    +0.000 A 
ATOM     20  F   UNL     1       3.040   1.384  18.405  0.00  0.00    +0.000 F 
ATOM     21  C   UNL     1       1.897   3.390  17.922  0.00  0.00    +0.000 A 
ATOM     22  C   UNL     1       1.926   4.776  17.745  0.00  0.00    +0.000 A 
ENDBRANCH  15  16
ENDBRANCH  11  15
TORSDOF 2
ENDMDL
MODEL 4
REMARK VINA RESULT:      -7.5      0.215      1.052
REMARK  Name = 
REMARK  3 active torsions:
REMARK  status: ('A' for Active; 'I' for Inactive)
REMARK    1  A    between atoms: C_1  and  N_2
REMARK    2  A    between atoms: N_11  and  C_12
REMARK    3  A    between atoms: C_12  and  C_13
REMARK                            x       y       z     vdW  Elec       q    Type
REMARK                         _______ _______ _______ _____ _____    ______ ____
ROOT
ATOM      1  C   UNL     1      -0.179   9.815  22.614  0.00  0.00    +0.000 C 
ATOM      2  N   UNL     1      -0.094  10.081  21.202  0.00  0.00    +0.000 N 
ATOM      3  C   UNL     1      -0.801  11.068  20.538  0.00  0.00    +0.000 A 
ATOM      4  C   UNL     1      -1.732  12.099  20.853  0.00  0.00    +0.000 A 
ATOM      5  C   UNL     1      -2.088  12.775  19.706  0.00  0.00    +0.000 A 
ATOM      6  S   UNL     1      -1.340  12.188  18.272  0.00  0.00    +0.000 S 
ATOM      7  C   UNL     1      -0.498  10.996  19.204  0.00  0.00    +0.000 A 
ATOM      8  C   UNL     1       0.429   9.938  19.040  0.00  0.00    +0.000 A 
ATOM      9  N   UNL     1       1.023   9.464  17.870  0.00  0.00    +0.000 NA
ATOM     10  C   UNL     1       1.847   8.484  18.078  0.00  0.00    +0.000 A 
ATOM     11  N   UNL     1       2.175   7.900  19.293  0.00  0.00    +0.000 N 
ATOM     12  C   UNL     1       1.584   8.322  20.481  0.00  0.00    +0.000 A 
ATOM     13  O   UNL     1       1.801   7.809  21.575  0.00  0.00    +0.000 OA
ATOM     14  C   UNL     1       0.671   9.411  20.281  0.00  0.00    +0.000 A 
ENDROOT
BRANCH  11  15
ATOM     15  C   UNL     1       3.071   6.760  19.325  0.00  0.00    +0.000 C 
BRANCH  15  16
ATOM     16  C   UNL     1       2.374   5.426  19.157  0.00  0.00    +0.000 A 
ATOM     17  C   UNL     1       1.709   4.830  20.242  0.00  0.00    +0.000 A 
ATOM     18  C   UNL     1       0.968   3.659  20.064  0.00  0.00    +0.000 A 
ATOM     19  C   UNL     1       0.903   3.074  18.806  0.00  0.00    +0.000 A 
ATOM     20  F   UNL     1       0.160   1.974  18.627  0.00  0.00    +0.000 F 
ATOM     21  C   UNL     1       1.587   3.622  17.729  0.00  0.00    +0.000 A 
ATOM     22  C   UNL     1       2.329   4.793  17.904  0.00  0.00    +0.000 A 
ENDBRANCH  15  16
ENDBRANCH  11  15
TORSDOF 2
ENDMDL
MODEL 5
REMARK VINA RESULT:      -7.3      3.320      4.281
REMARK  Name = 
REMARK  3 active torsions:
REMARK  status: ('A' for Active; 'I' for Inactive)
REMARK    1  A    between atoms: C_1  and  N_2
REMARK    2  A    between atoms: N_11  and  C_12
REMARK    3  A    between atoms: C_12  and  C_13
REMARK                            x       y       z     vdW  Elec       q    Type
REMARK                         _______ _______ _______ _____ _____    ______ ____
ROOT
ATOM      1  C   UNL     1       1.239  11.252  18.455  0.00  0.00    +0.000 C 
ATOM      2  N   UNL     1       1.065  10.263  19.486  0.00  0.00    +0.000 N 
ATOM      3  C   UNL     1       0.455  10.491  20.708  0.00  0.00    +0.000 A 
ATOM      4  C   UNL     1      -0.186  11.565  21.388  0.00  0.00    +0.000 A 
ATOM      5  C   UNL     1      -0.600  11.150  22.635  0.00  0.00    +0.000 A 
ATOM      6  S   UNL     1      -0.223   9.511  23.001  0.00  0.00    +0.000 S 
ATOM      7  C   UNL     1       0.509   9.335  21.442  0.00  0.00    +0.000 A 
ATOM      8  C   UNL     1       1.165   8.363  20.648  0.00  0.00    +0.000 A 
ATOM      9  N   UNL     1       1.475   7.039  20.959  0.00  0.00    +0.000 NA
ATOM     10  C   UNL     1       2.070   6.414  19.990  0.00  0.00    +0.000 A 
ATOM     11  N   UNL     1       2.403   6.916  18.741  0.00  0.00    +0.000 N 
ATOM     12  C   UNL     1       2.140   8.239  18.399  0.00  0.00    +0.000 A 
ATOM     13  O   UNL     1       2.457   8.748  17.328  0.00  0.00    +0.000 OA
ATOM     14  C   UNL     1       1.475   8.954  19.452  0.00  0.00    +0.000 A 
ENDROOT
BRANCH  11  15
ATOM     15  C   UNL     1       3.133   6.085  17.802  0.00  0.00    +0.000 C 
BRANCH  15  16
ATOM     16  C   UNL     1       4.630   6.071  18.030  0.00  0.00    +0.000 A 
ATOM     17  C   UNL     1       5.476   6.868  17.239  0.00  0.00    +0.000 A 
ATOM     18  C   UNL     1       6.843   6.946  17.520  0.00  0.00    +0.000 A 
ATOM     19  C   UNL     1       7.368   6.219  18.579  0.00  0.00    +0.000 A 
ATOM     20  F   UNL     1       8.671   6.325  18.873  0.00  0.00    +0.000 F 
ATOM     21  C   UNL     1       6.558   5.391  19.347  0.00  0.00    +0.000 A 
ATOM     22  C   UNL     1       5.191   5.309  19.069  0.00  0.00    +0.000 A 
ENDBRANCH  15  16
ENDBRANCH  11  15
TORSDOF 2
ENDMDL
MODEL 6
REMARK VINA RESULT:      -7.0      2.741      3.311
REMARK  Name = 
REMARK  3 active torsions:
REMARK  status: ('A' for Active; 'I' for Inactive)
REMARK    1  A    between atoms: C_1  and  N_2
REMARK    2  A    between atoms: N_11  and  C_12
REMARK    3  A    between atoms: C_12  and  C_13
REMARK                            x       y       z     vdW  Elec       q    Type
REMARK                         _______ _______ _______ _____ _____    ______ ____
ROOT
ATOM      1  C   UNL     1       0.472   9.088  22.235  0.00  0.00    +0.000 C 
ATOM      2  N   UNL     1       0.863   9.610  20.952  0.00  0.00    +0.000 N 
ATOM      3  C   UNL     1       0.733  10.931  20.562  0.00  0.00    +0.000 A 
ATOM      4  C   UNL     1       0.280  12.161  21.118  0.00  0.00    +0.000 A 
ATOM      5  C   UNL     1       0.406  13.171  20.189  0.00  0.00    +0.000 A 
ATOM      6  S   UNL     1       1.042  12.667  18.671  0.00  0.00    +0.000 S 
ATOM      7  C   UNL     1       1.168  11.046  19.267  0.00  0.00    +0.000 A 
ATOM      8  C   UNL     1       1.586   9.759  18.849  0.00  0.00    +0.000 A 
ATOM      9  N   UNL     1       2.092   9.359  17.612  0.00  0.00    +0.000 NA
ATOM     10  C   UNL     1       2.395   8.099  17.569  0.00  0.00    +0.000 A 
ATOM     11  N   UNL     1       2.272   7.166  18.588  0.00  0.00    +0.000 N 
ATOM     12  C   UNL     1       1.745   7.515  19.828  0.00  0.00    +0.000 A 
ATOM     13  O   UNL     1       1.568   6.720  20.747  0.00  0.00    +0.000 OA
ATOM     14  C   UNL     1       1.406   8.908  19.906  0.00  0.00    +0.000 A 
ENDROOT
BRANCH  11  15
ATOM     15  C   UNL     1       2.599   5.776  18.335  0.00  0.00    +0.000 C 
BRANCH  15  16
ATOM     16  C   UNL     1       4.080   5.517  18.149  0.00  0.00    +0.000 A 
ATOM     17  C   UNL     1       4.952   5.566  19.251  0.00  0.00    +0.000 A 
ATOM     18  C   UNL     1       6.297   5.216  19.106  0.00  0.00    +0.000 A 
ATOM     19  C   UNL     1       6.775   4.832  17.860  0.00  0.00    +0.000 A 
ATOM     20  F   UNL     1       8.055   4.459  17.730  0.00  0.00    +0.000 F 
ATOM     21  C   UNL     1       5.941   4.819  16.749  0.00  0.00    +0.000 A 
ATOM     22  C   UNL     1       4.595   5.169  16.890  0.00  0.00    +0.000 A 
ENDBRANCH  15  16
ENDBRANCH  11  15
TORSDOF 2
ENDMDL
MODEL 7
REMARK VINA RESULT:      -7.0      3.234      4.232
REMARK  Name = 
REMARK  3 active torsions:
REMARK  status: ('A' for Active; 'I' for Inactive)
REMARK    1  A    between atoms: C_1  and  N_2
REMARK    2  A    between atoms: N_11  and  C_12
REMARK    3  A    between atoms: C_12  and  C_13
REMARK                            x       y       z     vdW  Elec       q    Type
REMARK                         _______ _______ _______ _____ _____    ______ ____
ROOT
ATOM      1  C   UNL     1       1.201  11.441  18.553  0.00  0.00    +0.000 C 
ATOM      2  N   UNL     1       0.987  10.451  19.576  0.00  0.00    +0.000 N 
ATOM      3  C   UNL     1       0.367  10.690  20.791  0.00  0.00    +0.000 A 
ATOM      4  C   UNL     1      -0.253  11.778  21.469  0.00  0.00    +0.000 A 
ATOM      5  C   UNL     1      -0.695  11.367  22.709  0.00  0.00    +0.000 A 
ATOM      6  S   UNL     1      -0.367   9.717  23.070  0.00  0.00    +0.000 S 
ATOM      7  C   UNL     1       0.381   9.529  21.520  0.00  0.00    +0.000 A 
ATOM      8  C   UNL     1       1.021   8.544  20.730  0.00  0.00    +0.000 A 
ATOM      9  N   UNL     1       1.290   7.210  21.037  0.00  0.00    +0.000 NA
ATOM     10  C   UNL     1       1.880   6.574  20.073  0.00  0.00    +0.000 A 
ATOM     11  N   UNL     1       2.243   7.073  18.830  0.00  0.00    +0.000 N 
ATOM     12  C   UNL     1       2.020   8.405  18.493  0.00  0.00    +0.000 A 
ATOM     13  O   UNL     1       2.365   8.910  17.428  0.00  0.00    +0.000 OA
ATOM     14  C   UNL     1       1.362   9.132  19.541  0.00  0.00    +0.000 A 
ENDROOT
BRANCH  11  15
ATOM     15  C   UNL     1       2.963   6.227  17.897  0.00  0.00    +0.000 C 
BRANCH  15  16
ATOM     16  C   UNL     1       4.455   6.166  18.148  0.00  0.00    +0.000 A 
ATOM     17  C   UNL     1       4.967   5.381  19.195  0.00  0.00    +0.000 A 
ATOM     18  C   UNL     1       6.346   5.230  19.359  0.00  0.00    +0.000 A 
ATOM     19  C   UNL     1       7.215   5.874  18.488  0.00  0.00    +0.000 A 
ATOM     20  F   UNL     1       8.536   5.697  18.621  0.00  0.00    +0.000 F 
ATOM     21  C   UNL     1       6.731   6.690  17.473  0.00  0.00    +0.000 A 
ATOM     22  C   UNL     1       5.352   6.843  17.306  0.00  0.00    +0.000 A 
ENDBRANCH  15  16
ENDBRANCH  11  15
TORSDOF 2
ENDMDL
MODEL 8
REMARK VINA RESULT:      -7.0      1.617      2.278
REMARK  Name = 
REMARK  3 active torsions:
REMARK  status: ('A' for Active; 'I' for Inactive)
REMARK    1  A    between atoms: C_1  and  N_2
REMARK    2  A    between atoms: N_11  and  C_12
REMARK    3  A    between atoms: C_12  and  C_13
REMARK                            x       y       z     vdW  Elec       q    Type
REMARK                         _______ _______ _______ _____ _____    ______ ____
ROOT
ATOM      1  C   UNL     1      -0.666  11.225  18.025  0.00  0.00    +0.000 C 
ATOM      2  N   UNL     1      -0.536  10.876  19.415  0.00  0.00    +0.000 N 
ATOM      3  C   UNL     1      -1.180  11.521  20.457  0.00  0.00    +0.000 A 
ATOM      4  C   UNL     1      -2.107  12.588  20.632  0.00  0.00    +0.000 A 
ATOM      5  C   UNL     1      -2.374  12.762  21.973  0.00  0.00    +0.000 A 
ATOM      6  S   UNL     1      -1.529  11.683  23.012  0.00  0.00    +0.000 S 
ATOM      7  C   UNL     1      -0.785  10.944  21.635  0.00  0.00    +0.000 A 
ATOM      8  C   UNL     1       0.125   9.908  21.311  0.00  0.00    +0.000 A 
ATOM      9  N   UNL     1       0.813   9.044  22.163  0.00  0.00    +0.000 NA
ATOM     10  C   UNL     1       1.560   8.193  21.532  0.00  0.00    +0.000 A 
ATOM     11  N   UNL     1       1.725   8.069  20.160  0.00  0.00    +0.000 N 
ATOM     12  C   UNL     1       1.082   8.929  19.274  0.00  0.00    +0.000 A 
ATOM     13  O   UNL     1       1.230   8.895  18.056  0.00  0.00    +0.000 OA
ATOM     14  C   UNL     1       0.241   9.879  19.947  0.00  0.00    +0.000 A 
ENDROOT
BRANCH  11  15
ATOM     15  C   UNL     1       2.663   7.097  19.632  0.00  0.00    +0.000 C 
BRANCH  15  16
ATOM     16  C   UNL     1       2.054   5.734  19.376  0.00  0.00    +0.000 A 
ATOM     17  C   UNL     1       1.984   5.222  18.068  0.00  0.00    +0.000 A 
ATOM     18  C   UNL     1       1.530   3.921  17.839  0.00  0.00    +0.000 A 
ATOM     19  C   UNL     1       1.133   3.135  18.912  0.00  0.00    +0.000 A 
ATOM     20  F   UNL     1       0.735   1.874  18.696  0.00  0.00    +0.000 F 
ATOM     21  C   UNL     1       1.153   3.635  20.208  0.00  0.00    +0.000 A 
ATOM     22  C   UNL     1       1.606   4.936  20.441  0.00  0.00    +0.000 A 
ENDBRANCH  15  16
ENDBRANCH  11  15
TORSDOF 2
ENDMDL
MODEL 9
REMARK VINA RESULT:      -7.0      3.646      7.135
REMARK  Name = 
REMARK  3 active torsions:
REMARK  status: ('A' for Active; 'I' for Inactive)
REMARK    1  A    between atoms: C_1  and  N_2
REMARK    2  A    between atoms: N_11  and  C_12
REMARK    3  A    between atoms: C_12  and  C_13
REMARK                            x       y       z     vdW  Elec       q    Type
REMARK                         _______ _______ _______ _____ _____    ______ ____
ROOT
ATOM      1  C   UNL     1       4.060   5.520  17.131  0.00  0.00    +0.000 C 
ATOM      2  N   UNL     1       3.359   5.590  18.387  0.00  0.00    +0.000 N 
ATOM      3  C   UNL     1       3.250   4.548  19.292  0.00  0.00    +0.000 A 
ATOM      4  C   UNL     1       3.700   3.202  19.419  0.00  0.00    +0.000 A 
ATOM      5  C   UNL     1       3.238   2.662  20.599  0.00  0.00    +0.000 A 
ATOM      6  S   UNL     1       2.272   3.731  21.541  0.00  0.00    +0.000 S 
ATOM      7  C   UNL     1       2.481   4.967  20.345  0.00  0.00    +0.000 A 
ATOM      8  C   UNL     1       2.110   6.309  20.087  0.00  0.00    +0.000 A 
ATOM      9  N   UNL     1       1.318   7.164  20.853  0.00  0.00    +0.000 NA
ATOM     10  C   UNL     1       1.189   8.344  20.331  0.00  0.00    +0.000 A 
ATOM     11  N   UNL     1       1.741   8.807  19.145  0.00  0.00    +0.000 N 
ATOM     12  C   UNL     1       2.513   7.979  18.335  0.00  0.00    +0.000 A 
ATOM     13  O   UNL     1       2.984   8.322  17.255  0.00  0.00    +0.000 OA
ATOM     14  C   UNL     1       2.677   6.667  18.893  0.00  0.00    +0.000 A 
ENDROOT
BRANCH  11  15
ATOM     15  C   UNL     1       1.430  10.146  18.681  0.00  0.00    +0.000 C 
BRANCH  15  16
ATOM     16  C   UNL     1      -0.054  10.438  18.601  0.00  0.00    +0.000 A 
ATOM     17  C   UNL     1      -0.640  11.378  19.467  0.00  0.00    +0.000 A 
ATOM     18  C   UNL     1      -1.983  11.736  19.321  0.00  0.00    +0.000 A 
ATOM     19  C   UNL     1      -2.744  11.145  18.322  0.00  0.00    +0.000 A 
ATOM     20  F   UNL     1      -4.021  11.518  18.157  0.00  0.00    +0.000 F 
ATOM     21  C   UNL     1      -2.198  10.182  17.483  0.00  0.00    +0.000 A 
ATOM     22  C   UNL     1      -0.855   9.822  17.626  0.00  0.00    +0.000 A 
ENDBRANCH  15  16
ENDBRANCH  11  15
TORSDOF 2
ENDMDL
