MODEL 1
REMARK VINA RESULT:      -8.7      0.000      0.000
REMARK  Name = 
REMARK  8 active torsions:
REMARK  status: ('A' for Active; 'I' for Inactive)
REMARK    1  A    between atoms: C_1  and  O_2
REMARK    2  A    between atoms: O_2  and  C_3
REMARK    3  A    between atoms: C_7  and  C_8
REMARK    4  A    between atoms: C_10  and  C_11
REMARK    5  A    between atoms: C_15  and  O_16
REMARK    6  A    between atoms: O_16  and  C_17
REMARK    7  A    between atoms: C_20  and  C_21
REMARK    8  A    between atoms: N_23  and  N_24
REMARK                            x       y       z     vdW  Elec       q    Type
REMARK                         _______ _______ _______ _____ _____    ______ ____
ROOT
ATOM      1  C   UNL     1       6.093   5.014  15.427  0.00  0.00    +0.000 A 
ATOM      2  C   UNL     1       4.951   4.553  16.055  0.00  0.00    +0.000 A 
ATOM      3  C   UNL     1       4.710   4.944  17.360  0.00  0.00    +0.000 A 
ATOM      4  N   UNL     1       5.565   5.746  18.015  0.00  0.00    +0.000 NA
ATOM      5  C   UNL     1       6.644   6.165  17.327  0.00  0.00    +0.000 A 
ATOM      6  N   UNL     1       6.954   5.842  16.049  0.00  0.00    +0.000 NA
ENDROOT
BRANCH   1  11
ATOM      7  C   UNL     1       6.055   3.105  12.139  0.00  0.00    +0.000 A 
ATOM      8  C   UNL     1       7.077   3.747  11.443  0.00  0.00    +0.000 A 
ATOM      9  C   UNL     1       7.773   4.806  12.028  0.00  0.00    +0.000 A 
ATOM     10  C   UNL     1       7.455   5.224  13.323  0.00  0.00    +0.000 A 
ATOM     11  C   UNL     1       6.436   4.594  14.053  0.00  0.00    +0.000 A 
ATOM     12  C   UNL     1       5.745   3.531  13.430  0.00  0.00    +0.000 A 
BRANCH   7  14
ATOM     13  C   UNL     1       6.266   0.974  11.098  0.00  0.00    +0.000 C 
ATOM     14  O   UNL     1       5.446   2.076  11.473  0.00  0.00    +0.000 OA
ENDBRANCH   7  14
ENDBRANCH   1  11
BRANCH   3  15
ATOM     15  C   UNL     1       3.511   4.489  18.095  0.00  0.00    +0.000 A 
ATOM     16  C   UNL     1       2.309   4.203  17.429  0.00  0.00    +0.000 A 
ATOM     17  C   UNL     1       1.172   3.815  18.140  0.00  0.00    +0.000 A 
ATOM     18  C   UNL     1       1.213   3.708  19.528  0.00  0.00    +0.000 A 
ATOM     19  C   UNL     1       2.392   3.974  20.219  0.00  0.00    +0.000 A 
ATOM     20  C   UNL     1       3.531   4.349  19.499  0.00  0.00    +0.000 A 
BRANCH  19  21
ATOM     21  O   UNL     1       2.322   3.844  21.578  0.00  0.00    +0.000 OA
ATOM     22  C   UNL     1       1.795   2.620  22.083  0.00  0.00    +0.000 C 
ENDBRANCH  19  21
ENDBRANCH   3  15
BRANCH   5  23
ATOM     23  C   UNL     1       7.600   7.093  18.034  0.00  0.00    +0.000 C 
ATOM     24  O   UNL     1       8.317   6.737  18.968  0.00  0.00    +0.000 OA
ATOM     25  N   UNL     1       7.607   8.397  17.541  0.00  0.00    +0.000 N 
ATOM     26  H   UNL     1       7.070   8.603  16.696  0.00  0.00    +0.000 HD
BRANCH  25  27
ATOM     27  N   UNL     1       8.508   9.345  18.068  0.00  0.00    +0.000 NA
ATOM     28  H   UNL     1       8.082  10.273  17.915  0.00  0.00    +0.000 HD
ATOM     29  H   UNL     1       9.337   9.358  17.468  0.00  0.00    +0.000 HD
ENDBRANCH  25  27
ENDBRANCH   5  23
TORSDOF 6
ENDMDL
MODEL 2
REMARK VINA RESULT:      -8.6      0.553      6.986
REMARK  Name = 
REMARK  8 active torsions:
REMARK  status: ('A' for Active; 'I' for Inactive)
REMARK    1  A    between atoms: C_1  and  O_2
REMARK    2  A    between atoms: O_2  and  C_3
REMARK    3  A    between atoms: C_7  and  C_8
REMARK    4  A    between atoms: C_10  and  C_11
REMARK    5  A    between atoms: C_15  and  O_16
REMARK    6  A    between atoms: O_16  and  C_17
REMARK    7  A    between atoms: C_20  and  C_21
REMARK    8  A    between atoms: N_23  and  N_24
REMARK                            x       y       z     vdW  Elec       q    Type
REMARK                         _______ _______ _______ _____ _____    ______ ____
ROOT
ATOM      1  C   UNL     1       4.782   4.939  17.509  0.00  0.00    +0.000 A 
ATOM      2  C   UNL     1       5.018   4.523  16.212  0.00  0.00    +0.000 A 
ATOM      3  C   UNL     1       6.141   4.998  15.559  0.00  0.00    +0.000 A 
ATOM      4  N   UNL     1       6.985   5.853  16.159  0.00  0.00    +0.000 NA
ATOM      5  C   UNL     1       6.694   6.195  17.428  0.00  0.00    +0.000 A 
ATOM      6  N   UNL     1       5.625   5.774  18.147  0.00  0.00    +0.000 NA
ENDROOT
BRANCH   1  11
ATOM      7  C   UNL     1       2.518   3.794  20.342  0.00  0.00    +0.000 A 
ATOM      8  C   UNL     1       1.299   3.669  19.678  0.00  0.00    +0.000 A 
ATOM      9  C   UNL     1       1.203   3.964  18.317  0.00  0.00    +0.000 A 
ATOM     10  C   UNL     1       2.331   4.381  17.607  0.00  0.00    +0.000 A 
ATOM     11  C   UNL     1       3.575   4.511  18.245  0.00  0.00    +0.000 A 
ATOM     12  C   UNL     1       3.638   4.213  19.624  0.00  0.00    +0.000 A 
BRANCH   7  14
ATOM     13  C   UNL     1       1.526   2.520  22.091  0.00  0.00    +0.000 C 
ATOM     14  O   UNL     1       2.499   3.470  21.671  0.00  0.00    +0.000 OA
ENDBRANCH   7  14
ENDBRANCH   1  11
BRANCH   3  15
ATOM     15  C   UNL     1       6.457   4.598  14.172  0.00  0.00    +0.000 A 
ATOM     16  C   UNL     1       7.555   5.139  13.486  0.00  0.00    +0.000 A 
ATOM     17  C   UNL     1       7.817   4.784  12.162  0.00  0.00    +0.000 A 
ATOM     18  C   UNL     1       6.986   3.886  11.497  0.00  0.00    +0.000 A 
ATOM     19  C   UNL     1       5.894   3.323  12.151  0.00  0.00    +0.000 A 
ATOM     20  C   UNL     1       5.646   3.672  13.482  0.00  0.00    +0.000 A 
BRANCH  19  21
ATOM     21  O   UNL     1       5.141   2.458  11.406  0.00  0.00    +0.000 OA
ATOM     22  C   UNL     1       3.855   2.912  10.994  0.00  0.00    +0.000 C 
ENDBRANCH  19  21
ENDBRANCH   3  15
BRANCH   5  23
ATOM     23  C   UNL     1       7.647   7.129  18.131  0.00  0.00    +0.000 C 
ATOM     24  O   UNL     1       8.374   6.776  19.059  0.00  0.00    +0.000 OA
ATOM     25  N   UNL     1       7.639   8.435  17.642  0.00  0.00    +0.000 N 
ATOM     26  H   UNL     1       7.094   8.639  16.803  0.00  0.00    +0.000 HD
BRANCH  25  27
ATOM     27  N   UNL     1       8.536   9.389  18.167  0.00  0.00    +0.000 NA
ATOM     28  H   UNL     1       7.979  10.232  18.375  0.00  0.00    +0.000 HD
ATOM     29  H   UNL     1       9.154   9.689  17.408  0.00  0.00    +0.000 HD
ENDBRANCH  25  27
ENDBRANCH   5  23
TORSDOF 6
ENDMDL
MODEL 3
REMARK VINA RESULT:      -8.4      0.907      1.110
REMARK  Name = 
REMARK  8 active torsions:
REMARK  status: ('A' for Active; 'I' for Inactive)
REMARK    1  A    between atoms: C_1  and  O_2
REMARK    2  A    between atoms: O_2  and  C_3
REMARK    3  A    between atoms: C_7  and  C_8
REMARK    4  A    between atoms: C_10  and  C_11
REMARK    5  A    between atoms: C_15  and  O_16
REMARK    6  A    between atoms: O_16  and  C_17
REMARK    7  A    between atoms: C_20  and  C_21
REMARK    8  A    between atoms: N_23  and  N_24
REMARK                            x       y       z     vdW  Elec       q    Type
REMARK                         _______ _______ _______ _____ _____    ______ ____
ROOT
ATOM      1  C   UNL     1       6.194   4.866  15.492  0.00  0.00    +0.000 A 
ATOM      2  C   UNL     1       5.156   4.268  16.182  0.00  0.00    +0.000 A 
ATOM      3  C   UNL     1       4.964   4.606  17.510  0.00  0.00    +0.000 A 
ATOM      4  N   UNL     1       5.768   5.486  18.127  0.00  0.00    +0.000 NA
ATOM      5  C   UNL     1       6.744   6.036  17.380  0.00  0.00    +0.000 A 
ATOM      6  N   UNL     1       7.000   5.773  16.076  0.00  0.00    +0.000 NA
ENDROOT
BRANCH   1  11
ATOM      7  C   UNL     1       6.061   3.091  12.131  0.00  0.00    +0.000 A 
ATOM      8  C   UNL     1       7.031   3.792  11.418  0.00  0.00    +0.000 A 
ATOM      9  C   UNL     1       7.722   4.846  12.016  0.00  0.00    +0.000 A 
ATOM     10  C   UNL     1       7.453   5.202  13.340  0.00  0.00    +0.000 A 
ATOM     11  C   UNL     1       6.486   4.512  14.088  0.00  0.00    +0.000 A 
ATOM     12  C   UNL     1       5.798   3.456  13.452  0.00  0.00    +0.000 A 
BRANCH   7  14
ATOM     13  C   UNL     1       6.271   0.974  11.063  0.00  0.00    +0.000 C 
ATOM     14  O   UNL     1       5.452   2.072  11.451  0.00  0.00    +0.000 OA
ENDBRANCH   7  14
ENDBRANCH   1  11
BRANCH   3  15
ATOM     15  C   UNL     1       3.876   4.006  18.311  0.00  0.00    +0.000 A 
ATOM     16  C   UNL     1       3.587   2.635  18.241  0.00  0.00    +0.000 A 
ATOM     17  C   UNL     1       2.530   2.088  18.971  0.00  0.00    +0.000 A 
ATOM     18  C   UNL     1       1.740   2.901  19.781  0.00  0.00    +0.000 A 
ATOM     19  C   UNL     1       2.006   4.264  19.881  0.00  0.00    +0.000 A 
ATOM     20  C   UNL     1       3.076   4.801  19.158  0.00  0.00    +0.000 A 
BRANCH  19  21
ATOM     21  O   UNL     1       1.169   4.970  20.698  0.00  0.00    +0.000 OA
ATOM     22  C   UNL     1       1.456   6.355  20.876  0.00  0.00    +0.000 C 
ENDBRANCH  19  21
ENDBRANCH   3  15
BRANCH   5  23
ATOM     23  C   UNL     1       7.638   7.052  18.046  0.00  0.00    +0.000 C 
ATOM     24  O   UNL     1       8.355   6.788  19.010  0.00  0.00    +0.000 OA
ATOM     25  N   UNL     1       7.589   8.324  17.477  0.00  0.00    +0.000 N 
ATOM     26  H   UNL     1       7.058   8.452  16.613  0.00  0.00    +0.000 HD
BRANCH  25  27
ATOM     27  N   UNL     1       8.430   9.346  17.962  0.00  0.00    +0.000 NA
ATOM     28  H   UNL     1       8.689   9.925  17.147  0.00  0.00    +0.000 HD
ATOM     29  H   UNL     1       9.315   8.917  18.244  0.00  0.00    +0.000 HD
ENDBRANCH  25  27
ENDBRANCH   5  23
TORSDOF 6
ENDMDL
MODEL 4
REMARK VINA RESULT:      -8.3      1.077      7.032
REMARK  Name = 
REMARK  8 active torsions:
REMARK  status: ('A' for Active; 'I' for Inactive)
REMARK    1  A    between atoms: C_1  and  O_2
REMARK    2  A    between atoms: O_2  and  C_3
REMARK    3  A    between atoms: C_7  and  C_8
REMARK    4  A    between atoms: C_10  and  C_11
REMARK    5  A    between atoms: C_15  and  O_16
REMARK    6  A    between atoms: O_16  and  C_17
REMARK    7  A    between atoms: C_20  and  C_21
REMARK    8  A    between atoms: N_23  and  N_24
REMARK                            x       y       z     vdW  Elec       q    Type
REMARK                         _______ _______ _______ _____ _____    ______ ____
ROOT
ATOM      1  C   UNL     1       4.885   4.902  17.561  0.00  0.00    +0.000 A 
ATOM      2  C   UNL     1       5.092   4.472  16.264  0.00  0.00    +0.000 A 
ATOM      3  C   UNL     1       6.177   4.972  15.566  0.00  0.00    +0.000 A 
ATOM      4  N   UNL     1       7.012   5.863  16.124  0.00  0.00    +0.000 NA
ATOM      5  C   UNL     1       6.751   6.218  17.396  0.00  0.00    +0.000 A 
ATOM      6  N   UNL     1       5.721   5.774  18.157  0.00  0.00    +0.000 NA
ENDROOT
BRANCH   1  11
ATOM      7  C   UNL     1       1.947   4.927  19.975  0.00  0.00    +0.000 A 
ATOM      8  C   UNL     1       1.501   3.611  19.869  0.00  0.00    +0.000 A 
ATOM      9  C   UNL     1       2.140   2.716  19.011  0.00  0.00    +0.000 A 
ATOM     10  C   UNL     1       3.240   3.131  18.255  0.00  0.00    +0.000 A 
ATOM     11  C   UNL     1       3.718   4.447  18.343  0.00  0.00    +0.000 A 
ATOM     12  C   UNL     1       3.044   5.331  19.215  0.00  0.00    +0.000 A 
BRANCH   7  14
ATOM     13  C   UNL     1       1.597   7.095  20.893  0.00  0.00    +0.000 C 
ATOM     14  O   UNL     1       1.252   5.715  20.852  0.00  0.00    +0.000 OA
ENDBRANCH   7  14
ENDBRANCH   1  11
BRANCH   3  15
ATOM     15  C   UNL     1       6.459   4.559  14.175  0.00  0.00    +0.000 A 
ATOM     16  C   UNL     1       7.560   5.069  13.470  0.00  0.00    +0.000 A 
ATOM     17  C   UNL     1       7.792   4.703  12.143  0.00  0.00    +0.000 A 
ATOM     18  C   UNL     1       6.927   3.824  11.495  0.00  0.00    +0.000 A 
ATOM     19  C   UNL     1       5.832   3.291  12.169  0.00  0.00    +0.000 A 
ATOM     20  C   UNL     1       5.615   3.652  13.502  0.00  0.00    +0.000 A 
BRANCH  19  21
ATOM     21  O   UNL     1       5.045   2.443  11.440  0.00  0.00    +0.000 OA
ATOM     22  C   UNL     1       3.801   2.958  10.972  0.00  0.00    +0.000 C 
ENDBRANCH  19  21
ENDBRANCH   3  15
BRANCH   5  23
ATOM     23  C   UNL     1       7.695   7.193  18.052  0.00  0.00    +0.000 C 
ATOM     24  O   UNL     1       8.446   6.886  18.977  0.00  0.00    +0.000 OA
ATOM     25  N   UNL     1       7.650   8.483  17.523  0.00  0.00    +0.000 N 
ATOM     26  H   UNL     1       7.086   8.649  16.688  0.00  0.00    +0.000 HD
BRANCH  25  27
ATOM     27  N   UNL     1       8.534   9.472  18.001  0.00  0.00    +0.000 NA
ATOM     28  H   UNL     1       8.788   9.199  18.963  0.00  0.00    +0.000 HD
ATOM     29  H   UNL     1       8.000  10.336  18.128  0.00  0.00    +0.000 HD
ENDBRANCH  25  27
ENDBRANCH   5  23
TORSDOF 6
ENDMDL
MODEL 5
REMARK VINA RESULT:      -8.3      1.138      7.087
REMARK  Name = 
REMARK  8 active torsions:
REMARK  status: ('A' for Active; 'I' for Inactive)
REMARK    1  A    between atoms: C_1  and  O_2
REMARK    2  A    between atoms: O_2  and  C_3
REMARK    3  A    between atoms: C_7  and  C_8
REMARK    4  A    between atoms: C_10  and  C_11
REMARK    5  A    between atoms: C_15  and  O_16
REMARK    6  A    between atoms: O_16  and  C_17
REMARK    7  A    between atoms: C_20  and  C_21
REMARK    8  A    between atoms: N_23  and  N_24
REMARK                            x       y       z     vdW  Elec       q    Type
REMARK                         _______ _______ _______ _____ _____    ______ ____
ROOT
ATOM      1  C   UNL     1       4.733   4.172  17.627  0.00  0.00    +0.000 A 
ATOM      2  C   UNL     1       4.990   3.972  16.284  0.00  0.00    +0.000 A 
ATOM      3  C   UNL     1       6.164   4.475  15.752  0.00  0.00    +0.000 A 
ATOM      4  N   UNL     1       7.037   5.153  16.513  0.00  0.00    +0.000 NA
ATOM      5  C   UNL     1       6.721   5.290  17.815  0.00  0.00    +0.000 A 
ATOM      6  N   UNL     1       5.603   4.824  18.422  0.00  0.00    +0.000 NA
ENDROOT
BRANCH   1  11
ATOM      7  C   UNL     1       1.574   4.118  19.744  0.00  0.00    +0.000 A 
ATOM      8  C   UNL     1       1.085   2.844  19.464  0.00  0.00    +0.000 A 
ATOM      9  C   UNL     1       1.767   2.004  18.583  0.00  0.00    +0.000 A 
ATOM     10  C   UNL     1       2.952   2.431  17.980  0.00  0.00    +0.000 A 
ATOM     11  C   UNL     1       3.475   3.706  18.246  0.00  0.00    +0.000 A 
ATOM     12  C   UNL     1       2.758   4.536  19.135  0.00  0.00    +0.000 A 
BRANCH   7  14
ATOM     13  C   UNL     1       1.311   6.154  20.950  0.00  0.00    +0.000 C 
ATOM     14  O   UNL     1       0.831   4.853  20.627  0.00  0.00    +0.000 OA
ENDBRANCH   7  14
ENDBRANCH   1  11
BRANCH   3  15
ATOM     15  C   UNL     1       6.504   4.301  14.325  0.00  0.00    +0.000 A 
ATOM     16  C   UNL     1       7.446   5.126  13.691  0.00  0.00    +0.000 A 
ATOM     17  C   UNL     1       7.727   4.978  12.332  0.00  0.00    +0.000 A 
ATOM     18  C   UNL     1       7.071   4.006  11.579  0.00  0.00    +0.000 A 
ATOM     19  C   UNL     1       6.139   3.164  12.179  0.00  0.00    +0.000 A 
ATOM     20  C   UNL     1       5.873   3.309  13.544  0.00  0.00    +0.000 A 
BRANCH  19  21
ATOM     21  O   UNL     1       5.550   2.251  11.351  0.00  0.00    +0.000 OA
ATOM     22  C   UNL     1       6.301   1.079  11.043  0.00  0.00    +0.000 C 
ENDBRANCH  19  21
ENDBRANCH   3  15
BRANCH   5  23
ATOM     23  C   UNL     1       7.705   6.020  18.695  0.00  0.00    +0.000 C 
ATOM     24  O   UNL     1       8.281   5.492  19.644  0.00  0.00    +0.000 OA
ATOM     25  N   UNL     1       7.912   7.354  18.343  0.00  0.00    +0.000 N 
ATOM     26  H   UNL     1       7.488   7.703  17.482  0.00  0.00    +0.000 HD
BRANCH  25  27
ATOM     27  N   UNL     1       8.861   8.128  19.042  0.00  0.00    +0.000 NA
ATOM     28  H   UNL     1       8.880   7.768  20.009  0.00  0.00    +0.000 HD
ATOM     29  H   UNL     1       8.481   9.073  19.144  0.00  0.00    +0.000 HD
ENDBRANCH  25  27
ENDBRANCH   5  23
TORSDOF 6
ENDMDL
MODEL 6
REMARK VINA RESULT:      -8.3      3.081      4.194
REMARK  Name = 
REMARK  8 active torsions:
REMARK  status: ('A' for Active; 'I' for Inactive)
REMARK    1  A    between atoms: C_1  and  O_2
REMARK    2  A    between atoms: O_2  and  C_3
REMARK    3  A    between atoms: C_7  and  C_8
REMARK    4  A    between atoms: C_10  and  C_11
REMARK    5  A    between atoms: C_15  and  O_16
REMARK    6  A    between atoms: O_16  and  C_17
REMARK    7  A    between atoms: C_20  and  C_21
REMARK    8  A    between atoms: N_23  and  N_24
REMARK                            x       y       z     vdW  Elec       q    Type
REMARK                         _______ _______ _______ _____ _____    ______ ____
ROOT
ATOM      1  C   UNL     1       4.957   4.616  16.407  0.00  0.00    +0.000 A 
ATOM      2  C   UNL     1       4.278   5.763  16.773  0.00  0.00    +0.000 A 
ATOM      3  C   UNL     1       3.559   5.757  17.955  0.00  0.00    +0.000 A 
ATOM      4  N   UNL     1       3.507   4.664  18.732  0.00  0.00    +0.000 NA
ATOM      5  C   UNL     1       4.209   3.594  18.313  0.00  0.00    +0.000 A 
ATOM      6  N   UNL     1       4.946   3.513  17.180  0.00  0.00    +0.000 NA
ENDROOT
BRANCH   1  11
ATOM      7  C   UNL     1       5.906   3.652  12.853  0.00  0.00    +0.000 A 
ATOM      8  C   UNL     1       7.103   4.347  12.697  0.00  0.00    +0.000 A 
ATOM      9  C   UNL     1       7.601   5.138  13.733  0.00  0.00    +0.000 A 
ATOM     10  C   UNL     1       6.906   5.231  14.941  0.00  0.00    +0.000 A 
ATOM     11  C   UNL     1       5.701   4.539  15.133  0.00  0.00    +0.000 A 
ATOM     12  C   UNL     1       5.219   3.754  14.063  0.00  0.00    +0.000 A 
BRANCH   7  14
ATOM     13  C   UNL     1       4.203   3.127  11.275  0.00  0.00    +0.000 C 
ATOM     14  O   UNL     1       5.516   2.902  11.777  0.00  0.00    +0.000 OA
ENDBRANCH   7  14
ENDBRANCH   1  11
BRANCH   3  15
ATOM     15  C   UNL     1       2.807   6.946  18.409  0.00  0.00    +0.000 A 
ATOM     16  C   UNL     1       2.618   8.056  17.572  0.00  0.00    +0.000 A 
ATOM     17  C   UNL     1       1.943   9.190  18.027  0.00  0.00    +0.000 A 
ATOM     18  C   UNL     1       1.446   9.237  19.328  0.00  0.00    +0.000 A 
ATOM     19  C   UNL     1       1.607   8.149  20.181  0.00  0.00    +0.000 A 
ATOM     20  C   UNL     1       2.272   7.012  19.713  0.00  0.00    +0.000 A 
BRANCH  19  21
ATOM     21  O   UNL     1       1.087   8.302  21.436  0.00  0.00    +0.000 OA
ATOM     22  C   UNL     1       0.031   9.248  21.587  0.00  0.00    +0.000 C 
ENDBRANCH  19  21
ENDBRANCH   3  15
BRANCH   5  23
ATOM     23  C   UNL     1       4.191   2.366  19.189  0.00  0.00    +0.000 C 
ATOM     24  O   UNL     1       3.460   1.399  18.977  0.00  0.00    +0.000 OA
ATOM     25  N   UNL     1       5.075   2.413  20.266  0.00  0.00    +0.000 N 
ATOM     26  H   UNL     1       5.731   3.195  20.326  0.00  0.00    +0.000 HD
BRANCH  25  27
ATOM     27  N   UNL     1       5.206   1.299  21.120  0.00  0.00    +0.000 NA
ATOM     28  H   UNL     1       4.259   0.904  21.235  0.00  0.00    +0.000 HD
ATOM     29  H   UNL     1       5.439   1.645  22.054  0.00  0.00    +0.000 HD
ENDBRANCH  25  27
ENDBRANCH   5  23
TORSDOF 6
ENDMDL
MODEL 7
REMARK VINA RESULT:      -8.3      3.188      7.996
REMARK  Name = 
REMARK  8 active torsions:
REMARK  status: ('A' for Active; 'I' for Inactive)
REMARK    1  A    between atoms: C_1  and  O_2
REMARK    2  A    between atoms: O_2  and  C_3
REMARK    3  A    between atoms: C_7  and  C_8
REMARK    4  A    between atoms: C_10  and  C_11
REMARK    5  A    between atoms: C_15  and  O_16
REMARK    6  A    between atoms: O_16  and  C_17
REMARK    7  A    between atoms: C_20  and  C_21
REMARK    8  A    between atoms: N_23  and  N_24
REMARK                            x       y       z     vdW  Elec       q    Type
REMARK                         _______ _______ _______ _____ _____    ______ ____
ROOT
ATOM      1  C   UNL     1       3.386   6.039  18.127  0.00  0.00    +0.000 A 
ATOM      2  C   UNL     1       4.133   5.989  16.964  0.00  0.00    +0.000 A 
ATOM      3  C   UNL     1       4.837   4.833  16.680  0.00  0.00    +0.000 A 
ATOM      4  N   UNL     1       4.812   3.780  17.513  0.00  0.00    +0.000 NA
ATOM      5  C   UNL     1       4.048   3.903  18.615  0.00  0.00    +0.000 A 
ATOM      6  N   UNL     1       3.319   4.989  18.968  0.00  0.00    +0.000 NA
ENDROOT
BRANCH   1  11
ATOM      7  C   UNL     1       1.434   8.546  20.216  0.00  0.00    +0.000 A 
ATOM      8  C   UNL     1       1.228   9.565  19.289  0.00  0.00    +0.000 A 
ATOM      9  C   UNL     1       1.728   9.451  17.991  0.00  0.00    +0.000 A 
ATOM     10  C   UNL     1       2.433   8.308  17.608  0.00  0.00    +0.000 A 
ATOM     11  C   UNL     1       2.653   7.260  18.516  0.00  0.00    +0.000 A 
ATOM     12  C   UNL     1       2.142   7.410  19.824  0.00  0.00    +0.000 A 
BRANCH   7  14
ATOM     13  C   UNL     1      -0.178   9.692  21.540  0.00  0.00    +0.000 C 
ATOM     14  O   UNL     1       0.894   8.760  21.454  0.00  0.00    +0.000 OA
ENDBRANCH   7  14
ENDBRANCH   1  11
BRANCH   3  15
ATOM     15  C   UNL     1       5.657   4.708  15.457  0.00  0.00    +0.000 A 
ATOM     16  C   UNL     1       6.835   5.452  15.287  0.00  0.00    +0.000 A 
ATOM     17  C   UNL     1       7.578   5.356  14.109  0.00  0.00    +0.000 A 
ATOM     18  C   UNL     1       7.158   4.518  13.079  0.00  0.00    +0.000 A 
ATOM     19  C   UNL     1       6.000   3.758  13.219  0.00  0.00    +0.000 A 
ATOM     20  C   UNL     1       5.269   3.849  14.408  0.00  0.00    +0.000 A 
BRANCH  19  21
ATOM     21  O   UNL     1       5.675   2.975  12.147  0.00  0.00    +0.000 OA
ATOM     22  C   UNL     1       4.420   3.228  11.519  0.00  0.00    +0.000 C 
ENDBRANCH  19  21
ENDBRANCH   3  15
BRANCH   5  23
ATOM     23  C   UNL     1       3.980   2.719  19.547  0.00  0.00    +0.000 C 
ATOM     24  O   UNL     1       2.923   2.263  19.981  0.00  0.00    +0.000 OA
ATOM     25  N   UNL     1       5.220   2.177  19.881  0.00  0.00    +0.000 N 
ATOM     26  H   UNL     1       6.052   2.531  19.405  0.00  0.00    +0.000 HD
BRANCH  25  27
ATOM     27  N   UNL     1       5.291   1.024  20.689  0.00  0.00    +0.000 NA
ATOM     28  H   UNL     1       5.600   1.337  21.623  0.00  0.00    +0.000 HD
ATOM     29  H   UNL     1       6.073   0.454  20.355  0.00  0.00    +0.000 HD
ENDBRANCH  25  27
ENDBRANCH   5  23
TORSDOF 6
ENDMDL
MODEL 8
REMARK VINA RESULT:      -8.2      3.732      8.324
REMARK  Name = 
REMARK  8 active torsions:
REMARK  status: ('A' for Active; 'I' for Inactive)
REMARK    1  A    between atoms: C_1  and  O_2
REMARK    2  A    between atoms: O_2  and  C_3
REMARK    3  A    between atoms: C_7  and  C_8
REMARK    4  A    between atoms: C_10  and  C_11
REMARK    5  A    between atoms: C_15  and  O_16
REMARK    6  A    between atoms: O_16  and  C_17
REMARK    7  A    between atoms: C_20  and  C_21
REMARK    8  A    between atoms: N_23  and  N_24
REMARK                            x       y       z     vdW  Elec       q    Type
REMARK                         _______ _______ _______ _____ _____    ______ ____
ROOT
ATOM      1  C   UNL     1       2.760   6.604  18.845  0.00  0.00    +0.000 A 
ATOM      2  C   UNL     1       3.639   6.442  17.791  0.00  0.00    +0.000 A 
ATOM      3  C   UNL     1       4.295   5.231  17.657  0.00  0.00    +0.000 A 
ATOM      4  N   UNL     1       4.096   4.231  18.530  0.00  0.00    +0.000 NA
ATOM      5  C   UNL     1       3.211   4.463  19.518  0.00  0.00    +0.000 A 
ATOM      6  N   UNL     1       2.519   5.610  19.722  0.00  0.00    +0.000 NA
ENDROOT
BRANCH   1  11
ATOM      7  C   UNL     1       0.946   9.440  20.612  0.00  0.00    +0.000 A 
ATOM      8  C   UNL     1       0.720  10.316  19.553  0.00  0.00    +0.000 A 
ATOM      9  C   UNL     1       1.163   9.999  18.268  0.00  0.00    +0.000 A 
ATOM     10  C   UNL     1       1.829   8.794  18.032  0.00  0.00    +0.000 A 
ATOM     11  C   UNL     1       2.067   7.887  19.076  0.00  0.00    +0.000 A 
ATOM     12  C   UNL     1       1.614   8.241  20.367  0.00  0.00    +0.000 A 
BRANCH   7  14
ATOM     13  C   UNL     1      -0.484   8.996  22.463  0.00  0.00    +0.000 C 
ATOM     14  O   UNL     1       0.462   9.848  21.825  0.00  0.00    +0.000 OA
ENDBRANCH   7  14
ENDBRANCH   1  11
BRANCH   3  15
ATOM     15  C   UNL     1       5.250   4.987  16.556  0.00  0.00    +0.000 A 
ATOM     16  C   UNL     1       6.611   5.306  16.684  0.00  0.00    +0.000 A 
ATOM     17  C   UNL     1       7.495   5.110  15.621  0.00  0.00    +0.000 A 
ATOM     18  C   UNL     1       7.037   4.594  14.411  0.00  0.00    +0.000 A 
ATOM     19  C   UNL     1       5.695   4.256  14.254  0.00  0.00    +0.000 A 
ATOM     20  C   UNL     1       4.819   4.443  15.328  0.00  0.00    +0.000 A 
BRANCH  19  21
ATOM     21  O   UNL     1       5.350   3.764  13.027  0.00  0.00    +0.000 OA
ATOM     22  C   UNL     1       6.414   3.337  12.180  0.00  0.00    +0.000 C 
ENDBRANCH  19  21
ENDBRANCH   3  15
BRANCH   5  23
ATOM     23  C   UNL     1       2.949   3.341  20.492  0.00  0.00    +0.000 C 
ATOM     24  O   UNL     1       3.705   2.381  20.633  0.00  0.00    +0.000 OA
ATOM     25  N   UNL     1       1.772   3.481  21.227  0.00  0.00    +0.000 N 
ATOM     26  H   UNL     1       1.243   4.351  21.143  0.00  0.00    +0.000 HD
BRANCH  25  27
ATOM     27  N   UNL     1       1.447   2.536  22.222  0.00  0.00    +0.000 NA
ATOM     28  H   UNL     1       0.542   2.120  21.949  0.00  0.00    +0.000 HD
ATOM     29  H   UNL     1       1.228   3.047  23.081  0.00  0.00    +0.000 HD
ENDBRANCH  25  27
ENDBRANCH   5  23
TORSDOF 6
ENDMDL
MODEL 9
REMARK VINA RESULT:      -8.2      4.320      6.522
REMARK  Name = 
REMARK  8 active torsions:
REMARK  status: ('A' for Active; 'I' for Inactive)
REMARK    1  A    between atoms: C_1  and  O_2
REMARK    2  A    between atoms: O_2  and  C_3
REMARK    3  A    between atoms: C_7  and  C_8
REMARK    4  A    between atoms: C_10  and  C_11
REMARK    5  A    between atoms: C_15  and  O_16
REMARK    6  A    between atoms: O_16  and  C_17
REMARK    7  A    between atoms: C_20  and  C_21
REMARK    8  A    between atoms: N_23  and  N_24
REMARK                            x       y       z     vdW  Elec       q    Type
REMARK                         _______ _______ _______ _____ _____    ______ ____
ROOT
ATOM      1  C   UNL     1       3.598   5.701  18.580  0.00  0.00    +0.000 A 
ATOM      2  C   UNL     1       3.109   6.956  18.892  0.00  0.00    +0.000 A 
ATOM      3  C   UNL     1       2.025   7.050  19.746  0.00  0.00    +0.000 A 
ATOM      4  N   UNL     1       1.447   5.953  20.260  0.00  0.00    +0.000 NA
ATOM      5  C   UNL     1       1.994   4.770  19.922  0.00  0.00    +0.000 A 
ATOM      6  N   UNL     1       3.056   4.584  19.102  0.00  0.00    +0.000 NA
ENDROOT
BRANCH   1  11
ATOM      7  C   UNL     1       6.858   6.313  16.720  0.00  0.00    +0.000 A 
ATOM      8  C   UNL     1       6.864   5.242  15.829  0.00  0.00    +0.000 A 
ATOM      9  C   UNL     1       5.822   4.314  15.833  0.00  0.00    +0.000 A 
ATOM     10  C   UNL     1       4.759   4.456  16.728  0.00  0.00    +0.000 A 
ATOM     11  C   UNL     1       4.719   5.527  17.634  0.00  0.00    +0.000 A 
ATOM     12  C   UNL     1       5.792   6.445  17.611  0.00  0.00    +0.000 A 
BRANCH   7  14
ATOM     13  C   UNL     1       8.014   8.200  17.597  0.00  0.00    +0.000 C 
ATOM     14  O   UNL     1       7.923   7.166  16.623  0.00  0.00    +0.000 OA
ENDBRANCH   7  14
ENDBRANCH   1  11
BRANCH   3  15
ATOM     15  C   UNL     1       1.448   8.358  20.122  0.00  0.00    +0.000 A 
ATOM     16  C   UNL     1       1.325   9.399  19.189  0.00  0.00    +0.000 A 
ATOM     17  C   UNL     1       0.817  10.643  19.567  0.00  0.00    +0.000 A 
ATOM     18  C   UNL     1       0.426  10.872  20.884  0.00  0.00    +0.000 A 
ATOM     19  C   UNL     1       0.526   9.858  21.833  0.00  0.00    +0.000 A 
ATOM     20  C   UNL     1       1.022   8.610  21.443  0.00  0.00    +0.000 A 
BRANCH  19  21
ATOM     21  O   UNL     1       0.120  10.189  23.096  0.00  0.00    +0.000 OA
ATOM     22  C   UNL     1      -1.149  10.826  23.220  0.00  0.00    +0.000 C 
ENDBRANCH  19  21
ENDBRANCH   3  15
BRANCH   5  23
ATOM     23  C   UNL     1       1.379   3.527  20.514  0.00  0.00    +0.000 C 
ATOM     24  O   UNL     1       0.565   2.827  19.915  0.00  0.00    +0.000 OA
ATOM     25  N   UNL     1       1.813   3.230  21.806  0.00  0.00    +0.000 N 
ATOM     26  H   UNL     1       2.569   3.787  22.208  0.00  0.00    +0.000 HD
BRANCH  25  27
ATOM     27  N   UNL     1       1.367   2.055  22.447  0.00  0.00    +0.000 NA
ATOM     28  H   UNL     1       2.093   1.340  22.285  0.00  0.00    +0.000 HD
ATOM     29  H   UNL     1       0.559   1.702  21.927  0.00  0.00    +0.000 HD
ENDBRANCH  25  27
ENDBRANCH   5  23
TORSDOF 6
ENDMDL
