MODEL 1
REMARK VINA RESULT:      -9.3      0.000      0.000
REMARK  Name = 
REMARK  3 active torsions:
REMARK  status: ('A' for Active; 'I' for Inactive)
REMARK    1  A    between atoms: C_2  and  O_3
REMARK    2  A    between atoms: C_2  and  C_4
REMARK    3  A    between atoms: C_7  and  C_8
REMARK                            x       y       z     vdW  Elec       q    Type
REMARK                         _______ _______ _______ _____ _____    ______ ____
ROOT
ATOM      1  C   UNL     1       2.900   6.292  19.169  0.00  0.00    +0.000 C 
ATOM      2  O   UNL     1       2.823   5.420  20.049  0.00  0.00    +0.000 OA
ATOM      3  N   UNL     1       2.115   7.478  19.348  0.00  0.00    +0.000 N 
ATOM      4  C   UNL     1       1.980   8.587  18.399  0.00  0.00    +0.000 C 
ATOM      5  C   UNL     1       0.792   9.577  18.592  0.00  0.00    +0.000 C 
ATOM      6  C   UNL     1       0.490   9.916  20.022  0.00  0.00    +0.000 A 
ATOM      7  C   UNL     1       0.949   9.064  20.954  0.00  0.00    +0.000 A 
ATOM      8  C   UNL     1       1.126   9.621  22.314  0.00  0.00    +0.000 A 
ATOM      9  O   UNL     1       2.110   9.360  22.994  0.00  0.00    +0.000 OA
ATOM     10  O   UNL     1       0.138  10.468  22.765  0.00  0.00    +0.000 OA
ATOM     11  C   UNL     1      -0.298  11.414  21.831  0.00  0.00    +0.000 A 
ATOM     12  C   UNL     1      -0.842  12.586  22.369  0.00  0.00    +0.000 A 
ATOM     13  C   UNL     1      -1.308  13.581  21.515  0.00  0.00    +0.000 A 
ATOM     14  C   UNL     1      -1.263  13.358  20.139  0.00  0.00    +0.000 A 
ATOM     15  C   UNL     1      -0.706  12.169  19.611  0.00  0.00    +0.000 A 
ATOM     16  C   UNL     1      -0.171  11.184  20.453  0.00  0.00    +0.000 A 
ATOM     17  C   UNL     1       1.503   7.679  20.692  0.00  0.00    +0.000 C 
ENDROOT
BRANCH   1  21
ATOM     18  C   UNL     1       5.663   5.058  15.909  0.00  0.00    +0.000 A 
ATOM     19  C   UNL     1       4.760   4.175  16.509  0.00  0.00    +0.000 A 
ATOM     20  C   UNL     1       3.885   4.631  17.528  0.00  0.00    +0.000 A 
ATOM     21  C   UNL     1       3.859   5.969  18.007  0.00  0.00    +0.000 A 
ATOM     22  C   UNL     1       4.761   6.833  17.382  0.00  0.00    +0.000 A 
ATOM     23  C   UNL     1       5.630   6.400  16.355  0.00  0.00    +0.000 A 
BRANCH  18  25
ATOM     24  O   UNL     1       7.570   5.379  14.527  0.00  0.00    +0.000 OA
ATOM     25  C   UNL     1       6.601   4.695  14.812  0.00  0.00    +0.000 C 
BRANCH  25  26
ATOM     26  O   UNL     1       6.334   3.541  14.175  0.00  0.00    +0.000 OA
ATOM     27  H   UNL     1       5.956   2.837  14.722  0.00  0.00    +0.000 HD
ENDBRANCH  25  26
ENDBRANCH  18  25
ENDBRANCH   1  21
TORSDOF 3
ENDMDL
MODEL 2
REMARK VINA RESULT:      -9.0      0.382      1.008
REMARK  Name = 
REMARK  3 active torsions:
REMARK  status: ('A' for Active; 'I' for Inactive)
REMARK    1  A    between atoms: C_2  and  O_3
REMARK    2  A    between atoms: C_2  and  C_4
REMARK    3  A    between atoms: C_7  and  C_8
REMARK                            x       y       z     vdW  Elec       q    Type
REMARK                         _______ _______ _______ _____ _____    ______ ____
ROOT
ATOM      1  C   UNL     1       2.875   6.100  19.117  0.00  0.00    +0.000 C 
ATOM      2  O   UNL     1       2.714   5.287  20.042  0.00  0.00    +0.000 OA
ATOM      3  N   UNL     1       2.148   7.333  19.193  0.00  0.00    +0.000 N 
ATOM      4  C   UNL     1       2.114   8.389  18.177  0.00  0.00    +0.000 C 
ATOM      5  C   UNL     1       0.974   9.449  18.259  0.00  0.00    +0.000 C 
ATOM      6  C   UNL     1       0.632   9.889  19.652  0.00  0.00    +0.000 A 
ATOM      7  C   UNL     1       1.005   9.071  20.651  0.00  0.00    +0.000 A 
ATOM      8  C   UNL     1       1.155   9.697  21.983  0.00  0.00    +0.000 A 
ATOM      9  O   UNL     1       2.094   9.427  22.720  0.00  0.00    +0.000 OA
ATOM     10  O   UNL     1       0.196  10.620  22.341  0.00  0.00    +0.000 OA
ATOM     11  C   UNL     1      -0.148  11.530  21.335  0.00  0.00    +0.000 A 
ATOM     12  C   UNL     1      -0.650  12.758  21.780  0.00  0.00    +0.000 A 
ATOM     13  C   UNL     1      -1.025  13.724  20.850  0.00  0.00    +0.000 A 
ATOM     14  C   UNL     1      -0.935  13.417  19.492  0.00  0.00    +0.000 A 
ATOM     15  C   UNL     1      -0.422  12.172  19.059  0.00  0.00    +0.000 A 
ATOM     16  C   UNL     1       0.024  11.212  19.980  0.00  0.00    +0.000 A 
ATOM     17  C   UNL     1       1.493   7.646  20.494  0.00  0.00    +0.000 C 
ENDROOT
BRANCH   1  21
ATOM     18  C   UNL     1       5.736   5.127  15.853  0.00  0.00    +0.000 A 
ATOM     19  C   UNL     1       5.645   6.400  16.424  0.00  0.00    +0.000 A 
ATOM     20  C   UNL     1       4.731   6.646  17.479  0.00  0.00    +0.000 A 
ATOM     21  C   UNL     1       3.862   5.659  18.020  0.00  0.00    +0.000 A 
ATOM     22  C   UNL     1       3.983   4.393  17.441  0.00  0.00    +0.000 A 
ATOM     23  C   UNL     1       4.898   4.126  16.398  0.00  0.00    +0.000 A 
BRANCH  18  25
ATOM     24  O   UNL     1       7.666   5.415  14.497  0.00  0.00    +0.000 OA
ATOM     25  C   UNL     1       6.680   4.750  14.766  0.00  0.00    +0.000 C 
BRANCH  25  26
ATOM     26  O   UNL     1       6.396   3.605  14.119  0.00  0.00    +0.000 OA
ATOM     27  H   UNL     1       7.138   3.192  13.654  0.00  0.00    +0.000 HD
ENDBRANCH  25  26
ENDBRANCH  18  25
ENDBRANCH   1  21
TORSDOF 3
ENDMDL
MODEL 3
REMARK VINA RESULT:      -9.0      2.830      3.562
REMARK  Name = 
REMARK  3 active torsions:
REMARK  status: ('A' for Active; 'I' for Inactive)
REMARK    1  A    between atoms: C_2  and  O_3
REMARK    2  A    between atoms: C_2  and  C_4
REMARK    3  A    between atoms: C_7  and  C_8
REMARK                            x       y       z     vdW  Elec       q    Type
REMARK                         _______ _______ _______ _____ _____    ______ ____
ROOT
ATOM      1  C   UNL     1       2.670   7.602  18.215  0.00  0.00    +0.000 C 
ATOM      2  O   UNL     1       2.964   8.059  17.098  0.00  0.00    +0.000 OA
ATOM      3  N   UNL     1       1.878   8.430  19.076  0.00  0.00    +0.000 N 
ATOM      4  C   UNL     1       1.496   8.136  20.460  0.00  0.00    +0.000 C 
ATOM      5  C   UNL     1       0.984   9.313  21.345  0.00  0.00    +0.000 C 
ATOM      6  C   UNL     1       0.099  10.291  20.630  0.00  0.00    +0.000 A 
ATOM      7  C   UNL     1       0.178  10.306  19.288  0.00  0.00    +0.000 A 
ATOM      8  C   UNL     1      -1.001  10.844  18.574  0.00  0.00    +0.000 A 
ATOM      9  O   UNL     1      -1.444  10.306  17.567  0.00  0.00    +0.000 OA
ATOM     10  O   UNL     1      -1.590  11.965  19.115  0.00  0.00    +0.000 OA
ATOM     11  C   UNL     1      -1.751  11.933  20.504  0.00  0.00    +0.000 A 
ATOM     12  C   UNL     1      -2.787  12.726  21.010  0.00  0.00    +0.000 A 
ATOM     13  C   UNL     1      -3.018  12.761  22.382  0.00  0.00    +0.000 A 
ATOM     14  C   UNL     1      -2.172  12.039  23.223  0.00  0.00    +0.000 A 
ATOM     15  C   UNL     1      -1.130  11.239  22.695  0.00  0.00    +0.000 A 
ATOM     16  C   UNL     1      -0.924  11.137  21.311  0.00  0.00    +0.000 A 
ATOM     17  C   UNL     1       1.247   9.630  18.456  0.00  0.00    +0.000 C 
ENDROOT
BRANCH   1  21
ATOM     18  C   UNL     1       3.897   3.422  19.115  0.00  0.00    +0.000 A 
ATOM     19  C   UNL     1       2.605   3.758  18.698  0.00  0.00    +0.000 A 
ATOM     20  C   UNL     1       2.277   5.105  18.402  0.00  0.00    +0.000 A 
ATOM     21  C   UNL     1       3.198   6.184  18.504  0.00  0.00    +0.000 A 
ATOM     22  C   UNL     1       4.484   5.819  18.909  0.00  0.00    +0.000 A 
ATOM     23  C   UNL     1       4.832   4.479  19.194  0.00  0.00    +0.000 A 
BRANCH  18  25
ATOM     24  O   UNL     1       4.975   1.766  20.436  0.00  0.00    +0.000 OA
ATOM     25  C   UNL     1       4.357   2.040  19.420  0.00  0.00    +0.000 C 
BRANCH  25  26
ATOM     26  O   UNL     1       4.014   1.100  18.521  0.00  0.00    +0.000 OA
ATOM     27  H   UNL     1       3.337   0.471  18.809  0.00  0.00    +0.000 HD
ENDBRANCH  25  26
ENDBRANCH  18  25
ENDBRANCH   1  21
TORSDOF 3
ENDMDL
MODEL 4
REMARK VINA RESULT:      -8.8      1.141      1.264
REMARK  Name = 
REMARK  3 active torsions:
REMARK  status: ('A' for Active; 'I' for Inactive)
REMARK    1  A    between atoms: C_2  and  O_3
REMARK    2  A    between atoms: C_2  and  C_4
REMARK    3  A    between atoms: C_7  and  C_8
REMARK                            x       y       z     vdW  Elec       q    Type
REMARK                         _______ _______ _______ _____ _____    ______ ____
ROOT
ATOM      1  C   UNL     1       2.498   6.395  19.888  0.00  0.00    +0.000 C 
ATOM      2  O   UNL     1       2.215   5.522  20.725  0.00  0.00    +0.000 OA
ATOM      3  N   UNL     1       1.735   7.607  19.920  0.00  0.00    +0.000 N 
ATOM      4  C   UNL     1       1.833   8.725  18.977  0.00  0.00    +0.000 C 
ATOM      5  C   UNL     1       0.665   9.757  18.940  0.00  0.00    +0.000 C 
ATOM      6  C   UNL     1       0.095  10.101  20.284  0.00  0.00    +0.000 A 
ATOM      7  C   UNL     1       0.327   9.228  21.279  0.00  0.00    +0.000 A 
ATOM      8  C   UNL     1       0.247   9.771  22.653  0.00  0.00    +0.000 A 
ATOM      9  O   UNL     1       1.065   9.472  23.513  0.00  0.00    +0.000 OA
ATOM     10  O   UNL     1      -0.781  10.652  22.907  0.00  0.00    +0.000 OA
ATOM     11  C   UNL     1      -0.987  11.618  21.916  0.00  0.00    +0.000 A 
ATOM     12  C   UNL     1      -1.587  12.806  22.348  0.00  0.00    +0.000 A 
ATOM     13  C   UNL     1      -1.836  13.822  21.430  0.00  0.00    +0.000 A 
ATOM     14  C   UNL     1      -1.524  13.604  20.088  0.00  0.00    +0.000 A 
ATOM     15  C   UNL     1      -0.915  12.398  19.668  0.00  0.00    +0.000 A 
ATOM     16  C   UNL     1      -0.594  11.390  20.589  0.00  0.00    +0.000 A 
ATOM     17  C   UNL     1       0.873   7.825  21.117  0.00  0.00    +0.000 C 
ENDROOT
BRANCH   1  21
ATOM     18  C   UNL     1       6.030   5.334  17.400  0.00  0.00    +0.000 A 
ATOM     19  C   UNL     1       5.877   4.898  18.719  0.00  0.00    +0.000 A 
ATOM     20  C   UNL     1       4.717   5.248  19.457  0.00  0.00    +0.000 A 
ATOM     21  C   UNL     1       3.659   6.042  18.938  0.00  0.00    +0.000 A 
ATOM     22  C   UNL     1       3.830   6.452  17.614  0.00  0.00    +0.000 A 
ATOM     23  C   UNL     1       4.972   6.102  16.859  0.00  0.00    +0.000 A 
BRANCH  18  25
ATOM     24  O   UNL     1       7.343   5.504  15.426  0.00  0.00    +0.000 OA
ATOM     25  C   UNL     1       7.187   5.000  16.526  0.00  0.00    +0.000 C 
BRANCH  25  26
ATOM     26  O   UNL     1       8.076   4.132  17.042  0.00  0.00    +0.000 OA
ATOM     27  H   UNL     1       8.365   4.316  17.947  0.00  0.00    +0.000 HD
ENDBRANCH  25  26
ENDBRANCH  18  25
ENDBRANCH   1  21
TORSDOF 3
ENDMDL
MODEL 5
REMARK VINA RESULT:      -8.8      2.782      3.727
REMARK  Name = 
REMARK  3 active torsions:
REMARK  status: ('A' for Active; 'I' for Inactive)
REMARK    1  A    between atoms: C_2  and  O_3
REMARK    2  A    between atoms: C_2  and  C_4
REMARK    3  A    between atoms: C_7  and  C_8
REMARK                            x       y       z     vdW  Elec       q    Type
REMARK                         _______ _______ _______ _____ _____    ______ ____
ROOT
ATOM      1  C   UNL     1       2.666   7.303  18.677  0.00  0.00    +0.000 C 
ATOM      2  O   UNL     1       3.033   7.684  17.553  0.00  0.00    +0.000 OA
ATOM      3  N   UNL     1       1.873   8.212  19.452  0.00  0.00    +0.000 N 
ATOM      4  C   UNL     1       1.413   8.012  20.829  0.00  0.00    +0.000 C 
ATOM      5  C   UNL     1       0.915   9.257  21.624  0.00  0.00    +0.000 C 
ATOM      6  C   UNL     1       0.112  10.232  20.815  0.00  0.00    +0.000 A 
ATOM      7  C   UNL     1       0.254  10.170  19.480  0.00  0.00    +0.000 A 
ATOM      8  C   UNL     1      -0.863  10.718  18.680  0.00  0.00    +0.000 A 
ATOM      9  O   UNL     1      -1.283  10.146  17.683  0.00  0.00    +0.000 OA
ATOM     10  O   UNL     1      -1.424  11.893  19.131  0.00  0.00    +0.000 OA
ATOM     11  C   UNL     1      -1.651  11.945  20.511  0.00  0.00    +0.000 A 
ATOM     12  C   UNL     1      -2.672  12.809  20.921  0.00  0.00    +0.000 A 
ATOM     13  C   UNL     1      -2.966  12.930  22.276  0.00  0.00    +0.000 A 
ATOM     14  C   UNL     1      -2.195  12.219  23.195  0.00  0.00    +0.000 A 
ATOM     15  C   UNL     1      -1.168  11.346  22.763  0.00  0.00    +0.000 A 
ATOM     16  C   UNL     1      -0.902  11.159  21.399  0.00  0.00    +0.000 A 
ATOM     17  C   UNL     1       1.329   9.402  18.739  0.00  0.00    +0.000 C 
ENDROOT
BRANCH   1  21
ATOM     18  C   UNL     1       4.199   3.232  19.604  0.00  0.00    +0.000 A 
ATOM     19  C   UNL     1       5.025   4.265  19.153  0.00  0.00    +0.000 A 
ATOM     20  C   UNL     1       4.484   5.551  18.896  0.00  0.00    +0.000 A 
ATOM     21  C   UNL     1       3.112   5.881  19.066  0.00  0.00    +0.000 A 
ATOM     22  C   UNL     1       2.312   4.834  19.531  0.00  0.00    +0.000 A 
ATOM     23  C   UNL     1       2.836   3.551  19.806  0.00  0.00    +0.000 A 
BRANCH  18  25
ATOM     24  O   UNL     1       5.156   1.575  21.015  0.00  0.00    +0.000 OA
ATOM     25  C   UNL     1       4.665   1.857  19.934  0.00  0.00    +0.000 C 
BRANCH  25  26
ATOM     26  O   UNL     1       4.475   0.932  18.976  0.00  0.00    +0.000 OA
ATOM     27  H   UNL     1       5.274   0.635  18.516  0.00  0.00    +0.000 HD
ENDBRANCH  25  26
ENDBRANCH  18  25
ENDBRANCH   1  21
TORSDOF 3
ENDMDL
MODEL 6
REMARK VINA RESULT:      -8.6      2.721      3.730
REMARK  Name = 
REMARK  3 active torsions:
REMARK  status: ('A' for Active; 'I' for Inactive)
REMARK    1  A    between atoms: C_2  and  O_3
REMARK    2  A    between atoms: C_2  and  C_4
REMARK    3  A    between atoms: C_7  and  C_8
REMARK                            x       y       z     vdW  Elec       q    Type
REMARK                         _______ _______ _______ _____ _____    ______ ____
ROOT
ATOM      1  C   UNL     1       2.257   8.072  18.433  0.00  0.00    +0.000 C 
ATOM      2  O   UNL     1       2.611   8.546  17.341  0.00  0.00    +0.000 OA
ATOM      3  N   UNL     1       1.460   8.906  19.283  0.00  0.00    +0.000 N 
ATOM      4  C   UNL     1       1.013   8.592  20.643  0.00  0.00    +0.000 C 
ATOM      5  C   UNL     1       0.507   9.764  21.538  0.00  0.00    +0.000 C 
ATOM      6  C   UNL     1      -0.314  10.790  20.815  0.00  0.00    +0.000 A 
ATOM      7  C   UNL     1      -0.182  10.835  19.478  0.00  0.00    +0.000 A 
ATOM      8  C   UNL     1      -1.312  11.431  18.732  0.00  0.00    +0.000 A 
ATOM      9  O   UNL     1      -1.733  10.935  17.695  0.00  0.00    +0.000 OA
ATOM     10  O   UNL     1      -1.884  12.559  19.278  0.00  0.00    +0.000 OA
ATOM     11  C   UNL     1      -2.101  12.498  20.659  0.00  0.00    +0.000 A 
ATOM     12  C   UNL     1      -3.129  13.315  21.144  0.00  0.00    +0.000 A 
ATOM     13  C   UNL     1      -3.413  13.324  22.507  0.00  0.00    +0.000 A 
ATOM     14  C   UNL     1      -2.626  12.552  23.361  0.00  0.00    +0.000 A 
ATOM     15  C   UNL     1      -1.592  11.729  22.854  0.00  0.00    +0.000 A 
ATOM     16  C   UNL     1      -1.335  11.654  21.477  0.00  0.00    +0.000 A 
ATOM     17  C   UNL     1       0.896  10.143  18.671  0.00  0.00    +0.000 C 
ENDROOT
BRANCH   1  21
ATOM     18  C   UNL     1       3.667   3.880  18.910  0.00  0.00    +0.000 A 
ATOM     19  C   UNL     1       4.092   4.706  17.865  0.00  0.00    +0.000 A 
ATOM     20  C   UNL     1       3.627   6.044  17.778  0.00  0.00    +0.000 A 
ATOM     21  C   UNL     1       2.724   6.629  18.705  0.00  0.00    +0.000 A 
ATOM     22  C   UNL     1       2.326   5.787  19.746  0.00  0.00    +0.000 A 
ATOM     23  C   UNL     1       2.789   4.457  19.858  0.00  0.00    +0.000 A 
BRANCH  18  25
ATOM     24  O   UNL     1       3.543   1.526  18.606  0.00  0.00    +0.000 OA
ATOM     25  C   UNL     1       4.114   2.476  19.116  0.00  0.00    +0.000 C 
BRANCH  25  26
ATOM     26  O   UNL     1       5.214   2.320  19.874  0.00  0.00    +0.000 OA
ATOM     27  H   UNL     1       5.064   2.284  20.830  0.00  0.00    +0.000 HD
ENDBRANCH  25  26
ENDBRANCH  18  25
ENDBRANCH   1  21
TORSDOF 3
ENDMDL
MODEL 7
REMARK VINA RESULT:      -8.5      2.566      3.898
REMARK  Name = 
REMARK  3 active torsions:
REMARK  status: ('A' for Active; 'I' for Inactive)
REMARK    1  A    between atoms: C_2  and  O_3
REMARK    2  A    between atoms: C_2  and  C_4
REMARK    3  A    between atoms: C_7  and  C_8
REMARK                            x       y       z     vdW  Elec       q    Type
REMARK                         _______ _______ _______ _____ _____    ______ ____
ROOT
ATOM      1  C   UNL     1       1.861   8.884  18.424  0.00  0.00    +0.000 C 
ATOM      2  O   UNL     1       2.031   9.381  17.299  0.00  0.00    +0.000 OA
ATOM      3  N   UNL     1       1.017   9.597  19.337  0.00  0.00    +0.000 N 
ATOM      4  C   UNL     1       0.753   9.247  20.736  0.00  0.00    +0.000 C 
ATOM      5  C   UNL     1       0.143  10.342  21.663  0.00  0.00    +0.000 C 
ATOM      6  C   UNL     1      -0.898  11.202  21.009  0.00  0.00    +0.000 A 
ATOM      7  C   UNL     1      -0.896  11.236  19.666  0.00  0.00    +0.000 A 
ATOM      8  C   UNL     1      -2.172  11.620  19.023  0.00  0.00    +0.000 A 
ATOM      9  O   UNL     1      -2.597  11.036  18.034  0.00  0.00    +0.000 OA
ATOM     10  O   UNL     1      -2.870  12.653  19.609  0.00  0.00    +0.000 OA
ATOM     11  C   UNL     1      -2.949  12.591  21.005  0.00  0.00    +0.000 A 
ATOM     12  C   UNL     1      -4.050  13.240  21.576  0.00  0.00    +0.000 A 
ATOM     13  C   UNL     1      -4.207  13.237  22.958  0.00  0.00    +0.000 A 
ATOM     14  C   UNL     1      -3.230  12.625  23.743  0.00  0.00    +0.000 A 
ATOM     15  C   UNL     1      -2.124  11.970  23.150  0.00  0.00    +0.000 A 
ATOM     16  C   UNL     1      -1.983  11.904  21.756  0.00  0.00    +0.000 A 
ATOM     17  C   UNL     1       0.204  10.709  18.768  0.00  0.00    +0.000 C 
ENDROOT
BRANCH   1  21
ATOM     18  C   UNL     1       4.004   5.005  18.810  0.00  0.00    +0.000 A 
ATOM     19  C   UNL     1       4.259   5.909  17.775  0.00  0.00    +0.000 A 
ATOM     20  C   UNL     1       3.562   7.143  17.717  0.00  0.00    +0.000 A 
ATOM     21  C   UNL     1       2.582   7.544  18.665  0.00  0.00    +0.000 A 
ATOM     22  C   UNL     1       2.356   6.628  19.696  0.00  0.00    +0.000 A 
ATOM     23  C   UNL     1       3.052   5.400  19.778  0.00  0.00    +0.000 A 
BRANCH  18  25
ATOM     24  O   UNL     1       4.100   2.674  19.267  0.00  0.00    +0.000 OA
ATOM     25  C   UNL     1       4.698   3.700  18.986  0.00  0.00    +0.000 C 
BRANCH  25  26
ATOM     26  O   UNL     1       6.027   3.715  18.780  0.00  0.00    +0.000 OA
ATOM     27  H   UNL     1       6.474   4.550  18.982  0.00  0.00    +0.000 HD
ENDBRANCH  25  26
ENDBRANCH  18  25
ENDBRANCH   1  21
TORSDOF 3
ENDMDL
MODEL 8
REMARK VINA RESULT:      -8.4      1.015      1.190
REMARK  Name = 
REMARK  3 active torsions:
REMARK  status: ('A' for Active; 'I' for Inactive)
REMARK    1  A    between atoms: C_2  and  O_3
REMARK    2  A    between atoms: C_2  and  C_4
REMARK    3  A    between atoms: C_7  and  C_8
REMARK                            x       y       z     vdW  Elec       q    Type
REMARK                         _______ _______ _______ _____ _____    ______ ____
ROOT
ATOM      1  C   UNL     1       2.531   6.128  20.014  0.00  0.00    +0.000 C 
ATOM      2  O   UNL     1       2.206   5.291  20.873  0.00  0.00    +0.000 OA
ATOM      3  N   UNL     1       1.861   7.395  20.046  0.00  0.00    +0.000 N 
ATOM      4  C   UNL     1       2.017   8.487  19.081  0.00  0.00    +0.000 C 
ATOM      5  C   UNL     1       0.929   9.604  19.056  0.00  0.00    +0.000 C 
ATOM      6  C   UNL     1       0.421  10.009  20.408  0.00  0.00    +0.000 A 
ATOM      7  C   UNL     1       0.615   9.137  21.412  0.00  0.00    +0.000 A 
ATOM      8  C   UNL     1       0.612   9.705  22.778  0.00  0.00    +0.000 A 
ATOM      9  O   UNL     1       1.428   9.358  23.622  0.00  0.00    +0.000 OA
ATOM     10  O   UNL     1      -0.340  10.664  23.043  0.00  0.00    +0.000 OA
ATOM     11  C   UNL     1      -0.500  11.628  22.041  0.00  0.00    +0.000 A 
ATOM     12  C   UNL     1      -0.998  12.864  22.468  0.00  0.00    +0.000 A 
ATOM     13  C   UNL     1      -1.195  13.882  21.539  0.00  0.00    +0.000 A 
ATOM     14  C   UNL     1      -0.936  13.621  20.194  0.00  0.00    +0.000 A 
ATOM     15  C   UNL     1      -0.430  12.366  19.779  0.00  0.00    +0.000 A 
ATOM     16  C   UNL     1      -0.161  11.351  20.709  0.00  0.00    +0.000 A 
ATOM     17  C   UNL     1       1.050   7.694  21.259  0.00  0.00    +0.000 C 
ENDROOT
BRANCH   1  21
ATOM     18  C   UNL     1       5.503   4.648  17.054  0.00  0.00    +0.000 A 
ATOM     19  C   UNL     1       4.135   4.728  16.776  0.00  0.00    +0.000 A 
ATOM     20  C   UNL     1       3.236   5.232  17.751  0.00  0.00    +0.000 A 
ATOM     21  C   UNL     1       3.636   5.674  19.041  0.00  0.00    +0.000 A 
ATOM     22  C   UNL     1       5.009   5.596  19.288  0.00  0.00    +0.000 A 
ATOM     23  C   UNL     1       5.921   5.111  18.323  0.00  0.00    +0.000 A 
BRANCH  18  25
ATOM     24  O   UNL     1       6.249   3.667  15.021  0.00  0.00    +0.000 OA
ATOM     25  C   UNL     1       6.536   4.168  16.097  0.00  0.00    +0.000 C 
BRANCH  25  26
ATOM     26  O   UNL     1       7.813   4.354  16.475  0.00  0.00    +0.000 OA
ATOM     27  H   UNL     1       8.345   4.918  15.894  0.00  0.00    +0.000 HD
ENDBRANCH  25  26
ENDBRANCH  18  25
ENDBRANCH   1  21
TORSDOF 3
ENDMDL
MODEL 9
REMARK VINA RESULT:      -8.2      1.939      8.977
REMARK  Name = 
REMARK  3 active torsions:
REMARK  status: ('A' for Active; 'I' for Inactive)
REMARK    1  A    between atoms: C_2  and  O_3
REMARK    2  A    between atoms: C_2  and  C_4
REMARK    3  A    between atoms: C_7  and  C_8
REMARK                            x       y       z     vdW  Elec       q    Type
REMARK                         _______ _______ _______ _____ _____    ______ ____
ROOT
ATOM      1  C   UNL     1       0.971   8.623  20.592  0.00  0.00    +0.000 C 
ATOM      2  O   UNL     1       0.925   8.095  21.716  0.00  0.00    +0.000 OA
ATOM      3  N   UNL     1       1.877   8.057  19.637  0.00  0.00    +0.000 N 
ATOM      4  C   UNL     1       2.162   8.571  18.295  0.00  0.00    +0.000 C 
ATOM      5  C   UNL     1       3.447   8.063  17.573  0.00  0.00    +0.000 C 
ATOM      6  C   UNL     1       3.743   6.607  17.778  0.00  0.00    +0.000 A 
ATOM      7  C   UNL     1       3.164   6.017  18.839  0.00  0.00    +0.000 A 
ATOM      8  C   UNL     1       3.010   4.548  18.763  0.00  0.00    +0.000 A 
ATOM      9  O   UNL     1       1.983   3.988  19.125  0.00  0.00    +0.000 OA
ATOM     10  O   UNL     1       4.073   3.844  18.240  0.00  0.00    +0.000 OA
ATOM     11  C   UNL     1       4.638   4.402  17.089  0.00  0.00    +0.000 A 
ATOM     12  C   UNL     1       5.293   3.502  16.241  0.00  0.00    +0.000 A 
ATOM     13  C   UNL     1       5.892   3.968  15.075  0.00  0.00    +0.000 A 
ATOM     14  C   UNL     1       5.863   5.337  14.808  0.00  0.00    +0.000 A 
ATOM     15  C   UNL     1       5.193   6.234  15.673  0.00  0.00    +0.000 A 
ATOM     16  C   UNL     1       4.527   5.775  16.819  0.00  0.00    +0.000 A 
ATOM     17  C   UNL     1       2.468   6.732  19.978  0.00  0.00    +0.000 C 
ENDROOT
BRANCH   1  21
ATOM     18  C   UNL     1      -1.829  12.069  20.314  0.00  0.00    +0.000 A 
ATOM     19  C   UNL     1      -1.095  11.783  21.469  0.00  0.00    +0.000 A 
ATOM     20  C   UNL     1      -0.198  10.684  21.492  0.00  0.00    +0.000 A 
ATOM     21  C   UNL     1       0.017   9.816  20.388  0.00  0.00    +0.000 A 
ATOM     22  C   UNL     1      -0.718  10.132  19.243  0.00  0.00    +0.000 A 
ATOM     23  C   UNL     1      -1.606  11.231  19.197  0.00  0.00    +0.000 A 
BRANCH  18  25
ATOM     24  O   UNL     1      -3.980  13.061  20.120  0.00  0.00    +0.000 OA
ATOM     25  C   UNL     1      -2.771  13.212  20.169  0.00  0.00    +0.000 C 
BRANCH  25  26
ATOM     26  O   UNL     1      -2.205  14.432  20.134  0.00  0.00    +0.000 OA
ATOM     27  H   UNL     1      -1.648  14.614  19.363  0.00  0.00    +0.000 HD
ENDBRANCH  25  26
ENDBRANCH  18  25
ENDBRANCH   1  21
TORSDOF 3
ENDMDL
