MODEL 1
REMARK VINA RESULT:      -8.8      0.000      0.000
REMARK  Name = 
REMARK  10 active torsions:
REMARK  status: ('A' for Active; 'I' for Inactive)
REMARK    1  A    between atoms: C_2  and  C_3
REMARK    2  A    between atoms: C_6  and  O_7
REMARK    3  A    between atoms: O_7  and  C_8
REMARK    4  A    between atoms: C_11  and  C_12
REMARK    5  A    between atoms: C_14  and  C_15
REMARK    6  A    between atoms: C_15  and  O_16
REMARK    7  A    between atoms: C_15  and  C_17
REMARK    8  A    between atoms: C_17  and  O_18
REMARK    9  A    between atoms: C_20  and  C_21
REMARK   10  A    between atoms: C_27  and  C_28
REMARK                            x       y       z     vdW  Elec       q    Type
REMARK                         _______ _______ _______ _____ _____    ______ ____
ROOT
ATOM      1  C   UNL     1       1.269   9.444  19.460  0.00  0.00    +0.000 A 
ATOM      2  C   UNL     1       1.469   8.342  20.287  0.00  0.00    +0.000 A 
ATOM      3  C   UNL     1       2.192   7.232  19.819  0.00  0.00    +0.000 A 
ATOM      4  C   UNL     1       2.720   7.182  18.511  0.00  0.00    +0.000 A 
ATOM      5  C   UNL     1       2.555   8.326  17.716  0.00  0.00    +0.000 A 
ATOM      6  C   UNL     1       1.813   9.427  18.170  0.00  0.00    +0.000 A 
ENDROOT
BRANCH   4   7
ATOM      7  C   UNL     1       3.351   5.957  17.958  0.00  0.00    +0.000 A 
ATOM      8  C   UNL     1       2.765   4.699  18.139  0.00  0.00    +0.000 A 
ATOM      9  C   UNL     1       3.349   3.548  17.594  0.00  0.00    +0.000 A 
ATOM     10  C   UNL     1       4.523   3.699  16.862  0.00  0.00    +0.000 A 
ATOM     11  C   UNL     1       5.044   4.978  16.705  0.00  0.00    +0.000 A 
ATOM     12  N   UNL     1       4.485   6.110  17.230  0.00  0.00    +0.000 NA
BRANCH  11  13
ATOM     13  C   UNL     1       6.298   5.145  15.903  0.00  0.00    +0.000 C 
ATOM     14  N   UNL     1       7.435   4.627  16.453  0.00  0.00    +0.000 N 
ATOM     15  O   UNL     1       6.316   5.712  14.817  0.00  0.00    +0.000 OA
ATOM     16  H   UNL     1       7.385   4.146  17.340  0.00  0.00    +0.000 HD
ATOM     17  H   UNL     1       8.305   4.692  15.945  0.00  0.00    +0.000 HD
ENDBRANCH  11  13
BRANCH   9  18
ATOM     18  C   UNL     1       2.745   2.183  17.812  0.00  0.00    +0.000 C 
BRANCH  18  19
ATOM     19  O   UNL     1       3.821   1.275  18.049  0.00  0.00    +0.000 OA
ATOM     20  H   UNL     1       3.561   0.404  17.707  0.00  0.00    +0.000 HD
ENDBRANCH  18  19
BRANCH  18  21
ATOM     21  C   UNL     1       1.709   2.155  18.954  0.00  0.00    +0.000 C 
BRANCH  21  22
ATOM     22  O   UNL     1       0.372   2.159  18.454  0.00  0.00    +0.000 OA
ATOM     23  H   UNL     1      -0.017   1.283  18.625  0.00  0.00    +0.000 HD
ENDBRANCH  21  22
ENDBRANCH  18  21
ENDBRANCH   9  18
ENDBRANCH   4   7
BRANCH   1  24
ATOM     24  O   UNL     1       0.513  10.493  19.962  0.00  0.00    +0.000 OA
BRANCH  24  28
ATOM     25  C   UNL     1      -3.157  11.320  18.115  0.00  0.00    +0.000 A 
ATOM     26  C   UNL     1      -2.306  10.345  17.592  0.00  0.00    +0.000 A 
ATOM     27  C   UNL     1      -1.076  10.135  18.160  0.00  0.00    +0.000 A 
ATOM     28  C   UNL     1      -0.674  10.813  19.335  0.00  0.00    +0.000 A 
ATOM     29  C   UNL     1      -1.494  11.840  19.834  0.00  0.00    +0.000 A 
ATOM     30  C   UNL     1      -2.737  12.075  19.221  0.00  0.00    +0.000 A 
BRANCH  29  31
ATOM     31  C   UNL     1      -1.143  12.749  20.992  0.00  0.00    +0.000 C 
ATOM     32  F   UNL     1       0.005  13.463  20.872  0.00  0.00    +0.000 F 
ATOM     33  F   UNL     1      -2.129  13.671  21.215  0.00  0.00    +0.000 F 
ATOM     34  F   UNL     1      -1.037  12.060  22.165  0.00  0.00    +0.000 F 
ENDBRANCH  29  31
BRANCH  25  36
ATOM     35  N   UNL     1      -5.480  11.726  17.029  0.00  0.00    +0.000 NA
ATOM     36  C   UNL     1      -4.435  11.542  17.521  0.00  0.00    +0.000 C 
ENDBRANCH  25  36
ENDBRANCH  24  28
ENDBRANCH   1  24
TORSDOF 10
ENDMDL
MODEL 2
REMARK VINA RESULT:      -8.8      2.064      3.537
REMARK  Name = 
REMARK  10 active torsions:
REMARK  status: ('A' for Active; 'I' for Inactive)
REMARK    1  A    between atoms: C_2  and  C_3
REMARK    2  A    between atoms: C_6  and  O_7
REMARK    3  A    between atoms: O_7  and  C_8
REMARK    4  A    between atoms: C_11  and  C_12
REMARK    5  A    between atoms: C_14  and  C_15
REMARK    6  A    between atoms: C_15  and  O_16
REMARK    7  A    between atoms: C_15  and  C_17
REMARK    8  A    between atoms: C_17  and  O_18
REMARK    9  A    between atoms: C_20  and  C_21
REMARK   10  A    between atoms: C_27  and  C_28
REMARK                            x       y       z     vdW  Elec       q    Type
REMARK                         _______ _______ _______ _____ _____    ______ ____
ROOT
ATOM      1  C   UNL     1       0.957  10.154  18.760  0.00  0.00    +0.000 A 
ATOM      2  C   UNL     1       0.848   9.485  19.976  0.00  0.00    +0.000 A 
ATOM      3  C   UNL     1       1.501   8.255  20.164  0.00  0.00    +0.000 A 
ATOM      4  C   UNL     1       2.266   7.651  19.143  0.00  0.00    +0.000 A 
ATOM      5  C   UNL     1       2.408   8.371  17.948  0.00  0.00    +0.000 A 
ATOM      6  C   UNL     1       1.738   9.587  17.745  0.00  0.00    +0.000 A 
ENDROOT
BRANCH   4   7
ATOM      7  C   UNL     1       2.833   6.286  19.280  0.00  0.00    +0.000 A 
ATOM      8  C   UNL     1       4.010   5.924  18.617  0.00  0.00    +0.000 A 
ATOM      9  C   UNL     1       4.557   4.642  18.769  0.00  0.00    +0.000 A 
ATOM     10  C   UNL     1       3.896   3.749  19.607  0.00  0.00    +0.000 A 
ATOM     11  C   UNL     1       2.741   4.177  20.249  0.00  0.00    +0.000 A 
ATOM     12  N   UNL     1       2.196   5.424  20.112  0.00  0.00    +0.000 NA
BRANCH  11  13
ATOM     13  C   UNL     1       2.037   3.223  21.165  0.00  0.00    +0.000 C 
ATOM     14  N   UNL     1       0.740   2.938  20.852  0.00  0.00    +0.000 N 
ATOM     15  O   UNL     1       2.583   2.722  22.141  0.00  0.00    +0.000 OA
ATOM     16  H   UNL     1       0.325   3.350  20.029  0.00  0.00    +0.000 HD
ATOM     17  H   UNL     1       0.225   2.283  21.422  0.00  0.00    +0.000 HD
ENDBRANCH  11  13
BRANCH   9  18
ATOM     18  C   UNL     1       5.807   4.230  18.031  0.00  0.00    +0.000 C 
BRANCH  18  19
ATOM     19  O   UNL     1       5.403   3.396  16.945  0.00  0.00    +0.000 OA
ATOM     20  H   UNL     1       5.813   2.523  17.067  0.00  0.00    +0.000 HD
ENDBRANCH  18  19
BRANCH  18  21
ATOM     21  C   UNL     1       6.649   5.428  17.550  0.00  0.00    +0.000 C 
BRANCH  21  22
ATOM     22  O   UNL     1       7.549   5.055  16.506  0.00  0.00    +0.000 OA
ATOM     23  H   UNL     1       7.344   5.598  15.724  0.00  0.00    +0.000 HD
ENDBRANCH  21  22
ENDBRANCH  18  21
ENDBRANCH   9  18
ENDBRANCH   4   7
BRANCH   1  24
ATOM     24  O   UNL     1       0.257  11.343  18.617  0.00  0.00    +0.000 OA
BRANCH  24  28
ATOM     25  C   UNL     1      -3.911  11.044  18.305  0.00  0.00    +0.000 A 
ATOM     26  C   UNL     1      -3.085  10.182  17.583  0.00  0.00    +0.000 A 
ATOM     27  C   UNL     1      -1.723  10.337  17.635  0.00  0.00    +0.000 A 
ATOM     28  C   UNL     1      -1.116  11.292  18.484  0.00  0.00    +0.000 A 
ATOM     29  C   UNL     1      -1.936  12.205  19.167  0.00  0.00    +0.000 A 
ATOM     30  C   UNL     1      -3.332  12.063  19.077  0.00  0.00    +0.000 A 
BRANCH  29  31
ATOM     31  C   UNL     1      -1.440  13.368  19.999  0.00  0.00    +0.000 C 
ATOM     32  F   UNL     1      -0.623  13.061  21.038  0.00  0.00    +0.000 F 
ATOM     33  F   UNL     1      -0.744  14.263  19.234  0.00  0.00    +0.000 F 
ATOM     34  F   UNL     1      -2.470  14.089  20.530  0.00  0.00    +0.000 F 
ENDBRANCH  29  31
BRANCH  25  36
ATOM     35  N   UNL     1      -6.490  10.762  18.201  0.00  0.00    +0.000 NA
ATOM     36  C   UNL     1      -5.328  10.886  18.247  0.00  0.00    +0.000 C 
ENDBRANCH  25  36
ENDBRANCH  24  28
ENDBRANCH   1  24
TORSDOF 10
ENDMDL
MODEL 3
REMARK VINA RESULT:      -8.8      2.467      3.035
REMARK  Name = 
REMARK  10 active torsions:
REMARK  status: ('A' for Active; 'I' for Inactive)
REMARK    1  A    between atoms: C_2  and  C_3
REMARK    2  A    between atoms: C_6  and  O_7
REMARK    3  A    between atoms: O_7  and  C_8
REMARK    4  A    between atoms: C_11  and  C_12
REMARK    5  A    between atoms: C_14  and  C_15
REMARK    6  A    between atoms: C_15  and  O_16
REMARK    7  A    between atoms: C_15  and  C_17
REMARK    8  A    between atoms: C_17  and  O_18
REMARK    9  A    between atoms: C_20  and  C_21
REMARK   10  A    between atoms: C_27  and  C_28
REMARK                            x       y       z     vdW  Elec       q    Type
REMARK                         _______ _______ _______ _____ _____    ______ ____
ROOT
ATOM      1  C   UNL     1       0.968   9.345  19.728  0.00  0.00    +0.000 A 
ATOM      2  C   UNL     1       1.352   8.302  20.565  0.00  0.00    +0.000 A 
ATOM      3  C   UNL     1       2.131   7.246  20.063  0.00  0.00    +0.000 A 
ATOM      4  C   UNL     1       2.534   7.193  18.711  0.00  0.00    +0.000 A 
ATOM      5  C   UNL     1       2.184   8.283  17.902  0.00  0.00    +0.000 A 
ATOM      6  C   UNL     1       1.385   9.327  18.392  0.00  0.00    +0.000 A 
ENDROOT
BRANCH   4   7
ATOM      7  C   UNL     1       3.226   6.011  18.138  0.00  0.00    +0.000 A 
ATOM      8  C   UNL     1       2.675   4.729  18.246  0.00  0.00    +0.000 A 
ATOM      9  C   UNL     1       3.317   3.620  17.681  0.00  0.00    +0.000 A 
ATOM     10  C   UNL     1       4.513   3.836  17.003  0.00  0.00    +0.000 A 
ATOM     11  C   UNL     1       4.997   5.136  16.916  0.00  0.00    +0.000 A 
ATOM     12  N   UNL     1       4.381   6.229  17.461  0.00  0.00    +0.000 NA
BRANCH  11  13
ATOM     13  C   UNL     1       6.275   5.373  16.171  0.00  0.00    +0.000 C 
ATOM     14  N   UNL     1       6.152   5.936  14.934  0.00  0.00    +0.000 N 
ATOM     15  O   UNL     1       7.371   5.082  16.634  0.00  0.00    +0.000 OA
ATOM     16  H   UNL     1       5.236   6.184  14.589  0.00  0.00    +0.000 HD
ATOM     17  H   UNL     1       6.983   6.139  14.398  0.00  0.00    +0.000 HD
ENDBRANCH  11  13
BRANCH   9  18
ATOM     18  C   UNL     1       2.750   2.228  17.823  0.00  0.00    +0.000 C 
BRANCH  18  19
ATOM     19  O   UNL     1       3.846   1.347  18.069  0.00  0.00    +0.000 OA
ATOM     20  H   UNL     1       3.721   0.951  18.948  0.00  0.00    +0.000 HD
ENDBRANCH  18  19
BRANCH  18  21
ATOM     21  C   UNL     1       1.672   2.123  18.921  0.00  0.00    +0.000 C 
BRANCH  21  22
ATOM     22  O   UNL     1       0.378   1.885  18.368  0.00  0.00    +0.000 OA
ATOM     23  H   UNL     1      -0.280   2.308  18.948  0.00  0.00    +0.000 HD
ENDBRANCH  21  22
ENDBRANCH  18  21
ENDBRANCH   9  18
ENDBRANCH   4   7
BRANCH   1  24
ATOM     24  O   UNL     1       0.164  10.339  20.269  0.00  0.00    +0.000 OA
BRANCH  24  28
ATOM     25  C   UNL     1       1.055  14.275  19.140  0.00  0.00    +0.000 A 
ATOM     26  C   UNL     1       1.834  13.620  20.095  0.00  0.00    +0.000 A 
ATOM     27  C   UNL     1       1.490  12.359  20.511  0.00  0.00    +0.000 A 
ATOM     28  C   UNL     1       0.413  11.652  19.926  0.00  0.00    +0.000 A 
ATOM     29  C   UNL     1      -0.416  12.323  19.011  0.00  0.00    +0.000 A 
ATOM     30  C   UNL     1      -0.077  13.630  18.619  0.00  0.00    +0.000 A 
BRANCH  29  31
ATOM     31  C   UNL     1      -1.682  11.756  18.406  0.00  0.00    +0.000 C 
ATOM     32  F   UNL     1      -1.806  10.405  18.422  0.00  0.00    +0.000 F 
ATOM     33  F   UNL     1      -2.794  12.236  19.043  0.00  0.00    +0.000 F 
ATOM     34  F   UNL     1      -1.836  12.134  17.104  0.00  0.00    +0.000 F 
ENDBRANCH  29  31
BRANCH  25  36
ATOM     35  N   UNL     1       1.701  16.666  18.364  0.00  0.00    +0.000 NA
ATOM     36  C   UNL     1       1.411  15.588  18.711  0.00  0.00    +0.000 C 
ENDBRANCH  25  36
ENDBRANCH  24  28
ENDBRANCH   1  24
TORSDOF 10
ENDMDL
MODEL 4
REMARK VINA RESULT:      -8.8      2.354      4.124
REMARK  Name = 
REMARK  10 active torsions:
REMARK  status: ('A' for Active; 'I' for Inactive)
REMARK    1  A    between atoms: C_2  and  C_3
REMARK    2  A    between atoms: C_6  and  O_7
REMARK    3  A    between atoms: O_7  and  C_8
REMARK    4  A    between atoms: C_11  and  C_12
REMARK    5  A    between atoms: C_14  and  C_15
REMARK    6  A    between atoms: C_15  and  O_16
REMARK    7  A    between atoms: C_15  and  C_17
REMARK    8  A    between atoms: C_17  and  O_18
REMARK    9  A    between atoms: C_20  and  C_21
REMARK   10  A    between atoms: C_27  and  C_28
REMARK                            x       y       z     vdW  Elec       q    Type
REMARK                         _______ _______ _______ _____ _____    ______ ____
ROOT
ATOM      1  C   UNL     1       1.348  10.170  19.334  0.00  0.00    +0.000 A 
ATOM      2  C   UNL     1       1.789   9.983  18.027  0.00  0.00    +0.000 A 
ATOM      3  C   UNL     1       2.240   8.720  17.609  0.00  0.00    +0.000 A 
ATOM      4  C   UNL     1       2.278   7.613  18.485  0.00  0.00    +0.000 A 
ATOM      5  C   UNL     1       1.775   7.811  19.779  0.00  0.00    +0.000 A 
ATOM      6  C   UNL     1       1.347   9.077  20.208  0.00  0.00    +0.000 A 
ENDROOT
BRANCH   4   7
ATOM      7  C   UNL     1       2.892   6.318  18.097  0.00  0.00    +0.000 A 
ATOM      8  C   UNL     1       4.173   6.266  17.538  0.00  0.00    +0.000 A 
ATOM      9  C   UNL     1       4.761   5.040  17.197  0.00  0.00    +0.000 A 
ATOM     10  C   UNL     1       4.032   3.880  17.442  0.00  0.00    +0.000 A 
ATOM     11  C   UNL     1       2.773   4.000  18.016  0.00  0.00    +0.000 A 
ATOM     12  N   UNL     1       2.187   5.189  18.355  0.00  0.00    +0.000 NA
BRANCH  11  13
ATOM     13  C   UNL     1       1.994   2.751  18.297  0.00  0.00    +0.000 C 
ATOM     14  N   UNL     1       2.661   1.575  18.115  0.00  0.00    +0.000 N 
ATOM     15  O   UNL     1       0.825   2.772  18.666  0.00  0.00    +0.000 OA
ATOM     16  H   UNL     1       3.630   1.591  17.831  0.00  0.00    +0.000 HD
ATOM     17  H   UNL     1       2.191   0.703  18.312  0.00  0.00    +0.000 HD
ENDBRANCH  11  13
BRANCH   9  18
ATOM     18  C   UNL     1       6.127   4.975  16.561  0.00  0.00    +0.000 C 
BRANCH  18  19
ATOM     19  O   UNL     1       6.153   5.943  15.512  0.00  0.00    +0.000 OA
ATOM     20  H   UNL     1       6.646   6.718  15.831  0.00  0.00    +0.000 HD
ENDBRANCH  18  19
BRANCH  18  21
ATOM     21  C   UNL     1       7.275   5.189  17.568  0.00  0.00    +0.000 C 
BRANCH  21  22
ATOM     22  O   UNL     1       8.160   4.070  17.605  0.00  0.00    +0.000 OA
ATOM     23  H   UNL     1       7.645   3.288  17.872  0.00  0.00    +0.000 HD
ENDBRANCH  21  22
ENDBRANCH  18  21
ENDBRANCH   9  18
ENDBRANCH   4   7
BRANCH   1  24
ATOM     24  O   UNL     1       0.954  11.448  19.701  0.00  0.00    +0.000 OA
BRANCH  24  28
ATOM     25  C   UNL     1      -2.300  12.039  22.275  0.00  0.00    +0.000 A 
ATOM     26  C   UNL     1      -1.032  11.765  22.790  0.00  0.00    +0.000 A 
ATOM     27  C   UNL     1       0.010  11.501  21.938  0.00  0.00    +0.000 A 
ATOM     28  C   UNL     1      -0.137  11.592  20.534  0.00  0.00    +0.000 A 
ATOM     29  C   UNL     1      -1.421  11.805  20.002  0.00  0.00    +0.000 A 
ATOM     30  C   UNL     1      -2.490  12.037  20.885  0.00  0.00    +0.000 A 
BRANCH  29  31
ATOM     31  C   UNL     1      -1.766  11.790  18.529  0.00  0.00    +0.000 C 
ATOM     32  F   UNL     1      -1.495  10.642  17.858  0.00  0.00    +0.000 F 
ATOM     33  F   UNL     1      -3.099  12.027  18.331  0.00  0.00    +0.000 F 
ATOM     34  F   UNL     1      -1.129  12.785  17.848  0.00  0.00    +0.000 F 
ENDBRANCH  29  31
BRANCH  25  36
ATOM     35  N   UNL     1      -4.276  12.527  23.886  0.00  0.00    +0.000 NA
ATOM     36  C   UNL     1      -3.385  12.310  23.161  0.00  0.00    +0.000 C 
ENDBRANCH  25  36
ENDBRANCH  24  28
ENDBRANCH   1  24
TORSDOF 10
ENDMDL
MODEL 5
REMARK VINA RESULT:      -8.8      0.899      1.191
REMARK  Name = 
REMARK  10 active torsions:
REMARK  status: ('A' for Active; 'I' for Inactive)
REMARK    1  A    between atoms: C_2  and  C_3
REMARK    2  A    between atoms: C_6  and  O_7
REMARK    3  A    between atoms: O_7  and  C_8
REMARK    4  A    between atoms: C_11  and  C_12
REMARK    5  A    between atoms: C_14  and  C_15
REMARK    6  A    between atoms: C_15  and  O_16
REMARK    7  A    between atoms: C_15  and  C_17
REMARK    8  A    between atoms: C_17  and  O_18
REMARK    9  A    between atoms: C_20  and  C_21
REMARK   10  A    between atoms: C_27  and  C_28
REMARK                            x       y       z     vdW  Elec       q    Type
REMARK                         _______ _______ _______ _____ _____    ______ ____
ROOT
ATOM      1  C   UNL     1       1.385   9.371  19.270  0.00  0.00    +0.000 A 
ATOM      2  C   UNL     1       1.595   8.315  20.153  0.00  0.00    +0.000 A 
ATOM      3  C   UNL     1       2.333   7.192  19.744  0.00  0.00    +0.000 A 
ATOM      4  C   UNL     1       2.867   7.082  18.443  0.00  0.00    +0.000 A 
ATOM      5  C   UNL     1       2.692   8.181  17.590  0.00  0.00    +0.000 A 
ATOM      6  C   UNL     1       1.935   9.295  17.984  0.00  0.00    +0.000 A 
ENDROOT
BRANCH   4   7
ATOM      7  C   UNL     1       3.516   5.838  17.956  0.00  0.00    +0.000 A 
ATOM      8  C   UNL     1       2.902   4.591  18.121  0.00  0.00    +0.000 A 
ATOM      9  C   UNL     1       3.505   3.422  17.637  0.00  0.00    +0.000 A 
ATOM     10  C   UNL     1       4.725   3.544  16.981  0.00  0.00    +0.000 A 
ATOM     11  C   UNL     1       5.273   4.813  16.834  0.00  0.00    +0.000 A 
ATOM     12  N   UNL     1       4.697   5.963  17.300  0.00  0.00    +0.000 NA
BRANCH  11  13
ATOM     13  C   UNL     1       6.579   4.948  16.112  0.00  0.00    +0.000 C 
ATOM     14  N   UNL     1       7.628   4.250  16.636  0.00  0.00    +0.000 N 
ATOM     15  O   UNL     1       6.710   5.643  15.111  0.00  0.00    +0.000 OA
ATOM     16  H   UNL     1       7.484   3.670  17.449  0.00  0.00    +0.000 HD
ATOM     17  H   UNL     1       8.526   4.287  16.176  0.00  0.00    +0.000 HD
ENDBRANCH  11  13
BRANCH   9  18
ATOM     18  C   UNL     1       2.868   2.070  17.842  0.00  0.00    +0.000 C 
BRANCH  18  19
ATOM     19  O   UNL     1       3.917   1.149  18.143  0.00  0.00    +0.000 OA
ATOM     20  H   UNL     1       3.858   0.925  19.087  0.00  0.00    +0.000 HD
ENDBRANCH  18  19
BRANCH  18  21
ATOM     21  C   UNL     1       1.777   2.072  18.931  0.00  0.00    +0.000 C 
BRANCH  21  22
ATOM     22  O   UNL     1       0.477   1.880  18.376  0.00  0.00    +0.000 OA
ATOM     23  H   UNL     1       0.014   1.214  18.914  0.00  0.00    +0.000 HD
ENDBRANCH  21  22
ENDBRANCH  18  21
ENDBRANCH   9  18
ENDBRANCH   4   7
BRANCH   1  24
ATOM     24  O   UNL     1       0.613  10.435  19.714  0.00  0.00    +0.000 OA
BRANCH  24  28
ATOM     25  C   UNL     1      -3.014  11.309  17.806  0.00  0.00    +0.000 A 
ATOM     26  C   UNL     1      -2.650   9.986  18.061  0.00  0.00    +0.000 A 
ATOM     27  C   UNL     1      -1.428   9.708  18.618  0.00  0.00    +0.000 A 
ATOM     28  C   UNL     1      -0.552  10.735  19.039  0.00  0.00    +0.000 A 
ATOM     29  C   UNL     1      -0.878  12.068  18.732  0.00  0.00    +0.000 A 
ATOM     30  C   UNL     1      -2.117  12.340  18.125  0.00  0.00    +0.000 A 
BRANCH  29  31
ATOM     31  C   UNL     1       0.013  13.263  18.988  0.00  0.00    +0.000 C 
ATOM     32  F   UNL     1      -0.455  14.465  18.565  0.00  0.00    +0.000 F 
ATOM     33  F   UNL     1       0.267  13.415  20.323  0.00  0.00    +0.000 F 
ATOM     34  F   UNL     1       1.241  13.113  18.413  0.00  0.00    +0.000 F 
ENDBRANCH  29  31
BRANCH  25  36
ATOM     35  N   UNL     1      -5.322  11.830  16.739  0.00  0.00    +0.000 NA
ATOM     36  C   UNL     1      -4.283  11.598  17.221  0.00  0.00    +0.000 C 
ENDBRANCH  25  36
ENDBRANCH  24  28
ENDBRANCH   1  24
TORSDOF 10
ENDMDL
MODEL 6
REMARK VINA RESULT:      -8.7      4.027      9.507
REMARK  Name = 
REMARK  10 active torsions:
REMARK  status: ('A' for Active; 'I' for Inactive)
REMARK    1  A    between atoms: C_2  and  C_3
REMARK    2  A    between atoms: C_6  and  O_7
REMARK    3  A    between atoms: O_7  and  C_8
REMARK    4  A    between atoms: C_11  and  C_12
REMARK    5  A    between atoms: C_14  and  C_15
REMARK    6  A    between atoms: C_15  and  O_16
REMARK    7  A    between atoms: C_15  and  C_17
REMARK    8  A    between atoms: C_17  and  O_18
REMARK    9  A    between atoms: C_20  and  C_21
REMARK   10  A    between atoms: C_27  and  C_28
REMARK                            x       y       z     vdW  Elec       q    Type
REMARK                         _______ _______ _______ _____ _____    ______ ____
ROOT
ATOM      1  C   UNL     1       2.637   7.269  19.218  0.00  0.00    +0.000 A 
ATOM      2  C   UNL     1       2.432   7.902  17.995  0.00  0.00    +0.000 A 
ATOM      3  C   UNL     1       1.493   8.941  17.888  0.00  0.00    +0.000 A 
ATOM      4  C   UNL     1       0.721   9.367  18.991  0.00  0.00    +0.000 A 
ATOM      5  C   UNL     1       0.986   8.755  20.224  0.00  0.00    +0.000 A 
ATOM      6  C   UNL     1       1.905   7.699  20.331  0.00  0.00    +0.000 A 
ENDROOT
BRANCH   4   7
ATOM      7  C   UNL     1      -0.376  10.357  18.854  0.00  0.00    +0.000 A 
ATOM      8  C   UNL     1      -1.385  10.188  17.899  0.00  0.00    +0.000 A 
ATOM      9  C   UNL     1      -2.435  11.110  17.790  0.00  0.00    +0.000 A 
ATOM     10  C   UNL     1      -2.444  12.191  18.666  0.00  0.00    +0.000 A 
ATOM     11  C   UNL     1      -1.422  12.291  19.602  0.00  0.00    +0.000 A 
ATOM     12  N   UNL     1      -0.392  11.399  19.722  0.00  0.00    +0.000 NA
BRANCH  11  13
ATOM     13  C   UNL     1      -1.440  13.445  20.558  0.00  0.00    +0.000 C 
ATOM     14  N   UNL     1      -2.284  14.470  20.244  0.00  0.00    +0.000 N 
ATOM     15  O   UNL     1      -0.740  13.479  21.563  0.00  0.00    +0.000 OA
ATOM     16  H   UNL     1      -2.863  14.404  19.420  0.00  0.00    +0.000 HD
ATOM     17  H   UNL     1      -2.352  15.263  20.866  0.00  0.00    +0.000 HD
ENDBRANCH  11  13
BRANCH   9  18
ATOM     18  C   UNL     1      -3.509  10.956  16.741  0.00  0.00    +0.000 C 
BRANCH  18  19
ATOM     19  O   UNL     1      -4.346  12.110  16.819  0.00  0.00    +0.000 OA
ATOM     20  H   UNL     1      -4.724  12.147  17.714  0.00  0.00    +0.000 HD
ENDBRANCH  18  19
BRANCH  18  21
ATOM     21  C   UNL     1      -2.943  10.754  15.321  0.00  0.00    +0.000 C 
BRANCH  21  22
ATOM     22  O   UNL     1      -3.848  10.024  14.492  0.00  0.00    +0.000 OA
ATOM     23  H   UNL     1      -3.416   9.876  13.632  0.00  0.00    +0.000 HD
ENDBRANCH  21  22
ENDBRANCH  18  21
ENDBRANCH   9  18
ENDBRANCH   4   7
BRANCH   1  24
ATOM     24  O   UNL     1       3.546   6.222  19.253  0.00  0.00    +0.000 OA
BRANCH  24  28
ATOM     25  C   UNL     1       5.366   4.843  15.739  0.00  0.00    +0.000 A 
ATOM     26  C   UNL     1       5.804   6.021  16.347  0.00  0.00    +0.000 A 
ATOM     27  C   UNL     1       5.153   6.502  17.455  0.00  0.00    +0.000 A 
ATOM     28  C   UNL     1       4.100   5.784  18.068  0.00  0.00    +0.000 A 
ATOM     29  C   UNL     1       3.609   4.631  17.430  0.00  0.00    +0.000 A 
ATOM     30  C   UNL     1       4.258   4.167  16.273  0.00  0.00    +0.000 A 
BRANCH  29  31
ATOM     31  C   UNL     1       2.404   3.834  17.880  0.00  0.00    +0.000 C 
ATOM     32  F   UNL     1       2.383   3.456  19.183  0.00  0.00    +0.000 F 
ATOM     33  F   UNL     1       1.245   4.534  17.681  0.00  0.00    +0.000 F 
ATOM     34  F   UNL     1       2.251   2.690  17.153  0.00  0.00    +0.000 F 
ENDBRANCH  29  31
BRANCH  25  36
ATOM     35  N   UNL     1       6.592   3.933  13.640  0.00  0.00    +0.000 NA
ATOM     36  C   UNL     1       6.039   4.346  14.584  0.00  0.00    +0.000 C 
ENDBRANCH  25  36
ENDBRANCH  24  28
ENDBRANCH   1  24
TORSDOF 10
ENDMDL
MODEL 7
REMARK VINA RESULT:      -8.7      2.116      3.511
REMARK  Name = 
REMARK  10 active torsions:
REMARK  status: ('A' for Active; 'I' for Inactive)
REMARK    1  A    between atoms: C_2  and  C_3
REMARK    2  A    between atoms: C_6  and  O_7
REMARK    3  A    between atoms: O_7  and  C_8
REMARK    4  A    between atoms: C_11  and  C_12
REMARK    5  A    between atoms: C_14  and  C_15
REMARK    6  A    between atoms: C_15  and  O_16
REMARK    7  A    between atoms: C_15  and  C_17
REMARK    8  A    between atoms: C_17  and  O_18
REMARK    9  A    between atoms: C_20  and  C_21
REMARK   10  A    between atoms: C_27  and  C_28
REMARK                            x       y       z     vdW  Elec       q    Type
REMARK                         _______ _______ _______ _____ _____    ______ ____
ROOT
ATOM      1  C   UNL     1       1.034  10.081  18.785  0.00  0.00    +0.000 A 
ATOM      2  C   UNL     1       0.933   9.361  19.972  0.00  0.00    +0.000 A 
ATOM      3  C   UNL     1       1.589   8.126  20.104  0.00  0.00    +0.000 A 
ATOM      4  C   UNL     1       2.349   7.567  19.054  0.00  0.00    +0.000 A 
ATOM      5  C   UNL     1       2.483   8.337  17.889  0.00  0.00    +0.000 A 
ATOM      6  C   UNL     1       1.810   9.560  17.743  0.00  0.00    +0.000 A 
ENDROOT
BRANCH   4   7
ATOM      7  C   UNL     1       2.918   6.198  19.130  0.00  0.00    +0.000 A 
ATOM      8  C   UNL     1       4.284   5.973  18.925  0.00  0.00    +0.000 A 
ATOM      9  C   UNL     1       4.823   4.683  19.023  0.00  0.00    +0.000 A 
ATOM     10  C   UNL     1       3.959   3.640  19.340  0.00  0.00    +0.000 A 
ATOM     11  C   UNL     1       2.617   3.934  19.548  0.00  0.00    +0.000 A 
ATOM     12  N   UNL     1       2.076   5.187  19.457  0.00  0.00    +0.000 NA
BRANCH  11  13
ATOM     13  C   UNL     1       1.688   2.814  19.906  0.00  0.00    +0.000 C 
ATOM     14  N   UNL     1       1.624   1.781  19.017  0.00  0.00    +0.000 N 
ATOM     15  O   UNL     1       1.018   2.816  20.932  0.00  0.00    +0.000 OA
ATOM     16  H   UNL     1       2.205   1.798  18.191  0.00  0.00    +0.000 HD
ATOM     17  H   UNL     1       1.031   0.989  19.220  0.00  0.00    +0.000 HD
ENDBRANCH  11  13
BRANCH   9  18
ATOM     18  C   UNL     1       6.288   4.424  18.769  0.00  0.00    +0.000 C 
BRANCH  18  19
ATOM     19  O   UNL     1       6.420   4.041  17.400  0.00  0.00    +0.000 OA
ATOM     20  H   UNL     1       6.973   4.705  16.954  0.00  0.00    +0.000 HD
ENDBRANCH  18  19
BRANCH  18  21
ATOM     21  C   UNL     1       7.185   5.629  19.116  0.00  0.00    +0.000 C 
BRANCH  21  22
ATOM     22  O   UNL     1       7.845   5.451  20.369  0.00  0.00    +0.000 OA
ATOM     23  H   UNL     1       7.562   4.597  20.741  0.00  0.00    +0.000 HD
ENDBRANCH  21  22
ENDBRANCH  18  21
ENDBRANCH   9  18
ENDBRANCH   4   7
BRANCH   1  24
ATOM     24  O   UNL     1       0.331  11.274  18.697  0.00  0.00    +0.000 OA
BRANCH  24  28
ATOM     25  C   UNL     1      -3.832  10.987  18.313  0.00  0.00    +0.000 A 
ATOM     26  C   UNL     1      -2.997  10.093  17.642  0.00  0.00    +0.000 A 
ATOM     27  C   UNL     1      -1.636  10.242  17.715  0.00  0.00    +0.000 A 
ATOM     28  C   UNL     1      -1.039  11.226  18.538  0.00  0.00    +0.000 A 
ATOM     29  C   UNL     1      -1.867  12.171  19.168  0.00  0.00    +0.000 A 
ATOM     30  C   UNL     1      -3.262  12.033  19.055  0.00  0.00    +0.000 A 
BRANCH  29  31
ATOM     31  C   UNL     1      -1.380  13.362  19.963  0.00  0.00    +0.000 C 
ATOM     32  F   UNL     1      -2.337  14.164  20.496  0.00  0.00    +0.000 F 
ATOM     33  F   UNL     1      -0.600  12.969  21.017  0.00  0.00    +0.000 F 
ATOM     34  F   UNL     1      -0.577  14.176  19.219  0.00  0.00    +0.000 F 
ENDBRANCH  29  31
BRANCH  25  36
ATOM     35  N   UNL     1      -6.409  10.706  18.169  0.00  0.00    +0.000 NA
ATOM     36  C   UNL     1      -5.249  10.835  18.233  0.00  0.00    +0.000 C 
ENDBRANCH  25  36
ENDBRANCH  24  28
ENDBRANCH   1  24
TORSDOF 10
ENDMDL
MODEL 8
REMARK VINA RESULT:      -8.7      2.663      4.295
REMARK  Name = 
REMARK  10 active torsions:
REMARK  status: ('A' for Active; 'I' for Inactive)
REMARK    1  A    between atoms: C_2  and  C_3
REMARK    2  A    between atoms: C_6  and  O_7
REMARK    3  A    between atoms: O_7  and  C_8
REMARK    4  A    between atoms: C_11  and  C_12
REMARK    5  A    between atoms: C_14  and  C_15
REMARK    6  A    between atoms: C_15  and  O_16
REMARK    7  A    between atoms: C_15  and  C_17
REMARK    8  A    between atoms: C_17  and  O_18
REMARK    9  A    between atoms: C_20  and  C_21
REMARK   10  A    between atoms: C_27  and  C_28
REMARK                            x       y       z     vdW  Elec       q    Type
REMARK                         _______ _______ _______ _____ _____    ______ ____
ROOT
ATOM      1  C   UNL     1       1.046   9.142  19.680  0.00  0.00    +0.000 A 
ATOM      2  C   UNL     1       1.401   8.080  20.508  0.00  0.00    +0.000 A 
ATOM      3  C   UNL     1       2.241   7.063  20.027  0.00  0.00    +0.000 A 
ATOM      4  C   UNL     1       2.737   7.065  18.706  0.00  0.00    +0.000 A 
ATOM      5  C   UNL     1       2.413   8.172  17.909  0.00  0.00    +0.000 A 
ATOM      6  C   UNL     1       1.554   9.179  18.376  0.00  0.00    +0.000 A 
ENDROOT
BRANCH   4   7
ATOM      7  C   UNL     1       3.498   5.921  18.144  0.00  0.00    +0.000 A 
ATOM      8  C   UNL     1       4.724   6.118  17.499  0.00  0.00    +0.000 A 
ATOM      9  C   UNL     1       5.454   5.033  16.993  0.00  0.00    +0.000 A 
ATOM     10  C   UNL     1       4.924   3.758  17.161  0.00  0.00    +0.000 A 
ATOM     11  C   UNL     1       3.711   3.630  17.827  0.00  0.00    +0.000 A 
ATOM     12  N   UNL     1       2.988   4.678  18.327  0.00  0.00    +0.000 NA
BRANCH  11  13
ATOM     13  C   UNL     1       3.146   2.256  18.024  0.00  0.00    +0.000 C 
ATOM     14  N   UNL     1       1.787   2.172  18.102  0.00  0.00    +0.000 N 
ATOM     15  O   UNL     1       3.854   1.259  18.115  0.00  0.00    +0.000 OA
ATOM     16  H   UNL     1       1.230   3.008  18.003  0.00  0.00    +0.000 HD
ATOM     17  H   UNL     1       1.352   1.267  18.212  0.00  0.00    +0.000 HD
ENDBRANCH  11  13
BRANCH   9  18
ATOM     18  C   UNL     1       6.759   5.238  16.264  0.00  0.00    +0.000 C 
BRANCH  18  19
ATOM     19  O   UNL     1       7.754   4.482  16.957  0.00  0.00    +0.000 OA
ATOM     20  H   UNL     1       7.358   3.635  17.220  0.00  0.00    +0.000 HD
ENDBRANCH  18  19
BRANCH  18  21
ATOM     21  C   UNL     1       6.686   4.856  14.772  0.00  0.00    +0.000 C 
BRANCH  21  22
ATOM     22  O   UNL     1       7.765   5.423  14.029  0.00  0.00    +0.000 OA
ATOM     23  H   UNL     1       7.485   6.300  13.712  0.00  0.00    +0.000 HD
ENDBRANCH  21  22
ENDBRANCH  18  21
ENDBRANCH   9  18
ENDBRANCH   4   7
BRANCH   1  24
ATOM     24  O   UNL     1       0.180  10.096  20.195  0.00  0.00    +0.000 OA
BRANCH  24  28
ATOM     25  C   UNL     1       0.959  14.077  19.144  0.00  0.00    +0.000 A 
ATOM     26  C   UNL     1       1.718  13.445  20.130  0.00  0.00    +0.000 A 
ATOM     27  C   UNL     1       1.407  12.167  20.518  0.00  0.00    +0.000 A 
ATOM     28  C   UNL     1       0.390  11.422  19.876  0.00  0.00    +0.000 A 
ATOM     29  C   UNL     1      -0.421  12.067  18.927  0.00  0.00    +0.000 A 
ATOM     30  C   UNL     1      -0.118  13.391  18.563  0.00  0.00    +0.000 A 
BRANCH  29  31
ATOM     31  C   UNL     1      -1.631  11.455  18.256  0.00  0.00    +0.000 C 
ATOM     32  F   UNL     1      -2.751  11.344  19.015  0.00  0.00    +0.000 F 
ATOM     33  F   UNL     1      -2.004  12.174  17.154  0.00  0.00    +0.000 F 
ATOM     34  F   UNL     1      -1.371  10.202  17.784  0.00  0.00    +0.000 F 
ENDBRANCH  29  31
BRANCH  25  36
ATOM     35  N   UNL     1       1.538  16.500  18.414  0.00  0.00    +0.000 NA
ATOM     36  C   UNL     1       1.280  15.408  18.744  0.00  0.00    +0.000 C 
ENDBRANCH  25  36
ENDBRANCH  24  28
ENDBRANCH   1  24
TORSDOF 10
ENDMDL
MODEL 9
REMARK VINA RESULT:      -8.7      4.043      9.516
REMARK  Name = 
REMARK  10 active torsions:
REMARK  status: ('A' for Active; 'I' for Inactive)
REMARK    1  A    between atoms: C_2  and  C_3
REMARK    2  A    between atoms: C_6  and  O_7
REMARK    3  A    between atoms: O_7  and  C_8
REMARK    4  A    between atoms: C_11  and  C_12
REMARK    5  A    between atoms: C_14  and  C_15
REMARK    6  A    between atoms: C_15  and  O_16
REMARK    7  A    between atoms: C_15  and  C_17
REMARK    8  A    between atoms: C_17  and  O_18
REMARK    9  A    between atoms: C_20  and  C_21
REMARK   10  A    between atoms: C_27  and  C_28
REMARK                            x       y       z     vdW  Elec       q    Type
REMARK                         _______ _______ _______ _____ _____    ______ ____
ROOT
ATOM      1  C   UNL     1       2.548   7.249  19.247  0.00  0.00    +0.000 A 
ATOM      2  C   UNL     1       2.383   7.894  18.024  0.00  0.00    +0.000 A 
ATOM      3  C   UNL     1       1.537   9.012  17.926  0.00  0.00    +0.000 A 
ATOM      4  C   UNL     1       0.823   9.507  19.038  0.00  0.00    +0.000 A 
ATOM      5  C   UNL     1       1.050   8.877  20.270  0.00  0.00    +0.000 A 
ATOM      6  C   UNL     1       1.873   7.745  20.368  0.00  0.00    +0.000 A 
ENDROOT
BRANCH   4   7
ATOM      7  C   UNL     1      -0.186  10.590  18.912  0.00  0.00    +0.000 A 
ATOM      8  C   UNL     1      -1.462  10.331  18.399  0.00  0.00    +0.000 A 
ATOM      9  C   UNL     1      -2.420  11.349  18.306  0.00  0.00    +0.000 A 
ATOM     10  C   UNL     1      -2.064  12.620  18.748  0.00  0.00    +0.000 A 
ATOM     11  C   UNL     1      -0.787  12.806  19.263  0.00  0.00    +0.000 A 
ATOM     12  N   UNL     1       0.159  11.822  19.362  0.00  0.00    +0.000 NA
BRANCH  11  13
ATOM     13  C   UNL     1      -0.407  14.168  19.756  0.00  0.00    +0.000 C 
ATOM     14  N   UNL     1      -1.365  15.134  19.648  0.00  0.00    +0.000 N 
ATOM     15  O   UNL     1       0.697  14.415  20.229  0.00  0.00    +0.000 OA
ATOM     16  H   UNL     1      -2.272  14.895  19.273  0.00  0.00    +0.000 HD
ATOM     17  H   UNL     1      -1.170  16.065  19.986  0.00  0.00    +0.000 HD
ENDBRANCH  11  13
BRANCH   9  18
ATOM     18  C   UNL     1      -3.787  11.089  17.721  0.00  0.00    +0.000 C 
BRANCH  18  19
ATOM     19  O   UNL     1      -4.566  12.268  17.926  0.00  0.00    +0.000 OA
ATOM     20  H   UNL     1      -5.429  12.000  18.284  0.00  0.00    +0.000 HD
ENDBRANCH  18  19
BRANCH  18  21
ATOM     21  C   UNL     1      -3.742  10.683  16.235  0.00  0.00    +0.000 C 
BRANCH  21  22
ATOM     22  O   UNL     1      -3.065  11.657  15.442  0.00  0.00    +0.000 OA
ATOM     23  H   UNL     1      -3.661  12.418  15.326  0.00  0.00    +0.000 HD
ENDBRANCH  21  22
ENDBRANCH  18  21
ENDBRANCH   9  18
ENDBRANCH   4   7
BRANCH   1  24
ATOM     24  O   UNL     1       3.362   6.126  19.274  0.00  0.00    +0.000 OA
BRANCH  24  28
ATOM     25  C   UNL     1       5.320   4.827  15.804  0.00  0.00    +0.000 A 
ATOM     26  C   UNL     1       5.705   6.013  16.430  0.00  0.00    +0.000 A 
ATOM     27  C   UNL     1       5.009   6.467  17.522  0.00  0.00    +0.000 A 
ATOM     28  C   UNL     1       3.962   5.713  18.101  0.00  0.00    +0.000 A 
ATOM     29  C   UNL     1       3.524   4.550  17.444  0.00  0.00    +0.000 A 
ATOM     30  C   UNL     1       4.220   4.114  16.303  0.00  0.00    +0.000 A 
BRANCH  29  31
ATOM     31  C   UNL     1       2.333   3.713  17.856  0.00  0.00    +0.000 C 
ATOM     32  F   UNL     1       1.115   4.304  17.749  0.00  0.00    +0.000 F 
ATOM     33  F   UNL     1       2.253   2.567  17.114  0.00  0.00    +0.000 F 
ATOM     34  F   UNL     1       2.433   3.287  19.148  0.00  0.00    +0.000 F 
ENDBRANCH  29  31
BRANCH  25  36
ATOM     35  N   UNL     1       6.626   3.973  13.729  0.00  0.00    +0.000 NA
ATOM     36  C   UNL     1       6.041   4.358  14.665  0.00  0.00    +0.000 C 
ENDBRANCH  25  36
ENDBRANCH  24  28
ENDBRANCH   1  24
TORSDOF 10
ENDMDL
