MODEL 1
REMARK VINA RESULT:     -10.2      0.000      0.000
REMARK  Name = 
REMARK  5 active torsions:
REMARK  status: ('A' for Active; 'I' for Inactive)
REMARK    1  A    between atoms: C_1  and  N_2
REMARK    2  A    between atoms: N_5  and  C_6
REMARK    3  A    between atoms: C_6  and  C_7
REMARK    4  A    between atoms: C_10  and  C_11
REMARK    5  A    between atoms: C_27  and  O_28
REMARK                            x       y       z     vdW  Elec       q    Type
REMARK                         _______ _______ _______ _____ _____    ______ ____
ROOT
ATOM      1  C   UNL     1       1.198   8.531  20.361  0.00  0.00    +0.000 A 
ATOM      2  C   UNL     1       0.382   8.679  21.618  0.00  0.00    +0.000 A 
ATOM      3  N   UNL     1      -0.212  10.144  21.836  0.00  0.00    +0.000 N 
ATOM      4  C   UNL     1       0.713  10.781  20.996  0.00  0.00    +0.000 A 
ATOM      5  N   UNL     1       0.862  12.114  20.965  0.00  0.00    +0.000 NA
ATOM      6  C   UNL     1       0.917  12.525  19.692  0.00  0.00    +0.000 A 
ATOM      7  N   UNL     1       1.386  11.860  18.638  0.00  0.00    +0.000 NA
ATOM      8  C   UNL     1       1.527  10.516  18.773  0.00  0.00    +0.000 A 
ATOM      9  C   UNL     1       1.191   9.874  19.936  0.00  0.00    +0.000 A 
ATOM     10  N   UNL     1      -0.293  13.206  19.440  0.00  0.00    +0.000 N 
ATOM     11  C   UNL     1      -1.266  12.113  19.151  0.00  0.00    +0.000 C 
ATOM     12  C   UNL     1      -2.353  12.148  20.164  0.00  0.00    +0.000 C 
ATOM     13  C   UNL     1      -3.667  12.367  19.466  0.00  0.00    +0.000 C 
ATOM     14  C   UNL     1      -4.442  12.990  20.546  0.00  0.00    +0.000 C 
ATOM     15  C   UNL     1      -5.829  13.573  20.289  0.00  0.00    +0.000 C 
ATOM     16  C   UNL     1      -5.961  14.373  21.570  0.00  0.00    +0.000 C 
ATOM     17  C   UNL     1      -6.777  14.290  22.802  0.00  0.00    +0.000 C 
ATOM     18  C   UNL     1      -5.605  14.008  23.976  0.00  0.00    +0.000 C 
ATOM     19  C   UNL     1      -4.223  12.774  23.990  0.00  0.00    +0.000 C 
ATOM     20  C   UNL     1      -2.523  12.387  23.259  0.00  0.00    +0.000 C 
ATOM     21  C   UNL     1      -1.203  10.965  23.040  0.00  0.00    +0.000 C 
ATOM     22  H   UNL     1      -0.424  13.556  20.383  0.00  0.00    +0.000 HD
ENDROOT
BRANCH   1  26
ATOM     23  C   UNL     1       3.973   5.053  17.915  0.00  0.00    +0.000 A 
ATOM     24  C   UNL     1       3.299   4.913  19.133  0.00  0.00    +0.000 A 
ATOM     25  C   UNL     1       2.413   6.019  19.796  0.00  0.00    +0.000 A 
ATOM     26  C   UNL     1       2.134   7.401  19.385  0.00  0.00    +0.000 A 
ATOM     27  C   UNL     1       2.881   7.538  18.179  0.00  0.00    +0.000 A 
ATOM     28  C   UNL     1       3.765   6.410  17.486  0.00  0.00    +0.000 A 
BRANCH  23  29
ATOM     29  C   UNL     1       5.036   3.993  17.156  0.00  0.00    +0.000 C 
BRANCH  29  34
ATOM     30  C   UNL     1       7.666   8.476  17.631  0.00  0.00    +0.000 C 
ATOM     31  N   UNL     1       7.758   7.056  17.274  0.00  0.00    +0.000 NA
ATOM     32  C   UNL     1       6.810   6.723  16.191  0.00  0.00    +0.000 C 
ATOM     33  C   UNL     1       6.828   5.222  15.771  0.00  0.00    +0.000 C 
ATOM     34  N   UNL     1       6.525   4.228  16.821  0.00  0.00    +0.000 NA
ATOM     35  C   UNL     1       7.440   4.647  17.987  0.00  0.00    +0.000 C 
ATOM     36  C   UNL     1       7.489   6.165  18.415  0.00  0.00    +0.000 C 
ENDBRANCH  29  34
ENDBRANCH  23  29
ENDBRANCH   1  26
BRANCH  17  37
ATOM     37  O   UNL     1      -7.754  13.272  22.665  0.00  0.00    +0.000 OA
ATOM     38  H   UNL     1      -8.239  13.412  21.834  0.00  0.00    +0.000 HD
ENDBRANCH  17  37
TORSDOF 4
ENDMDL
MODEL 2
REMARK VINA RESULT:      -9.2      2.478      3.974
REMARK  Name = 
REMARK  5 active torsions:
REMARK  status: ('A' for Active; 'I' for Inactive)
REMARK    1  A    between atoms: C_1  and  N_2
REMARK    2  A    between atoms: N_5  and  C_6
REMARK    3  A    between atoms: C_6  and  C_7
REMARK    4  A    between atoms: C_10  and  C_11
REMARK    5  A    between atoms: C_27  and  O_28
REMARK                            x       y       z     vdW  Elec       q    Type
REMARK                         _______ _______ _______ _____ _____    ______ ____
ROOT
ATOM      1  C   UNL     1       1.113  10.329  19.509  0.00  0.00    +0.000 A 
ATOM      2  C   UNL     1       1.178  11.596  20.320  0.00  0.00    +0.000 A 
ATOM      3  N   UNL     1      -0.010  12.618  20.023  0.00  0.00    +0.000 N 
ATOM      4  C   UNL     1      -0.321  12.086  18.763  0.00  0.00    +0.000 A 
ATOM      5  N   UNL     1      -1.126  12.714  17.892  0.00  0.00    +0.000 NA
ATOM      6  C   UNL     1      -1.999  11.836  17.382  0.00  0.00    +0.000 A 
ATOM      7  N   UNL     1      -1.821  10.532  17.178  0.00  0.00    +0.000 NA
ATOM      8  C   UNL     1      -0.793   9.941  17.840  0.00  0.00    +0.000 A 
ATOM      9  C   UNL     1       0.016  10.652  18.686  0.00  0.00    +0.000 A 
ATOM     10  N   UNL     1      -3.258  12.157  17.933  0.00  0.00    +0.000 N 
ATOM     11  C   UNL     1      -3.237  11.510  19.276  0.00  0.00    +0.000 C 
ATOM     12  C   UNL     1      -3.372  12.555  20.323  0.00  0.00    +0.000 C 
ATOM     13  C   UNL     1      -4.608  12.281  21.134  0.00  0.00    +0.000 C 
ATOM     14  C   UNL     1      -4.919  13.633  21.613  0.00  0.00    +0.000 C 
ATOM     15  C   UNL     1      -6.216  13.929  22.361  0.00  0.00    +0.000 C 
ATOM     16  C   UNL     1      -6.177  15.441  22.259  0.00  0.00    +0.000 C 
ATOM     17  C   UNL     1      -5.972  16.569  23.194  0.00  0.00    +0.000 C 
ATOM     18  C   UNL     1      -4.537  17.237  22.622  0.00  0.00    +0.000 C 
ATOM     19  C   UNL     1      -2.937  16.406  22.197  0.00  0.00    +0.000 C 
ATOM     20  C   UNL     1      -2.083  15.325  20.903  0.00  0.00    +0.000 C 
ATOM     21  C   UNL     1      -0.511  14.210  20.589  0.00  0.00    +0.000 C 
ATOM     22  H   UNL     1      -3.091  13.155  18.018  0.00  0.00    +0.000 HD
ENDROOT
BRANCH   1  26
ATOM     23  C   UNL     1       3.330   5.953  18.200  0.00  0.00    +0.000 A 
ATOM     24  C   UNL     1       3.222   7.123  17.439  0.00  0.00    +0.000 A 
ATOM     25  C   UNL     1       2.571   8.455  17.938  0.00  0.00    +0.000 A 
ATOM     26  C   UNL     1       1.898   8.781  19.202  0.00  0.00    +0.000 A 
ATOM     27  C   UNL     1       1.966   7.559  19.930  0.00  0.00    +0.000 A 
ATOM     28  C   UNL     1       2.648   6.206  19.439  0.00  0.00    +0.000 A 
BRANCH  23  29
ATOM     29  C   UNL     1       3.901   4.436  17.748  0.00  0.00    +0.000 C 
BRANCH  29  34
ATOM     30  C   UNL     1       1.305   2.672  21.919  0.00  0.00    +0.000 C 
ATOM     31  N   UNL     1       1.694   2.390  20.532  0.00  0.00    +0.000 NA
ATOM     32  C   UNL     1       3.164   2.422  20.381  0.00  0.00    +0.000 C 
ATOM     33  C   UNL     1       3.657   2.157  18.927  0.00  0.00    +0.000 C 
ATOM     34  N   UNL     1       3.176   3.078  17.876  0.00  0.00    +0.000 NA
ATOM     35  C   UNL     1       1.655   3.124  18.109  0.00  0.00    +0.000 C 
ATOM     36  C   UNL     1       1.110   3.343  19.574  0.00  0.00    +0.000 C 
ENDBRANCH  29  34
ENDBRANCH  23  29
ENDBRANCH   1  26
BRANCH  17  37
ATOM     37  O   UNL     1      -5.928  16.089  24.527  0.00  0.00    +0.000 OA
ATOM     38  H   UNL     1      -6.822  15.817  24.793  0.00  0.00    +0.000 HD
ENDBRANCH  17  37
TORSDOF 4
ENDMDL
MODEL 3
REMARK VINA RESULT:      -9.1      2.235      2.977
REMARK  Name = 
REMARK  5 active torsions:
REMARK  status: ('A' for Active; 'I' for Inactive)
REMARK    1  A    between atoms: C_1  and  N_2
REMARK    2  A    between atoms: N_5  and  C_6
REMARK    3  A    between atoms: C_6  and  C_7
REMARK    4  A    between atoms: C_10  and  C_11
REMARK    5  A    between atoms: C_27  and  O_28
REMARK                            x       y       z     vdW  Elec       q    Type
REMARK                         _______ _______ _______ _____ _____    ______ ____
ROOT
ATOM      1  C   UNL     1       0.921  10.517  19.956  0.00  0.00    +0.000 A 
ATOM      2  C   UNL     1       1.172  11.825  20.660  0.00  0.00    +0.000 A 
ATOM      3  N   UNL     1       0.009  12.899  20.465  0.00  0.00    +0.000 N 
ATOM      4  C   UNL     1      -0.511  12.312  19.302  0.00  0.00    +0.000 A 
ATOM      5  N   UNL     1      -1.399  12.935  18.513  0.00  0.00    +0.000 NA
ATOM      6  C   UNL     1      -2.383  12.085  18.195  0.00  0.00    +0.000 A 
ATOM      7  N   UNL     1      -2.307  10.762  18.058  0.00  0.00    +0.000 NA
ATOM      8  C   UNL     1      -1.226  10.149  18.606  0.00  0.00    +0.000 A 
ATOM      9  C   UNL     1      -0.265  10.858  19.277  0.00  0.00    +0.000 A 
ATOM     10  N   UNL     1      -3.529  12.517  18.895  0.00  0.00    +0.000 N 
ATOM     11  C   UNL     1      -3.346  11.952  20.264  0.00  0.00    +0.000 C 
ATOM     12  C   UNL     1      -3.271  13.066  21.245  0.00  0.00    +0.000 C 
ATOM     13  C   UNL     1      -4.389  12.919  22.240  0.00  0.00    +0.000 C 
ATOM     14  C   UNL     1      -4.553  14.315  22.664  0.00  0.00    +0.000 C 
ATOM     15  C   UNL     1      -5.709  14.736  23.567  0.00  0.00    +0.000 C 
ATOM     16  C   UNL     1      -5.606  16.233  23.356  0.00  0.00    +0.000 C 
ATOM     17  C   UNL     1      -5.206  17.401  24.173  0.00  0.00    +0.000 C 
ATOM     18  C   UNL     1      -3.837  17.942  23.358  0.00  0.00    +0.000 C 
ATOM     19  C   UNL     1      -2.363  16.988  22.767  0.00  0.00    +0.000 C 
ATOM     20  C   UNL     1      -1.766  15.779  21.442  0.00  0.00    +0.000 C 
ATOM     21  C   UNL     1      -0.318  14.551  20.985  0.00  0.00    +0.000 C 
ATOM     22  H   UNL     1      -3.299  13.506  18.887  0.00  0.00    +0.000 HD
ENDROOT
BRANCH   1  26
ATOM     23  C   UNL     1       2.707   5.948  18.646  0.00  0.00    +0.000 A 
ATOM     24  C   UNL     1       2.599   7.090  17.845  0.00  0.00    +0.000 A 
ATOM     25  C   UNL     1       2.089   8.484  18.340  0.00  0.00    +0.000 A 
ATOM     26  C   UNL     1       1.570   8.908  19.648  0.00  0.00    +0.000 A 
ATOM     27  C   UNL     1       1.631   7.714  20.423  0.00  0.00    +0.000 A 
ATOM     28  C   UNL     1       2.171   6.299  19.933  0.00  0.00    +0.000 A 
BRANCH  23  29
ATOM     29  C   UNL     1       3.130   4.379  18.214  0.00  0.00    +0.000 C 
BRANCH  29  34
ATOM     30  C   UNL     1       7.486   7.166  17.505  0.00  0.00    +0.000 C 
ATOM     31  N   UNL     1       6.921   5.815  17.607  0.00  0.00    +0.000 NA
ATOM     32  C   UNL     1       5.854   5.614  16.605  0.00  0.00    +0.000 C 
ATOM     33  C   UNL     1       5.184   4.208  16.666  0.00  0.00    +0.000 C 
ATOM     34  N   UNL     1       4.546   3.824  17.942  0.00  0.00    +0.000 NA
ATOM     35  C   UNL     1       5.627   4.138  18.993  0.00  0.00    +0.000 C 
ATOM     36  C   UNL     1       6.365   5.532  18.940  0.00  0.00    +0.000 C 
ENDBRANCH  29  34
ENDBRANCH  23  29
ENDBRANCH   1  26
BRANCH  17  37
ATOM     37  O   UNL     1      -4.993  17.001  25.515  0.00  0.00    +0.000 OA
ATOM     38  H   UNL     1      -4.596  16.114  25.520  0.00  0.00    +0.000 HD
ENDBRANCH  17  37
TORSDOF 4
ENDMDL
MODEL 4
REMARK VINA RESULT:      -9.1      2.223      3.337
REMARK  Name = 
REMARK  5 active torsions:
REMARK  status: ('A' for Active; 'I' for Inactive)
REMARK    1  A    between atoms: C_1  and  N_2
REMARK    2  A    between atoms: N_5  and  C_6
REMARK    3  A    between atoms: C_6  and  C_7
REMARK    4  A    between atoms: C_10  and  C_11
REMARK    5  A    between atoms: C_27  and  O_28
REMARK                            x       y       z     vdW  Elec       q    Type
REMARK                         _______ _______ _______ _____ _____    ______ ____
ROOT
ATOM      1  C   UNL     1       0.809   9.593  20.942  0.00  0.00    +0.000 A 
ATOM      2  C   UNL     1       0.234  10.107  22.236  0.00  0.00    +0.000 A 
ATOM      3  N   UNL     1      -0.428  11.554  22.121  0.00  0.00    +0.000 N 
ATOM      4  C   UNL     1       0.267  11.918  20.958  0.00  0.00    +0.000 A 
ATOM      5  N   UNL     1       0.297  13.178  20.498  0.00  0.00    +0.000 NA
ATOM      6  C   UNL     1       0.077  13.174  19.177  0.00  0.00    +0.000 A 
ATOM      7  N   UNL     1       0.393  12.224  18.299  0.00  0.00    +0.000 NA
ATOM      8  C   UNL     1       0.668  10.992  18.800  0.00  0.00    +0.000 A 
ATOM      9  C   UNL     1       0.611  10.737  20.144  0.00  0.00    +0.000 A 
ATOM     10  N   UNL     1      -1.211  13.718  18.984  0.00  0.00    +0.000 N 
ATOM     11  C   UNL     1      -2.127  12.569  19.243  0.00  0.00    +0.000 C 
ATOM     12  C   UNL     1      -3.003  12.895  20.398  0.00  0.00    +0.000 C 
ATOM     13  C   UNL     1      -4.438  12.859  19.951  0.00  0.00    +0.000 C 
ATOM     14  C   UNL     1      -5.046  13.770  20.928  0.00  0.00    +0.000 C 
ATOM     15  C   UNL     1      -6.500  14.215  20.797  0.00  0.00    +0.000 C 
ATOM     16  C   UNL     1      -6.454  15.371  21.777  0.00  0.00    +0.000 C 
ATOM     17  C   UNL     1      -7.015  15.658  23.116  0.00  0.00    +0.000 C 
ATOM     18  C   UNL     1      -5.624  15.780  24.055  0.00  0.00    +0.000 C 
ATOM     19  C   UNL     1      -4.166  14.640  24.157  0.00  0.00    +0.000 C 
ATOM     20  C   UNL     1      -2.608  14.081  23.245  0.00  0.00    +0.000 C 
ATOM     21  C   UNL     1      -1.239  12.688  23.198  0.00  0.00    +0.000 C 
ATOM     22  H   UNL     1      -1.190  14.341  19.785  0.00  0.00    +0.000 HD
ENDROOT
BRANCH   1  26
ATOM     23  C   UNL     1       3.056   5.839  18.366  0.00  0.00    +0.000 A 
ATOM     24  C   UNL     1       2.718   7.116  17.904  0.00  0.00    +0.000 A 
ATOM     25  C   UNL     1       2.077   8.242  18.780  0.00  0.00    +0.000 A 
ATOM     26  C   UNL     1       1.635   8.235  20.181  0.00  0.00    +0.000 A 
ATOM     27  C   UNL     1       1.931   6.908  20.608  0.00  0.00    +0.000 A 
ATOM     28  C   UNL     1       2.605   5.765  19.729  0.00  0.00    +0.000 A 
BRANCH  23  29
ATOM     29  C   UNL     1       3.642   4.515  17.509  0.00  0.00    +0.000 C 
BRANCH  29  34
ATOM     30  C   UNL     1       1.354   2.510  21.751  0.00  0.00    +0.000 C 
ATOM     31  N   UNL     1       1.968   2.205  20.452  0.00  0.00    +0.000 NA
ATOM     32  C   UNL     1       3.346   2.734  20.385  0.00  0.00    +0.000 C 
ATOM     33  C   UNL     1       4.059   2.472  19.024  0.00  0.00    +0.000 C 
ATOM     34  N   UNL     1       3.413   3.018  17.812  0.00  0.00    +0.000 NA
ATOM     35  C   UNL     1       1.951   2.553  17.945  0.00  0.00    +0.000 C 
ATOM     36  C   UNL     1       1.204   2.755  19.321  0.00  0.00    +0.000 C 
ENDBRANCH  29  34
ENDBRANCH  23  29
ENDBRANCH   1  26
BRANCH  17  37
ATOM     37  O   UNL     1      -7.912  14.629  23.494  0.00  0.00    +0.000 OA
ATOM     38  H   UNL     1      -7.776  13.863  22.911  0.00  0.00    +0.000 HD
ENDBRANCH  17  37
TORSDOF 4
ENDMDL
MODEL 5
REMARK VINA RESULT:      -9.1      1.900      2.667
REMARK  Name = 
REMARK  5 active torsions:
REMARK  status: ('A' for Active; 'I' for Inactive)
REMARK    1  A    between atoms: C_1  and  N_2
REMARK    2  A    between atoms: N_5  and  C_6
REMARK    3  A    between atoms: C_6  and  C_7
REMARK    4  A    between atoms: C_10  and  C_11
REMARK    5  A    between atoms: C_27  and  O_28
REMARK                            x       y       z     vdW  Elec       q    Type
REMARK                         _______ _______ _______ _____ _____    ______ ____
ROOT
ATOM      1  C   UNL     1       0.721  10.245  19.859  0.00  0.00    +0.000 A 
ATOM      2  C   UNL     1       0.735  11.527  20.651  0.00  0.00    +0.000 A 
ATOM      3  N   UNL     1      -0.378  12.578  20.202  0.00  0.00    +0.000 N 
ATOM      4  C   UNL     1      -0.561  12.030  18.924  0.00  0.00    +0.000 A 
ATOM      5  N   UNL     1      -1.240  12.663  17.956  0.00  0.00    +0.000 NA
ATOM      6  C   UNL     1      -2.077  11.802  17.365  0.00  0.00    +0.000 A 
ATOM      7  N   UNL     1      -1.920  10.489  17.205  0.00  0.00    +0.000 NA
ATOM      8  C   UNL     1      -0.994   9.881  17.990  0.00  0.00    +0.000 A 
ATOM      9  C   UNL     1      -0.263  10.585  18.911  0.00  0.00    +0.000 A 
ATOM     10  N   UNL     1      -3.380  12.172  17.762  0.00  0.00    +0.000 N 
ATOM     11  C   UNL     1      -3.533  11.553  19.110  0.00  0.00    +0.000 C 
ATOM     12  C   UNL     1      -3.752  12.623  20.117  0.00  0.00    +0.000 C 
ATOM     13  C   UNL     1      -5.082  12.404  20.785  0.00  0.00    +0.000 C 
ATOM     14  C   UNL     1      -5.400  13.775  21.202  0.00  0.00    +0.000 C 
ATOM     15  C   UNL     1      -6.764  14.124  21.791  0.00  0.00    +0.000 C 
ATOM     16  C   UNL     1      -6.665  15.632  21.668  0.00  0.00    +0.000 C 
ATOM     17  C   UNL     1      -6.531  16.773  22.601  0.00  0.00    +0.000 C 
ATOM     18  C   UNL     1      -5.020  17.385  22.186  0.00  0.00    +0.000 C 
ATOM     19  C   UNL     1      -3.409  16.498  21.960  0.00  0.00    +0.000 C 
ATOM     20  C   UNL     1      -2.449  15.364  20.792  0.00  0.00    +0.000 C 
ATOM     21  C   UNL     1      -0.888  14.196  20.679  0.00  0.00    +0.000 C 
ATOM     22  H   UNL     1      -3.192  13.166  17.849  0.00  0.00    +0.000 HD
ENDROOT
BRANCH   1  26
ATOM     23  C   UNL     1       2.886   5.757  18.887  0.00  0.00    +0.000 A 
ATOM     24  C   UNL     1       2.809   6.874  18.047  0.00  0.00    +0.000 A 
ATOM     25  C   UNL     1       2.173   8.247  18.443  0.00  0.00    +0.000 A 
ATOM     26  C   UNL     1       1.486   8.669  19.672  0.00  0.00    +0.000 A 
ATOM     27  C   UNL     1       1.523   7.498  20.482  0.00  0.00    +0.000 A 
ATOM     28  C   UNL     1       2.189   6.105  20.095  0.00  0.00    +0.000 A 
BRANCH  23  29
ATOM     29  C   UNL     1       3.439   4.205  18.549  0.00  0.00    +0.000 C 
BRANCH  29  34
ATOM     30  C   UNL     1       7.443   7.362  17.429  0.00  0.00    +0.000 C 
ATOM     31  N   UNL     1       7.017   5.968  17.603  0.00  0.00    +0.000 NA
ATOM     32  C   UNL     1       5.896   5.643  16.697  0.00  0.00    +0.000 C 
ATOM     33  C   UNL     1       5.369   4.183  16.840  0.00  0.00    +0.000 C 
ATOM     34  N   UNL     1       4.874   3.776  18.172  0.00  0.00    +0.000 NA
ATOM     35  C   UNL     1       6.002   4.216  19.123  0.00  0.00    +0.000 C 
ATOM     36  C   UNL     1       6.599   5.670  18.983  0.00  0.00    +0.000 C 
ENDBRANCH  29  34
ENDBRANCH  23  29
ENDBRANCH   1  26
BRANCH  17  37
ATOM     37  O   UNL     1      -6.654  16.320  23.938  0.00  0.00    +0.000 OA
ATOM     38  H   UNL     1      -7.588  16.374  24.204  0.00  0.00    +0.000 HD
ENDBRANCH  17  37
TORSDOF 4
ENDMDL
MODEL 6
REMARK VINA RESULT:      -8.7      2.149      3.174
REMARK  Name = 
REMARK  5 active torsions:
REMARK  status: ('A' for Active; 'I' for Inactive)
REMARK    1  A    between atoms: C_1  and  N_2
REMARK    2  A    between atoms: N_5  and  C_6
REMARK    3  A    between atoms: C_6  and  C_7
REMARK    4  A    between atoms: C_10  and  C_11
REMARK    5  A    between atoms: C_27  and  O_28
REMARK                            x       y       z     vdW  Elec       q    Type
REMARK                         _______ _______ _______ _____ _____    ______ ____
ROOT
ATOM      1  C   UNL     1       0.725  10.249  20.104  0.00  0.00    +0.000 A 
ATOM      2  C   UNL     1       0.879  11.615  20.719  0.00  0.00    +0.000 A 
ATOM      3  N   UNL     1      -0.174  12.689  20.187  0.00  0.00    +0.000 N 
ATOM      4  C   UNL     1      -0.468  11.999  19.002  0.00  0.00    +0.000 A 
ATOM      5  N   UNL     1      -1.149  12.558  17.990  0.00  0.00    +0.000 NA
ATOM      6  C   UNL     1      -2.080  11.701  17.555  0.00  0.00    +0.000 A 
ATOM      7  N   UNL     1      -2.032  10.370  17.561  0.00  0.00    +0.000 NA
ATOM      8  C   UNL     1      -1.112   9.793  18.377  0.00  0.00    +0.000 A 
ATOM      9  C   UNL     1      -0.281  10.545  19.164  0.00  0.00    +0.000 A 
ATOM     10  N   UNL     1      -3.327  12.224  17.958  0.00  0.00    +0.000 N 
ATOM     11  C   UNL     1      -3.452  11.796  19.381  0.00  0.00    +0.000 C 
ATOM     12  C   UNL     1      -3.535  13.000  20.248  0.00  0.00    +0.000 C 
ATOM     13  C   UNL     1      -4.838  12.977  20.997  0.00  0.00    +0.000 C 
ATOM     14  C   UNL     1      -5.029  14.411  21.246  0.00  0.00    +0.000 C 
ATOM     15  C   UNL     1      -6.328  14.943  21.844  0.00  0.00    +0.000 C 
ATOM     16  C   UNL     1      -6.122  16.410  21.521  0.00  0.00    +0.000 C 
ATOM     17  C   UNL     1      -5.851  17.645  22.290  0.00  0.00    +0.000 C 
ATOM     18  C   UNL     1      -4.323  18.074  21.731  0.00  0.00    +0.000 C 
ATOM     19  C   UNL     1      -2.798  17.035  21.552  0.00  0.00    +0.000 C 
ATOM     20  C   UNL     1      -1.992  15.688  20.500  0.00  0.00    +0.000 C 
ATOM     21  C   UNL     1      -0.533  14.390  20.471  0.00  0.00    +0.000 C 
ATOM     22  H   UNL     1      -3.060  13.202  17.905  0.00  0.00    +0.000 HD
ENDROOT
BRANCH   1  26
ATOM     23  C   UNL     1       2.519   5.524  19.628  0.00  0.00    +0.000 A 
ATOM     24  C   UNL     1       2.552   6.554  18.682  0.00  0.00    +0.000 A 
ATOM     25  C   UNL     1       2.027   8.008  18.927  0.00  0.00    +0.000 A 
ATOM     26  C   UNL     1       1.357   8.604  20.090  0.00  0.00    +0.000 A 
ATOM     27  C   UNL     1       1.280   7.520  21.011  0.00  0.00    +0.000 A 
ATOM     28  C   UNL     1       1.833   6.045  20.779  0.00  0.00    +0.000 A 
BRANCH  23  29
ATOM     29  C   UNL     1       2.945   3.905  19.457  0.00  0.00    +0.000 C 
BRANCH  29  34
ATOM     30  C   UNL     1       5.766   5.733  15.463  0.00  0.00    +0.000 C 
ATOM     31  N   UNL     1       5.696   4.728  16.531  0.00  0.00    +0.000 NA
ATOM     32  C   UNL     1       4.461   3.925  16.418  0.00  0.00    +0.000 C 
ATOM     33  C   UNL     1       4.299   2.850  17.534  0.00  0.00    +0.000 C 
ATOM     34  N   UNL     1       4.279   3.330  18.931  0.00  0.00    +0.000 NA
ATOM     35  C   UNL     1       5.510   4.253  19.011  0.00  0.00    +0.000 C 
ATOM     36  C   UNL     1       5.739   5.325  17.876  0.00  0.00    +0.000 C 
ENDBRANCH  29  34
ENDBRANCH  23  29
ENDBRANCH   1  26
BRANCH  17  37
ATOM     37  O   UNL     1      -5.934  17.377  23.679  0.00  0.00    +0.000 OA
ATOM     38  H   UNL     1      -6.803  16.985  23.872  0.00  0.00    +0.000 HD
ENDBRANCH  17  37
TORSDOF 4
ENDMDL
MODEL 7
REMARK VINA RESULT:      -8.7      2.087      2.678
REMARK  Name = 
REMARK  5 active torsions:
REMARK  status: ('A' for Active; 'I' for Inactive)
REMARK    1  A    between atoms: C_1  and  N_2
REMARK    2  A    between atoms: N_5  and  C_6
REMARK    3  A    between atoms: C_6  and  C_7
REMARK    4  A    between atoms: C_10  and  C_11
REMARK    5  A    between atoms: C_27  and  O_28
REMARK                            x       y       z     vdW  Elec       q    Type
REMARK                         _______ _______ _______ _____ _____    ______ ____
ROOT
ATOM      1  C   UNL     1       1.205  10.320  19.300  0.00  0.00    +0.000 A 
ATOM      2  C   UNL     1       1.448  11.600  20.055  0.00  0.00    +0.000 A 
ATOM      3  N   UNL     1       0.271  12.668  19.917  0.00  0.00    +0.000 N 
ATOM      4  C   UNL     1      -0.254  12.123  18.736  0.00  0.00    +0.000 A 
ATOM      5  N   UNL     1      -1.158  12.768  17.983  0.00  0.00    +0.000 NA
ATOM      6  C   UNL     1      -2.136  11.919  17.639  0.00  0.00    +0.000 A 
ATOM      7  N   UNL     1      -2.045  10.604  17.446  0.00  0.00    +0.000 NA
ATOM      8  C   UNL     1      -0.952   9.983  17.957  0.00  0.00    +0.000 A 
ATOM      9  C   UNL     1       0.008  10.675  18.648  0.00  0.00    +0.000 A 
ATOM     10  N   UNL     1      -3.279  12.308  18.369  0.00  0.00    +0.000 N 
ATOM     11  C   UNL     1      -3.075  11.689  19.711  0.00  0.00    +0.000 C 
ATOM     12  C   UNL     1      -3.003  12.762  20.736  0.00  0.00    +0.000 C 
ATOM     13  C   UNL     1      -4.108  12.560  21.736  0.00  0.00    +0.000 C 
ATOM     14  C   UNL     1      -4.284  13.935  22.220  0.00  0.00    +0.000 C 
ATOM     15  C   UNL     1      -5.436  14.304  23.151  0.00  0.00    +0.000 C 
ATOM     16  C   UNL     1      -5.352  15.810  23.002  0.00  0.00    +0.000 C 
ATOM     17  C   UNL     1      -4.957  16.948  23.862  0.00  0.00    +0.000 C 
ATOM     18  C   UNL     1      -3.603  17.539  23.057  0.00  0.00    +0.000 C 
ATOM     19  C   UNL     1      -2.124  16.628  22.412  0.00  0.00    +0.000 C 
ATOM     20  C   UNL     1      -1.527  15.482  21.032  0.00  0.00    +0.000 C 
ATOM     21  C   UNL     1      -0.070  14.292  20.509  0.00  0.00    +0.000 C 
ATOM     22  H   UNL     1      -3.061  13.299  18.400  0.00  0.00    +0.000 HD
ENDROOT
BRANCH   1  26
ATOM     23  C   UNL     1       3.172   5.688  18.629  0.00  0.00    +0.000 A 
ATOM     24  C   UNL     1       2.540   6.195  19.770  0.00  0.00    +0.000 A 
ATOM     25  C   UNL     1       1.905   7.621  19.878  0.00  0.00    +0.000 A 
ATOM     26  C   UNL     1       1.870   8.733  18.918  0.00  0.00    +0.000 A 
ATOM     27  C   UNL     1       2.573   8.213  17.794  0.00  0.00    +0.000 A 
ATOM     28  C   UNL     1       3.200   6.755  17.667  0.00  0.00    +0.000 A 
BRANCH  23  29
ATOM     29  C   UNL     1       3.984   4.229  18.421  0.00  0.00    +0.000 C 
BRANCH  29  34
ATOM     30  C   UNL     1       7.496   7.952  17.395  0.00  0.00    +0.000 C 
ATOM     31  N   UNL     1       7.260   6.506  17.480  0.00  0.00    +0.000 NA
ATOM     32  C   UNL     1       6.150   6.101  16.593  0.00  0.00    +0.000 C 
ATOM     33  C   UNL     1       5.820   4.578  16.646  0.00  0.00    +0.000 C 
ATOM     34  N   UNL     1       5.444   4.018  17.960  0.00  0.00    +0.000 NA
ATOM     35  C   UNL     1       6.548   4.535  18.900  0.00  0.00    +0.000 C 
ATOM     36  C   UNL     1       6.948   6.061  18.847  0.00  0.00    +0.000 C 
ENDBRANCH  29  34
ENDBRANCH  23  29
ENDBRANCH   1  26
BRANCH  17  37
ATOM     37  O   UNL     1      -4.725  16.495  25.185  0.00  0.00    +0.000 OA
ATOM     38  H   UNL     1      -4.682  17.263  25.778  0.00  0.00    +0.000 HD
ENDBRANCH  17  37
TORSDOF 4
ENDMDL
MODEL 8
REMARK VINA RESULT:      -8.6      2.736      3.933
REMARK  Name = 
REMARK  5 active torsions:
REMARK  status: ('A' for Active; 'I' for Inactive)
REMARK    1  A    between atoms: C_1  and  N_2
REMARK    2  A    between atoms: N_5  and  C_6
REMARK    3  A    between atoms: C_6  and  C_7
REMARK    4  A    between atoms: C_10  and  C_11
REMARK    5  A    between atoms: C_27  and  O_28
REMARK                            x       y       z     vdW  Elec       q    Type
REMARK                         _______ _______ _______ _____ _____    ______ ____
ROOT
ATOM      1  C   UNL     1       0.245  10.764  21.082  0.00  0.00    +0.000 A 
ATOM      2  C   UNL     1      -0.682  11.020  22.242  0.00  0.00    +0.000 A 
ATOM      3  N   UNL     1      -0.884  12.566  22.582  0.00  0.00    +0.000 N 
ATOM      4  C   UNL     1       0.295  12.988  21.950  0.00  0.00    +0.000 A 
ATOM      5  N   UNL     1       0.803  14.219  22.116  0.00  0.00    +0.000 NA
ATOM      6  C   UNL     1       1.158  14.716  20.925  0.00  0.00    +0.000 A 
ATOM      7  N   UNL     1       1.585  14.048  19.854  0.00  0.00    +0.000 NA
ATOM      8  C   UNL     1       1.335  12.713  19.824  0.00  0.00    +0.000 A 
ATOM      9  C   UNL     1       0.665  12.087  20.843  0.00  0.00    +0.000 A 
ATOM     10  N   UNL     1       0.231  15.736  20.623  0.00  0.00    +0.000 N 
ATOM     11  C   UNL     1      -0.946  15.000  20.078  0.00  0.00    +0.000 C 
ATOM     12  C   UNL     1      -2.123  15.249  20.950  0.00  0.00    +0.000 C 
ATOM     13  C   UNL     1      -3.208  15.900  20.137  0.00  0.00    +0.000 C 
ATOM     14  C   UNL     1      -3.940  16.613  21.190  0.00  0.00    +0.000 C 
ATOM     15  C   UNL     1      -5.062  17.590  20.850  0.00  0.00    +0.000 C 
ATOM     16  C   UNL     1      -5.165  18.269  22.202  0.00  0.00    +0.000 C 
ATOM     17  C   UNL     1      -6.150  18.307  23.306  0.00  0.00    +0.000 C 
ATOM     18  C   UNL     1      -5.290  17.591  24.562  0.00  0.00    +0.000 C 
ATOM     19  C   UNL     1      -4.312  16.017  24.576  0.00  0.00    +0.000 C 
ATOM     20  C   UNL     1      -2.690  15.231  24.007  0.00  0.00    +0.000 C 
ATOM     21  C   UNL     1      -1.786  13.518  23.758  0.00  0.00    +0.000 C 
ATOM     22  H   UNL     1       0.058  16.018  21.583  0.00  0.00    +0.000 HD
ENDROOT
BRANCH   1  26
ATOM     23  C   UNL     1       2.538   7.000  18.563  0.00  0.00    +0.000 A 
ATOM     24  C   UNL     1       2.209   7.048  19.922  0.00  0.00    +0.000 A 
ATOM     25  C   UNL     1       1.446   8.226  20.615  0.00  0.00    +0.000 A 
ATOM     26  C   UNL     1       0.977   9.512  20.082  0.00  0.00    +0.000 A 
ATOM     27  C   UNL     1       1.380   9.463  18.716  0.00  0.00    +0.000 A 
ATOM     28  C   UNL     1       2.134   8.259  17.999  0.00  0.00    +0.000 A 
BRANCH  23  29
ATOM     29  C   UNL     1       3.443   5.855  17.726  0.00  0.00    +0.000 C 
BRANCH  29  34
ATOM     30  C   UNL     1       1.554   2.824  21.532  0.00  0.00    +0.000 C 
ATOM     31  N   UNL     1       2.021   2.864  20.141  0.00  0.00    +0.000 NA
ATOM     32  C   UNL     1       3.399   3.393  20.064  0.00  0.00    +0.000 C 
ATOM     33  C   UNL     1       3.959   3.491  18.613  0.00  0.00    +0.000 C 
ATOM     34  N   UNL     1       3.206   4.330  17.658  0.00  0.00    +0.000 NA
ATOM     35  C   UNL     1       1.754   3.847  17.823  0.00  0.00    +0.000 C 
ATOM     36  C   UNL     1       1.160   3.687  19.277  0.00  0.00    +0.000 C 
ENDBRANCH  29  34
ENDBRANCH  23  29
ENDBRANCH   1  26
BRANCH  17  37
ATOM     37  O   UNL     1      -7.333  17.630  22.919  0.00  0.00    +0.000 OA
ATOM     38  H   UNL     1      -7.646  17.091  23.665  0.00  0.00    +0.000 HD
ENDBRANCH  17  37
TORSDOF 4
ENDMDL
MODEL 9
REMARK VINA RESULT:      -8.6      2.896      4.409
REMARK  Name = 
REMARK  5 active torsions:
REMARK  status: ('A' for Active; 'I' for Inactive)
REMARK    1  A    between atoms: C_1  and  N_2
REMARK    2  A    between atoms: N_5  and  C_6
REMARK    3  A    between atoms: C_6  and  C_7
REMARK    4  A    between atoms: C_10  and  C_11
REMARK    5  A    between atoms: C_27  and  O_28
REMARK                            x       y       z     vdW  Elec       q    Type
REMARK                         _______ _______ _______ _____ _____    ______ ____
ROOT
ATOM      1  C   UNL     1       1.443  10.696  18.860  0.00  0.00    +0.000 A 
ATOM      2  C   UNL     1       1.790  12.089  19.318  0.00  0.00    +0.000 A 
ATOM      3  N   UNL     1       0.530  13.057  19.463  0.00  0.00    +0.000 N 
ATOM      4  C   UNL     1      -0.300  12.310  18.615  0.00  0.00    +0.000 A 
ATOM      5  N   UNL     1      -1.466  12.781  18.146  0.00  0.00    +0.000 NA
ATOM      6  C   UNL     1      -2.408  11.838  18.271  0.00  0.00    +0.000 A 
ATOM      7  N   UNL     1      -2.251  10.516  18.225  0.00  0.00    +0.000 NA
ATOM      8  C   UNL     1      -0.992  10.040  18.400  0.00  0.00    +0.000 A 
ATOM      9  C   UNL     1       0.066  10.881  18.623  0.00  0.00    +0.000 A 
ATOM     10  N   UNL     1      -3.275  12.270  19.296  0.00  0.00    +0.000 N 
ATOM     11  C   UNL     1      -2.572  11.877  20.551  0.00  0.00    +0.000 C 
ATOM     12  C   UNL     1      -2.272  13.096  21.345  0.00  0.00    +0.000 C 
ATOM     13  C   UNL     1      -2.952  12.990  22.682  0.00  0.00    +0.000 C 
ATOM     14  C   UNL     1      -3.098  14.411  23.021  0.00  0.00    +0.000 C 
ATOM     15  C   UNL     1      -3.904  14.855  24.238  0.00  0.00    +0.000 C 
ATOM     16  C   UNL     1      -4.031  16.323  23.882  0.00  0.00    +0.000 C 
ATOM     17  C   UNL     1      -3.493  17.599  24.403  0.00  0.00    +0.000 C 
ATOM     18  C   UNL     1      -2.555  18.132  23.111  0.00  0.00    +0.000 C 
ATOM     19  C   UNL     1      -1.290  17.216  22.114  0.00  0.00    +0.000 C 
ATOM     20  C   UNL     1      -1.074  15.907  20.768  0.00  0.00    +0.000 C 
ATOM     21  C   UNL     1       0.240  14.731  19.928  0.00  0.00    +0.000 C 
ATOM     22  H   UNL     1      -3.163  13.265  19.125  0.00  0.00    +0.000 HD
ENDROOT
BRANCH   1  26
ATOM     23  C   UNL     1       3.366   6.048  18.178  0.00  0.00    +0.000 A 
ATOM     24  C   UNL     1       2.669   6.534  19.289  0.00  0.00    +0.000 A 
ATOM     25  C   UNL     1       2.054   7.969  19.400  0.00  0.00    +0.000 A 
ATOM     26  C   UNL     1       2.102   9.109  18.474  0.00  0.00    +0.000 A 
ATOM     27  C   UNL     1       2.870   8.608  17.383  0.00  0.00    +0.000 A 
ATOM     28  C   UNL     1       3.477   7.143  17.253  0.00  0.00    +0.000 A 
BRANCH  23  29
ATOM     29  C   UNL     1       4.164   4.580  17.979  0.00  0.00    +0.000 C 
BRANCH  29  34
ATOM     30  C   UNL     1       1.198   2.695  21.839  0.00  0.00    +0.000 C 
ATOM     31  N   UNL     1       1.801   2.410  20.531  0.00  0.00    +0.000 NA
ATOM     32  C   UNL     1       3.267   2.587  20.578  0.00  0.00    +0.000 C 
ATOM     33  C   UNL     1       3.981   2.327  19.218  0.00  0.00    +0.000 C 
ATOM     34  N   UNL     1       3.563   3.160  18.071  0.00  0.00    +0.000 NA
ATOM     35  C   UNL     1       2.027   3.057  18.094  0.00  0.00    +0.000 C 
ATOM     36  C   UNL     1       1.265   3.266  19.460  0.00  0.00    +0.000 C 
ENDBRANCH  29  34
ENDBRANCH  23  29
ENDBRANCH   1  26
BRANCH  17  37
ATOM     37  O   UNL     1      -2.786  17.367  25.609  0.00  0.00    +0.000 OA
ATOM     38  H   UNL     1      -2.071  16.732  25.438  0.00  0.00    +0.000 HD
ENDBRANCH  17  37
TORSDOF 4
ENDMDL
