MODEL 1
REMARK VINA RESULT:      -7.3      0.000      0.000
REMARK  Name = 
REMARK  6 active torsions:
REMARK  status: ('A' for Active; 'I' for Inactive)
REMARK    1  A    between atoms: C_1  and  C_2
REMARK    2  A    between atoms: N_8  and  C_9
REMARK    3  A    between atoms: N_12  and  C_13
REMARK    4  A    between atoms: C_13  and  C_14
REMARK    5  A    between atoms: C_14  and  O_15
REMARK    6  A    between atoms: O_15  and  C_16
REMARK                            x       y       z     vdW  Elec       q    Type
REMARK                         _______ _______ _______ _____ _____    ______ ____
ROOT
ATOM      1  C   UNL     1       1.904   2.860  21.057  0.00  0.00    +0.000 C 
ATOM      2  C   UNL     1       2.305   4.171  20.458  0.00  0.00    +0.000 A 
ATOM      3  C   UNL     1       1.433   5.268  20.624  0.00  0.00    +0.000 A 
ATOM      4  C   UNL     1       1.722   6.537  20.100  0.00  0.00    +0.000 A 
ATOM      5  C   UNL     1       2.902   6.760  19.396  0.00  0.00    +0.000 A 
ATOM      6  C   UNL     1       3.770   5.697  19.237  0.00  0.00    +0.000 A 
ATOM      7  C   UNL     1       3.483   4.396  19.750  0.00  0.00    +0.000 A 
ATOM      8  N   UNL     1       4.560   3.580  19.381  0.00  0.00    +0.000 N 
ATOM      9  C   UNL     1       4.738   2.182  19.680  0.00  0.00    +0.000 C 
ATOM     10  C   UNL     1       5.487   4.341  18.662  0.00  0.00    +0.000 A 
ATOM     11  N   UNL     1       6.585   3.943  18.117  0.00  0.00    +0.000 NA
ATOM     12  N   UNL     1       5.013   5.644  18.612  0.00  0.00    +0.000 N 
ATOM     13  H   UNL     1       6.708   2.947  18.295  0.00  0.00    +0.000 HD
ENDROOT
BRANCH  12  14
ATOM     14  C   UNL     1       5.652   6.735  17.899  0.00  0.00    +0.000 C 
BRANCH  14  15
ATOM     15  C   UNL     1       5.510   6.548  16.387  0.00  0.00    +0.000 C 
BRANCH  15  16
ATOM     16  O   UNL     1       6.723   6.027  15.823  0.00  0.00    +0.000 OA
BRANCH  16  17
ATOM     17  C   UNL     1       6.551   5.200  14.742  0.00  0.00    +0.000 A 
ATOM     18  C   UNL     1       5.407   4.399  14.754  0.00  0.00    +0.000 A 
ATOM     19  C   UNL     1       5.162   3.497  13.713  0.00  0.00    +0.000 A 
ATOM     20  C   UNL     1       6.054   3.407  12.648  0.00  0.00    +0.000 A 
ATOM     21 CL   UNL     1       5.775   2.281  11.377  0.00  0.00    +0.000 Cl
ATOM     22  C   UNL     1       7.177   4.228  12.605  0.00  0.00    +0.000 A 
ATOM     23  C   UNL     1       7.421   5.127  13.647  0.00  0.00    +0.000 A 
ENDBRANCH  16  17
ENDBRANCH  15  16
ENDBRANCH  14  15
ENDBRANCH  12  14
TORSDOF 4
ENDMDL
MODEL 2
REMARK VINA RESULT:      -7.0      3.049      4.370
REMARK  Name = 
REMARK  6 active torsions:
REMARK  status: ('A' for Active; 'I' for Inactive)
REMARK    1  A    between atoms: C_1  and  C_2
REMARK    2  A    between atoms: N_8  and  C_9
REMARK    3  A    between atoms: N_12  and  C_13
REMARK    4  A    between atoms: C_13  and  C_14
REMARK    5  A    between atoms: C_14  and  O_15
REMARK    6  A    between atoms: O_15  and  C_16
REMARK                            x       y       z     vdW  Elec       q    Type
REMARK                         _______ _______ _______ _____ _____    ______ ____
ROOT
ATOM      1  C   UNL     1       1.595   5.924  20.837  0.00  0.00    +0.000 C 
ATOM      2  C   UNL     1       2.326   6.101  19.543  0.00  0.00    +0.000 A 
ATOM      3  C   UNL     1       2.391   7.399  18.993  0.00  0.00    +0.000 A 
ATOM      4  C   UNL     1       3.055   7.665  17.786  0.00  0.00    +0.000 A 
ATOM      5  C   UNL     1       3.687   6.642  17.085  0.00  0.00    +0.000 A 
ATOM      6  C   UNL     1       3.639   5.369  17.619  0.00  0.00    +0.000 A 
ATOM      7  C   UNL     1       2.956   5.079  18.838  0.00  0.00    +0.000 A 
ATOM      8  N   UNL     1       3.097   3.701  19.051  0.00  0.00    +0.000 N 
ATOM      9  C   UNL     1       2.588   2.934  20.159  0.00  0.00    +0.000 C 
ATOM     10  C   UNL     1       3.840   3.148  18.003  0.00  0.00    +0.000 A 
ATOM     11  N   UNL     1       4.146   1.910  17.816  0.00  0.00    +0.000 NA
ATOM     12  N   UNL     1       4.201   4.183  17.151  0.00  0.00    +0.000 N 
ATOM     13  H   UNL     1       3.765   1.351  18.579  0.00  0.00    +0.000 HD
ENDROOT
BRANCH  12  14
ATOM     14  C   UNL     1       4.925   4.019  15.904  0.00  0.00    +0.000 C 
BRANCH  14  15
ATOM     15  C   UNL     1       6.420   4.271  16.111  0.00  0.00    +0.000 C 
BRANCH  15  16
ATOM     16  O   UNL     1       6.726   4.394  17.508  0.00  0.00    +0.000 OA
BRANCH  16  17
ATOM     17  C   UNL     1       7.260   5.601  17.880  0.00  0.00    +0.000 A 
ATOM     18  C   UNL     1       7.095   6.653  16.977  0.00  0.00    +0.000 A 
ATOM     19  C   UNL     1       7.635   7.915  17.251  0.00  0.00    +0.000 A 
ATOM     20  C   UNL     1       8.329   8.130  18.440  0.00  0.00    +0.000 A 
ATOM     21 CL   UNL     1       9.019   9.670  18.773  0.00  0.00    +0.000 Cl
ATOM     22  C   UNL     1       8.465   7.100  19.366  0.00  0.00    +0.000 A 
ATOM     23  C   UNL     1       7.926   5.840  19.089  0.00  0.00    +0.000 A 
ENDBRANCH  16  17
ENDBRANCH  15  16
ENDBRANCH  14  15
ENDBRANCH  12  14
TORSDOF 4
ENDMDL
MODEL 3
REMARK VINA RESULT:      -6.7      4.831      7.655
REMARK  Name = 
REMARK  6 active torsions:
REMARK  status: ('A' for Active; 'I' for Inactive)
REMARK    1  A    between atoms: C_1  and  C_2
REMARK    2  A    between atoms: N_8  and  C_9
REMARK    3  A    between atoms: N_12  and  C_13
REMARK    4  A    between atoms: C_13  and  C_14
REMARK    5  A    between atoms: C_14  and  O_15
REMARK    6  A    between atoms: O_15  and  C_16
REMARK                            x       y       z     vdW  Elec       q    Type
REMARK                         _______ _______ _______ _____ _____    ______ ____
ROOT
ATOM      1  C   UNL     1       4.608   2.066  20.282  0.00  0.00    +0.000 C 
ATOM      2  C   UNL     1       3.466   3.021  20.125  0.00  0.00    +0.000 A 
ATOM      3  C   UNL     1       2.259   2.722  20.793  0.00  0.00    +0.000 A 
ATOM      4  C   UNL     1       1.134   3.557  20.708  0.00  0.00    +0.000 A 
ATOM      5  C   UNL     1       1.176   4.729  19.958  0.00  0.00    +0.000 A 
ATOM      6  C   UNL     1       2.356   5.037  19.309  0.00  0.00    +0.000 A 
ATOM      7  C   UNL     1       3.504   4.192  19.373  0.00  0.00    +0.000 A 
ATOM      8  N   UNL     1       4.488   4.803  18.584  0.00  0.00    +0.000 N 
ATOM      9  C   UNL     1       5.830   4.335  18.346  0.00  0.00    +0.000 C 
ATOM     10  C   UNL     1       3.975   5.988  18.046  0.00  0.00    +0.000 A 
ATOM     11  N   UNL     1       4.556   6.807  17.239  0.00  0.00    +0.000 NA
ATOM     12  N   UNL     1       2.682   6.142  18.526  0.00  0.00    +0.000 N 
ATOM     13  H   UNL     1       5.497   6.471  17.037  0.00  0.00    +0.000 HD
ENDROOT
BRANCH  12  14
ATOM     14  C   UNL     1       1.779   7.214  18.151  0.00  0.00    +0.000 C 
BRANCH  14  15
ATOM     15  C   UNL     1       2.028   8.456  19.010  0.00  0.00    +0.000 C 
BRANCH  15  16
ATOM     16  O   UNL     1       1.707   8.196  20.384  0.00  0.00    +0.000 OA
BRANCH  16  17
ATOM     17  C   UNL     1       0.867   9.112  20.966  0.00  0.00    +0.000 A 
ATOM     18  C   UNL     1       0.685   8.994  22.345  0.00  0.00    +0.000 A 
ATOM     19  C   UNL     1      -0.180   9.860  23.023  0.00  0.00    +0.000 A 
ATOM     20  C   UNL     1      -0.854  10.857  22.323  0.00  0.00    +0.000 A 
ATOM     21 CL   UNL     1      -1.940  11.908  23.144  0.00  0.00    +0.000 Cl
ATOM     22  C   UNL     1      -0.651  11.009  20.954  0.00  0.00    +0.000 A 
ATOM     23  C   UNL     1       0.213  10.143  20.279  0.00  0.00    +0.000 A 
ENDBRANCH  16  17
ENDBRANCH  15  16
ENDBRANCH  14  15
ENDBRANCH  12  14
TORSDOF 4
ENDMDL
MODEL 4
REMARK VINA RESULT:      -6.6      4.884      7.299
REMARK  Name = 
REMARK  6 active torsions:
REMARK  status: ('A' for Active; 'I' for Inactive)
REMARK    1  A    between atoms: C_1  and  C_2
REMARK    2  A    between atoms: N_8  and  C_9
REMARK    3  A    between atoms: N_12  and  C_13
REMARK    4  A    between atoms: C_13  and  C_14
REMARK    5  A    between atoms: C_14  and  O_15
REMARK    6  A    between atoms: O_15  and  C_16
REMARK                            x       y       z     vdW  Elec       q    Type
REMARK                         _______ _______ _______ _____ _____    ______ ____
ROOT
ATOM      1  C   UNL     1       3.214   1.737  18.194  0.00  0.00    +0.000 C 
ATOM      2  C   UNL     1       2.603   2.881  18.942  0.00  0.00    +0.000 A 
ATOM      3  C   UNL     1       1.682   2.582  19.969  0.00  0.00    +0.000 A 
ATOM      4  C   UNL     1       1.059   3.585  20.727  0.00  0.00    +0.000 A 
ATOM      5  C   UNL     1       1.339   4.928  20.491  0.00  0.00    +0.000 A 
ATOM      6  C   UNL     1       2.248   5.232  19.496  0.00  0.00    +0.000 A 
ATOM      7  C   UNL     1       2.879   4.225  18.707  0.00  0.00    +0.000 A 
ATOM      8  N   UNL     1       3.704   4.898  17.795  0.00  0.00    +0.000 N 
ATOM      9  C   UNL     1       4.557   4.311  16.793  0.00  0.00    +0.000 C 
ATOM     10  C   UNL     1       3.592   6.276  18.005  0.00  0.00    +0.000 A 
ATOM     11  N   UNL     1       4.159   7.226  17.344  0.00  0.00    +0.000 NA
ATOM     12  N   UNL     1       2.728   6.470  19.074  0.00  0.00    +0.000 N 
ATOM     13  H   UNL     1       4.743   6.824  16.611  0.00  0.00    +0.000 HD
ENDROOT
BRANCH  12  14
ATOM     14  C   UNL     1       2.295   7.764  19.568  0.00  0.00    +0.000 C 
BRANCH  14  15
ATOM     15  C   UNL     1       1.416   8.470  18.535  0.00  0.00    +0.000 C 
BRANCH  15  16
ATOM     16  O   UNL     1       1.034   9.774  18.999  0.00  0.00    +0.000 OA
BRANCH  16  17
ATOM     17  C   UNL     1      -0.209  10.191  18.594  0.00  0.00    +0.000 A 
ATOM     18  C   UNL     1      -0.779  11.233  19.328  0.00  0.00    +0.000 A 
ATOM     19  C   UNL     1      -2.059  11.705  19.014  0.00  0.00    +0.000 A 
ATOM     20  C   UNL     1      -2.764  11.143  17.953  0.00  0.00    +0.000 A 
ATOM     21 CL   UNL     1      -4.349  11.698  17.578  0.00  0.00    +0.000 Cl
ATOM     22  C   UNL     1      -2.191  10.130  17.190  0.00  0.00    +0.000 A 
ATOM     23  C   UNL     1      -0.913   9.660  17.506  0.00  0.00    +0.000 A 
ENDBRANCH  16  17
ENDBRANCH  15  16
ENDBRANCH  14  15
ENDBRANCH  12  14
TORSDOF 4
ENDMDL
MODEL 5
REMARK VINA RESULT:      -6.6      4.690      6.171
REMARK  Name = 
REMARK  6 active torsions:
REMARK  status: ('A' for Active; 'I' for Inactive)
REMARK    1  A    between atoms: C_1  and  C_2
REMARK    2  A    between atoms: N_8  and  C_9
REMARK    3  A    between atoms: N_12  and  C_13
REMARK    4  A    between atoms: C_13  and  C_14
REMARK    5  A    between atoms: C_14  and  O_15
REMARK    6  A    between atoms: O_15  and  C_16
REMARK                            x       y       z     vdW  Elec       q    Type
REMARK                         _______ _______ _______ _____ _____    ______ ____
ROOT
ATOM      1  C   UNL     1       1.841   4.524  19.263  0.00  0.00    +0.000 C 
ATOM      2  C   UNL     1       2.687   5.563  18.597  0.00  0.00    +0.000 A 
ATOM      3  C   UNL     1       2.059   6.752  18.170  0.00  0.00    +0.000 A 
ATOM      4  C   UNL     1       2.767   7.785  17.538  0.00  0.00    +0.000 A 
ATOM      5  C   UNL     1       4.137   7.671  17.315  0.00  0.00    +0.000 A 
ATOM      6  C   UNL     1       4.765   6.517  17.739  0.00  0.00    +0.000 A 
ATOM      7  C   UNL     1       4.056   5.451  18.370  0.00  0.00    +0.000 A 
ATOM      8  N   UNL     1       5.002   4.450  18.634  0.00  0.00    +0.000 N 
ATOM      9  C   UNL     1       4.771   3.180  19.273  0.00  0.00    +0.000 C 
ATOM     10  C   UNL     1       6.256   4.873  18.183  0.00  0.00    +0.000 A 
ATOM     11  N   UNL     1       7.367   4.221  18.207  0.00  0.00    +0.000 NA
ATOM     12  N   UNL     1       6.109   6.155  17.672  0.00  0.00    +0.000 N 
ATOM     13  H   UNL     1       7.211   3.306  18.630  0.00  0.00    +0.000 HD
ENDROOT
BRANCH  12  14
ATOM     14  C   UNL     1       7.166   6.926  17.044  0.00  0.00    +0.000 C 
BRANCH  14  15
ATOM     15  C   UNL     1       7.753   7.940  18.027  0.00  0.00    +0.000 C 
BRANCH  15  16
ATOM     16  O   UNL     1       8.154   9.137  17.345  0.00  0.00    +0.000 OA
BRANCH  16  17
ATOM     17  C   UNL     1       8.622  10.138  18.158  0.00  0.00    +0.000 A 
ATOM     18  C   UNL     1       9.077   9.747  19.418  0.00  0.00    +0.000 A 
ATOM     19  C   UNL     1       9.541  10.699  20.332  0.00  0.00    +0.000 A 
ATOM     20  C   UNL     1       9.566  12.046  19.978  0.00  0.00    +0.000 A 
ATOM     21 CL   UNL     1      10.110  13.227  21.105  0.00  0.00    +0.000 Cl
ATOM     22  C   UNL     1       9.153  12.444  18.711  0.00  0.00    +0.000 A 
ATOM     23  C   UNL     1       8.688  11.491  17.800  0.00  0.00    +0.000 A 
ENDBRANCH  16  17
ENDBRANCH  15  16
ENDBRANCH  14  15
ENDBRANCH  12  14
TORSDOF 4
ENDMDL
MODEL 6
REMARK VINA RESULT:      -6.5      4.836      7.329
REMARK  Name = 
REMARK  6 active torsions:
REMARK  status: ('A' for Active; 'I' for Inactive)
REMARK    1  A    between atoms: C_1  and  C_2
REMARK    2  A    between atoms: N_8  and  C_9
REMARK    3  A    between atoms: N_12  and  C_13
REMARK    4  A    between atoms: C_13  and  C_14
REMARK    5  A    between atoms: C_14  and  O_15
REMARK    6  A    between atoms: O_15  and  C_16
REMARK                            x       y       z     vdW  Elec       q    Type
REMARK                         _______ _______ _______ _____ _____    ______ ____
ROOT
ATOM      1  C   UNL     1       3.484   1.510  18.371  0.00  0.00    +0.000 C 
ATOM      2  C   UNL     1       2.850   2.723  18.976  0.00  0.00    +0.000 A 
ATOM      3  C   UNL     1       1.905   2.531  20.006  0.00  0.00    +0.000 A 
ATOM      4  C   UNL     1       1.260   3.605  20.637  0.00  0.00    +0.000 A 
ATOM      5  C   UNL     1       1.542   4.917  20.265  0.00  0.00    +0.000 A 
ATOM      6  C   UNL     1       2.474   5.118  19.265  0.00  0.00    +0.000 A 
ATOM      7  C   UNL     1       3.127   4.036  18.604  0.00  0.00    +0.000 A 
ATOM      8  N   UNL     1       3.972   4.612  17.646  0.00  0.00    +0.000 N 
ATOM      9  C   UNL     1       4.852   3.926  16.734  0.00  0.00    +0.000 C 
ATOM     10  C   UNL     1       3.851   6.004  17.704  0.00  0.00    +0.000 A 
ATOM     11  N   UNL     1       4.430   6.881  16.958  0.00  0.00    +0.000 NA
ATOM     12  N   UNL     1       2.960   6.306  18.724  0.00  0.00    +0.000 N 
ATOM     13  H   UNL     1       5.034   6.406  16.287  0.00  0.00    +0.000 HD
ENDROOT
BRANCH  12  14
ATOM     14  C   UNL     1       2.510   7.643  19.066  0.00  0.00    +0.000 C 
BRANCH  14  15
ATOM     15  C   UNL     1       1.448   8.125  18.076  0.00  0.00    +0.000 C 
BRANCH  15  16
ATOM     16  O   UNL     1       1.522   9.549  17.906  0.00  0.00    +0.000 OA
BRANCH  16  17
ATOM     17  C   UNL     1       0.470  10.251  18.437  0.00  0.00    +0.000 A 
ATOM     18  C   UNL     1       0.762  11.063  19.534  0.00  0.00    +0.000 A 
ATOM     19  C   UNL     1      -0.252  11.791  20.168  0.00  0.00    +0.000 A 
ATOM     20  C   UNL     1      -1.559  11.719  19.692  0.00  0.00    +0.000 A 
ATOM     21 CL   UNL     1      -2.815  12.590  20.481  0.00  0.00    +0.000 Cl
ATOM     22  C   UNL     1      -1.855  10.944  18.575  0.00  0.00    +0.000 A 
ATOM     23  C   UNL     1      -0.841  10.216  17.946  0.00  0.00    +0.000 A 
ENDBRANCH  16  17
ENDBRANCH  15  16
ENDBRANCH  14  15
ENDBRANCH  12  14
TORSDOF 4
ENDMDL
MODEL 7
REMARK VINA RESULT:      -6.5      5.356      7.467
REMARK  Name = 
REMARK  6 active torsions:
REMARK  status: ('A' for Active; 'I' for Inactive)
REMARK    1  A    between atoms: C_1  and  C_2
REMARK    2  A    between atoms: N_8  and  C_9
REMARK    3  A    between atoms: N_12  and  C_13
REMARK    4  A    between atoms: C_13  and  C_14
REMARK    5  A    between atoms: C_14  and  O_15
REMARK    6  A    between atoms: O_15  and  C_16
REMARK                            x       y       z     vdW  Elec       q    Type
REMARK                         _______ _______ _______ _____ _____    ______ ____
ROOT
ATOM      1  C   UNL     1      -1.311  12.856  23.294  0.00  0.00    +0.000 C 
ATOM      2  C   UNL     1      -0.944  11.635  22.509  0.00  0.00    +0.000 A 
ATOM      3  C   UNL     1      -0.836  10.411  23.204  0.00  0.00    +0.000 A 
ATOM      4  C   UNL     1      -0.500   9.213  22.556  0.00  0.00    +0.000 A 
ATOM      5  C   UNL     1      -0.267   9.192  21.184  0.00  0.00    +0.000 A 
ATOM      6  C   UNL     1      -0.382  10.381  20.491  0.00  0.00    +0.000 A 
ATOM      7  C   UNL     1      -0.708  11.611  21.138  0.00  0.00    +0.000 A 
ATOM      8  N   UNL     1      -0.710  12.594  20.138  0.00  0.00    +0.000 N 
ATOM      9  C   UNL     1      -0.995  13.997  20.296  0.00  0.00    +0.000 C 
ATOM     10  C   UNL     1      -0.395  12.001  18.911  0.00  0.00    +0.000 A 
ATOM     11  N   UNL     1      -0.258  12.576  17.767  0.00  0.00    +0.000 NA
ATOM     12  N   UNL     1      -0.234  10.640  19.130  0.00  0.00    +0.000 N 
ATOM     13  H   UNL     1      -0.427  13.577  17.870  0.00  0.00    +0.000 HD
ENDROOT
BRANCH  12  14
ATOM     14  C   UNL     1       0.164   9.677  18.120  0.00  0.00    +0.000 C 
BRANCH  14  15
ATOM     15  C   UNL     1       1.673   9.433  18.171  0.00  0.00    +0.000 C 
BRANCH  15  16
ATOM     16  O   UNL     1       1.974   8.263  18.946  0.00  0.00    +0.000 OA
BRANCH  16  17
ATOM     17  C   UNL     1       2.714   7.310  18.293  0.00  0.00    +0.000 A 
ATOM     18  C   UNL     1       2.305   5.986  18.464  0.00  0.00    +0.000 A 
ATOM     19  C   UNL     1       3.018   4.941  17.867  0.00  0.00    +0.000 A 
ATOM     20  C   UNL     1       4.135   5.221  17.083  0.00  0.00    +0.000 A 
ATOM     21 CL   UNL     1       5.033   3.940  16.368  0.00  0.00    +0.000 Cl
ATOM     22  C   UNL     1       4.529   6.539  16.873  0.00  0.00    +0.000 A 
ATOM     23  C   UNL     1       3.816   7.581  17.472  0.00  0.00    +0.000 A 
ENDBRANCH  16  17
ENDBRANCH  15  16
ENDBRANCH  14  15
ENDBRANCH  12  14
TORSDOF 4
ENDMDL
MODEL 8
REMARK VINA RESULT:      -6.5      3.174      4.395
REMARK  Name = 
REMARK  6 active torsions:
REMARK  status: ('A' for Active; 'I' for Inactive)
REMARK    1  A    between atoms: C_1  and  C_2
REMARK    2  A    between atoms: N_8  and  C_9
REMARK    3  A    between atoms: N_12  and  C_13
REMARK    4  A    between atoms: C_13  and  C_14
REMARK    5  A    between atoms: C_14  and  O_15
REMARK    6  A    between atoms: O_15  and  C_16
REMARK                            x       y       z     vdW  Elec       q    Type
REMARK                         _______ _______ _______ _____ _____    ______ ____
ROOT
ATOM      1  C   UNL     1       1.444   7.193  21.080  0.00  0.00    +0.000 C 
ATOM      2  C   UNL     1       2.143   6.835  19.806  0.00  0.00    +0.000 A 
ATOM      3  C   UNL     1       2.343   7.857  18.853  0.00  0.00    +0.000 A 
ATOM      4  C   UNL     1       2.989   7.620  17.630  0.00  0.00    +0.000 A 
ATOM      5  C   UNL     1       3.468   6.351  17.316  0.00  0.00    +0.000 A 
ATOM      6  C   UNL     1       3.288   5.346  18.246  0.00  0.00    +0.000 A 
ATOM      7  C   UNL     1       2.620   5.567  19.488  0.00  0.00    +0.000 A 
ATOM      8  N   UNL     1       2.603   4.332  20.151  0.00  0.00    +0.000 N 
ATOM      9  C   UNL     1       2.047   4.048  21.450  0.00  0.00    +0.000 C 
ATOM     10  C   UNL     1       3.236   3.373  19.354  0.00  0.00    +0.000 A 
ATOM     11  N   UNL     1       3.384   2.116  19.595  0.00  0.00    +0.000 NA
ATOM     12  N   UNL     1       3.686   4.011  18.207  0.00  0.00    +0.000 N 
ATOM     13  H   UNL     1       2.967   1.895  20.500  0.00  0.00    +0.000 HD
ENDROOT
BRANCH  12  14
ATOM     14  C   UNL     1       4.340   3.352  17.091  0.00  0.00    +0.000 C 
BRANCH  14  15
ATOM     15  C   UNL     1       5.361   4.284  16.436  0.00  0.00    +0.000 C 
BRANCH  15  16
ATOM     16  O   UNL     1       6.608   4.251  17.145  0.00  0.00    +0.000 OA
BRANCH  16  17
ATOM     17  C   UNL     1       7.115   5.481  17.482  0.00  0.00    +0.000 A 
ATOM     18  C   UNL     1       7.836   5.545  18.676  0.00  0.00    +0.000 A 
ATOM     19  C   UNL     1       8.362   6.763  19.122  0.00  0.00    +0.000 A 
ATOM     20  C   UNL     1       8.182   7.917  18.363  0.00  0.00    +0.000 A 
ATOM     21 CL   UNL     1       8.803   9.422  18.917  0.00  0.00    +0.000 Cl
ATOM     22  C   UNL     1       7.500   7.857  17.152  0.00  0.00    +0.000 A 
ATOM     23  C   UNL     1       6.973   6.640  16.709  0.00  0.00    +0.000 A 
ENDBRANCH  16  17
ENDBRANCH  15  16
ENDBRANCH  14  15
ENDBRANCH  12  14
TORSDOF 4
ENDMDL
MODEL 9
REMARK VINA RESULT:      -6.4      4.898      7.980
REMARK  Name = 
REMARK  6 active torsions:
REMARK  status: ('A' for Active; 'I' for Inactive)
REMARK    1  A    between atoms: C_1  and  C_2
REMARK    2  A    between atoms: N_8  and  C_9
REMARK    3  A    between atoms: N_12  and  C_13
REMARK    4  A    between atoms: C_13  and  C_14
REMARK    5  A    between atoms: C_14  and  O_15
REMARK    6  A    between atoms: O_15  and  C_16
REMARK                            x       y       z     vdW  Elec       q    Type
REMARK                         _______ _______ _______ _____ _____    ______ ____
ROOT
ATOM      1  C   UNL     1       3.781   1.440  18.288  0.00  0.00    +0.000 C 
ATOM      2  C   UNL     1       2.874   2.526  18.778  0.00  0.00    +0.000 A 
ATOM      3  C   UNL     1       1.781   2.156  19.591  0.00  0.00    +0.000 A 
ATOM      4  C   UNL     1       0.877   3.101  20.100  0.00  0.00    +0.000 A 
ATOM      5  C   UNL     1       1.037   4.455  19.821  0.00  0.00    +0.000 A 
ATOM      6  C   UNL     1       2.110   4.830  19.036  0.00  0.00    +0.000 A 
ATOM      7  C   UNL     1       3.029   3.881  18.499  0.00  0.00    +0.000 A 
ATOM      8  N   UNL     1       3.956   4.613  17.744  0.00  0.00    +0.000 N 
ATOM      9  C   UNL     1       5.088   4.098  17.016  0.00  0.00    +0.000 C 
ATOM     10  C   UNL     1       3.628   5.971  17.807  0.00  0.00    +0.000 A 
ATOM     11  N   UNL     1       4.213   6.954  17.213  0.00  0.00    +0.000 NA
ATOM     12  N   UNL     1       2.520   6.098  18.631  0.00  0.00    +0.000 N 
ATOM     13  H   UNL     1       4.999   6.600  16.669  0.00  0.00    +0.000 HD
ENDROOT
BRANCH  12  14
ATOM     14  C   UNL     1       1.825   7.343  18.904  0.00  0.00    +0.000 C 
BRANCH  14  15
ATOM     15  C   UNL     1       2.124   7.830  20.323  0.00  0.00    +0.000 C 
BRANCH  15  16
ATOM     16  O   UNL     1       0.959   7.721  21.154  0.00  0.00    +0.000 OA
BRANCH  16  17
ATOM     17  C   UNL     1       0.435   8.916  21.576  0.00  0.00    +0.000 A 
ATOM     18  C   UNL     1       0.758  10.037  20.808  0.00  0.00    +0.000 A 
ATOM     19  C   UNL     1       0.299  11.306  21.178  0.00  0.00    +0.000 A 
ATOM     20  C   UNL     1      -0.499  11.453  22.311  0.00  0.00    +0.000 A 
ATOM     21 CL   UNL     1      -1.044  13.013  22.788  0.00  0.00    +0.000 Cl
ATOM     22  C   UNL     1      -0.860  10.338  23.061  0.00  0.00    +0.000 A 
ATOM     23  C   UNL     1      -0.399   9.072  22.690  0.00  0.00    +0.000 A 
ENDBRANCH  16  17
ENDBRANCH  15  16
ENDBRANCH  14  15
ENDBRANCH  12  14
TORSDOF 4
ENDMDL
