MODEL 1
REMARK VINA RESULT:      -9.5      0.000      0.000
REMARK  Name = 
REMARK  2 active torsions:
REMARK  status: ('A' for Active; 'I' for Inactive)
REMARK    1  A    between atoms: C_1  and  C_2
REMARK    2  A    between atoms: C_16  and  C_17
REMARK                            x       y       z     vdW  Elec       q    Type
REMARK                         _______ _______ _______ _____ _____    ______ ____
ROOT
ATOM      1  C   UNL     1       2.604   3.062  21.597  0.00  0.00    +0.000 C 
ATOM      2  C   UNL     1       2.505   3.553  20.205  0.00  0.00    +0.000 C 
ATOM      3  N   UNL     1       3.480   4.049  19.527  0.00  0.00    +0.000 NA
ATOM      4  C   UNL     1       2.869   4.429  18.226  0.00  0.00    +0.000 C 
ATOM      5  C   UNL     1       3.711   3.793  17.112  0.00  0.00    +0.000 C 
ATOM      6  C   UNL     1       5.077   4.525  16.999  0.00  0.00    +0.000 C 
ATOM      7  C   UNL     1       5.930   4.509  18.293  0.00  0.00    +0.000 C 
ATOM      8  C   UNL     1       7.310   5.107  18.082  0.00  0.00    +0.000 C 
ATOM      9  C   UNL     1       8.008   4.414  16.931  0.00  0.00    +0.000 C 
ATOM     10  O   UNL     1       7.226   4.490  15.742  0.00  0.00    +0.000 OA
ATOM     11  C   UNL     1       5.929   3.885  15.874  0.00  0.00    +0.000 C 
ATOM     12  O   UNL     1       4.853   5.895  16.603  0.00  0.00    +0.000 OA
ATOM     13  C   UNL     1       3.892   6.564  17.306  0.00  0.00    +0.000 A 
ATOM     14  C   UNL     1       3.952   7.953  17.233  0.00  0.00    +0.000 A 
ATOM     15  C   UNL     1       3.039   8.737  17.940  0.00  0.00    +0.000 A 
ATOM     16  C   UNL     1       2.020   8.151  18.706  0.00  0.00    +0.000 A 
ATOM     17  C   UNL     1       1.961   6.748  18.727  0.00  0.00    +0.000 A 
ATOM     18  C   UNL     1       2.900   5.939  18.061  0.00  0.00    +0.000 A 
ATOM     19  N   UNL     1       1.458   3.922  18.208  0.00  0.00    +0.000 NA
ATOM     20  C   UNL     1       1.239   3.558  19.428  0.00  0.00    +0.000 C 
ATOM     21  N   UNL     1       0.020   3.267  19.966  0.00  0.00    +0.000 N 
ATOM     22  H   UNL     1      -0.746   3.643  19.415  0.00  0.00    +0.000 HD
ATOM     23  H   UNL     1      -0.091   3.467  20.956  0.00  0.00    +0.000 HD
ENDROOT
BRANCH  16  24
ATOM     24  C   UNL     1       1.070   8.958  19.497  0.00  0.00    +0.000 A 
ATOM     25  C   UNL     1       0.224   9.905  18.890  0.00  0.00    +0.000 A 
ATOM     26  C   UNL     1      -0.648  10.693  19.649  0.00  0.00    +0.000 A 
ATOM     27  C   UNL     1      -0.700  10.530  21.027  0.00  0.00    +0.000 A 
ATOM     28  F   UNL     1      -1.536  11.297  21.740  0.00  0.00    +0.000 F 
ATOM     29  C   UNL     1       0.109   9.589  21.654  0.00  0.00    +0.000 A 
ATOM     30 CL   UNL     1       0.045   9.360  23.359  0.00  0.00    +0.000 Cl
ATOM     31  C   UNL     1       0.988   8.814  20.897  0.00  0.00    +0.000 A 
ENDBRANCH  16  24
TORSDOF 1
ENDMDL
MODEL 2
REMARK VINA RESULT:      -9.4      0.975      1.329
REMARK  Name = 
REMARK  2 active torsions:
REMARK  status: ('A' for Active; 'I' for Inactive)
REMARK    1  A    between atoms: C_1  and  C_2
REMARK    2  A    between atoms: C_16  and  C_17
REMARK                            x       y       z     vdW  Elec       q    Type
REMARK                         _______ _______ _______ _____ _____    ______ ____
ROOT
ATOM      1  C   UNL     1       2.963   2.716  21.505  0.00  0.00    +0.000 C 
ATOM      2  C   UNL     1       2.687   3.310  20.179  0.00  0.00    +0.000 C 
ATOM      3  N   UNL     1       3.565   3.871  19.424  0.00  0.00    +0.000 NA
ATOM      4  C   UNL     1       2.792   4.340  18.244  0.00  0.00    +0.000 C 
ATOM      5  C   UNL     1       3.490   3.802  16.987  0.00  0.00    +0.000 C 
ATOM      6  C   UNL     1       4.827   4.561  16.759  0.00  0.00    +0.000 C 
ATOM      7  C   UNL     1       5.837   4.459  17.930  0.00  0.00    +0.000 C 
ATOM      8  C   UNL     1       7.177   5.091  17.594  0.00  0.00    +0.000 C 
ATOM      9  C   UNL     1       7.725   4.498  16.313  0.00  0.00    +0.000 C 
ATOM     10  O   UNL     1       6.799   4.653  15.242  0.00  0.00    +0.000 OA
ATOM     11  C   UNL     1       5.532   4.021  15.490  0.00  0.00    +0.000 C 
ATOM     12  O   UNL     1       4.547   5.953  16.502  0.00  0.00    +0.000 OA
ATOM     13  C   UNL     1       3.680   6.553  17.370  0.00  0.00    +0.000 A 
ATOM     14  C   UNL     1       3.724   7.944  17.397  0.00  0.00    +0.000 A 
ATOM     15  C   UNL     1       2.904   8.658  18.272  0.00  0.00    +0.000 A 
ATOM     16  C   UNL     1       1.993   8.001  19.113  0.00  0.00    +0.000 A 
ATOM     17  C   UNL     1       1.944   6.599  19.033  0.00  0.00    +0.000 A 
ATOM     18  C   UNL     1       2.795   5.858  18.193  0.00  0.00    +0.000 A 
ATOM     19  N   UNL     1       1.392   3.815  18.364  0.00  0.00    +0.000 NA
ATOM     20  C   UNL     1       1.332   3.355  19.570  0.00  0.00    +0.000 C 
ATOM     21  N   UNL     1       0.193   3.007  20.234  0.00  0.00    +0.000 N 
ATOM     22  H   UNL     1      -0.639   3.413  19.814  0.00  0.00    +0.000 HD
ATOM     23  H   UNL     1       0.207   3.129  21.242  0.00  0.00    +0.000 HD
ENDROOT
BRANCH  16  24
ATOM     24  C   UNL     1       1.147   8.732  20.078  0.00  0.00    +0.000 A 
ATOM     25  C   UNL     1       1.109   8.379  21.440  0.00  0.00    +0.000 A 
ATOM     26  C   UNL     1       0.277   9.052  22.341  0.00  0.00    +0.000 A 
ATOM     27  C   UNL     1      -0.514  10.103  21.896  0.00  0.00    +0.000 A 
ATOM     28  F   UNL     1      -1.309  10.733  22.772  0.00  0.00    +0.000 F 
ATOM     29  C   UNL     1      -0.482  10.488  20.560  0.00  0.00    +0.000 A 
ATOM     30 CL   UNL     1      -1.442  11.800  19.994  0.00  0.00    +0.000 Cl
ATOM     31  C   UNL     1       0.337   9.807  19.660  0.00  0.00    +0.000 A 
ENDBRANCH  16  24
TORSDOF 1
ENDMDL
MODEL 3
REMARK VINA RESULT:      -8.0      5.467      9.731
REMARK  Name = 
REMARK  2 active torsions:
REMARK  status: ('A' for Active; 'I' for Inactive)
REMARK    1  A    between atoms: C_1  and  C_2
REMARK    2  A    between atoms: C_16  and  C_17
REMARK                            x       y       z     vdW  Elec       q    Type
REMARK                         _______ _______ _______ _____ _____    ______ ____
ROOT
ATOM      1  C   UNL     1      -0.016  14.126  17.894  0.00  0.00    +0.000 C 
ATOM      2  C   UNL     1      -0.913  13.286  18.719  0.00  0.00    +0.000 C 
ATOM      3  N   UNL     1      -1.004  13.342  20.001  0.00  0.00    +0.000 NA
ATOM      4  C   UNL     1      -1.990  12.285  20.347  0.00  0.00    +0.000 C 
ATOM      5  C   UNL     1      -3.073  12.927  21.225  0.00  0.00    +0.000 C 
ATOM      6  C   UNL     1      -2.496  13.237  22.634  0.00  0.00    +0.000 C 
ATOM      7  C   UNL     1      -1.271  14.187  22.637  0.00  0.00    +0.000 C 
ATOM      8  C   UNL     1      -0.843  14.572  24.043  0.00  0.00    +0.000 C 
ATOM      9  C   UNL     1      -2.017  15.151  24.805  0.00  0.00    +0.000 C 
ATOM     10  O   UNL     1      -3.108  14.236  24.831  0.00  0.00    +0.000 OA
ATOM     11  C   UNL     1      -3.588  13.884  23.522  0.00  0.00    +0.000 C 
ATOM     12  O   UNL     1      -2.130  12.001  23.283  0.00  0.00    +0.000 OA
ATOM     13  C   UNL     1      -1.390  11.134  22.531  0.00  0.00    +0.000 A 
ATOM     14  C   UNL     1      -0.694  10.164  23.245  0.00  0.00    +0.000 A 
ATOM     15  C   UNL     1       0.121   9.246  22.578  0.00  0.00    +0.000 A 
ATOM     16  C   UNL     1       0.228   9.253  21.179  0.00  0.00    +0.000 A 
ATOM     17  C   UNL     1      -0.520  10.218  20.485  0.00  0.00    +0.000 A 
ATOM     18  C   UNL     1      -1.309  11.182  21.139  0.00  0.00    +0.000 A 
ATOM     19  N   UNL     1      -2.564  11.745  19.071  0.00  0.00    +0.000 NA
ATOM     20  C   UNL     1      -1.804  12.241  18.151  0.00  0.00    +0.000 C 
ATOM     21  N   UNL     1      -1.766  11.842  16.848  0.00  0.00    +0.000 N 
ATOM     22  H   UNL     1      -2.171  10.919  16.714  0.00  0.00    +0.000 HD
ATOM     23  H   UNL     1      -0.871  11.935  16.377  0.00  0.00    +0.000 HD
ENDROOT
BRANCH  16  24
ATOM     24  C   UNL     1       1.116   8.322  20.455  0.00  0.00    +0.000 A 
ATOM     25  C   UNL     1       1.727   8.681  19.240  0.00  0.00    +0.000 A 
ATOM     26  C   UNL     1       2.539   7.781  18.541  0.00  0.00    +0.000 A 
ATOM     27  C   UNL     1       2.766   6.514  19.059  0.00  0.00    +0.000 A 
ATOM     28  F   UNL     1       3.541   5.662  18.373  0.00  0.00    +0.000 F 
ATOM     29  C   UNL     1       2.193   6.137  20.268  0.00  0.00    +0.000 A 
ATOM     30 CL   UNL     1       2.479   4.575  20.935  0.00  0.00    +0.000 Cl
ATOM     31  C   UNL     1       1.373   7.030  20.957  0.00  0.00    +0.000 A 
ENDBRANCH  16  24
TORSDOF 1
ENDMDL
MODEL 4
REMARK VINA RESULT:      -7.8      8.016     11.520
REMARK  Name = 
REMARK  2 active torsions:
REMARK  status: ('A' for Active; 'I' for Inactive)
REMARK    1  A    between atoms: C_1  and  C_2
REMARK    2  A    between atoms: C_16  and  C_17
REMARK                            x       y       z     vdW  Elec       q    Type
REMARK                         _______ _______ _______ _____ _____    ______ ____
ROOT
ATOM      1  C   UNL     1      -6.582  15.115  21.865  0.00  0.00    +0.000 C 
ATOM      2  C   UNL     1      -5.513  14.370  22.566  0.00  0.00    +0.000 C 
ATOM      3  N   UNL     1      -4.369  14.856  22.896  0.00  0.00    +0.000 NA
ATOM      4  C   UNL     1      -3.650  13.717  23.523  0.00  0.00    +0.000 C 
ATOM      5  C   UNL     1      -3.143  14.183  24.894  0.00  0.00    +0.000 C 
ATOM      6  C   UNL     1      -1.967  15.182  24.711  0.00  0.00    +0.000 C 
ATOM      7  C   UNL     1      -2.316  16.449  23.889  0.00  0.00    +0.000 C 
ATOM      8  C   UNL     1      -1.178  17.455  23.867  0.00  0.00    +0.000 C 
ATOM      9  C   UNL     1      -0.753  17.791  25.281  0.00  0.00    +0.000 C 
ATOM     10  O   UNL     1      -0.388  16.615  25.997  0.00  0.00    +0.000 OA
ATOM     11  C   UNL     1      -1.452  15.654  26.094  0.00  0.00    +0.000 C 
ATOM     12  O   UNL     1      -0.860  14.505  24.079  0.00  0.00    +0.000 OA
ATOM     13  C   UNL     1      -1.171  13.766  22.974  0.00  0.00    +0.000 A 
ATOM     14  C   UNL     1      -0.103  13.463  22.135  0.00  0.00    +0.000 A 
ATOM     15  C   UNL     1      -0.313  12.740  20.959  0.00  0.00    +0.000 A 
ATOM     16  C   UNL     1      -1.589  12.269  20.615  0.00  0.00    +0.000 A 
ATOM     17  C   UNL     1      -2.638  12.556  21.503  0.00  0.00    +0.000 A 
ATOM     18  C   UNL     1      -2.457  13.324  22.668  0.00  0.00    +0.000 A 
ATOM     19  N   UNL     1      -4.611  12.572  23.651  0.00  0.00    +0.000 NA
ATOM     20  C   UNL     1      -5.631  12.938  22.947  0.00  0.00    +0.000 C 
ATOM     21  N   UNL     1      -6.656  12.132  22.550  0.00  0.00    +0.000 N 
ATOM     22  H   UNL     1      -6.413  11.146  22.598  0.00  0.00    +0.000 HD
ATOM     23  H   UNL     1      -7.097  12.371  21.667  0.00  0.00    +0.000 HD
ENDROOT
BRANCH  16  24
ATOM     24  C   UNL     1      -1.843  11.540  19.356  0.00  0.00    +0.000 A 
ATOM     25  C   UNL     1      -0.918  10.613  18.841  0.00  0.00    +0.000 A 
ATOM     26  C   UNL     1      -1.149   9.953  17.630  0.00  0.00    +0.000 A 
ATOM     27  C   UNL     1      -2.319  10.198  16.924  0.00  0.00    +0.000 A 
ATOM     28  F   UNL     1      -2.521   9.561  15.762  0.00  0.00    +0.000 F 
ATOM     29  C   UNL     1      -3.261  11.093  17.417  0.00  0.00    +0.000 A 
ATOM     30 CL   UNL     1      -4.727  11.395  16.565  0.00  0.00    +0.000 Cl
ATOM     31  C   UNL     1      -3.024  11.761  18.618  0.00  0.00    +0.000 A 
ENDBRANCH  16  24
TORSDOF 1
ENDMDL
MODEL 5
REMARK VINA RESULT:      -7.6      5.558      9.851
REMARK  Name = 
REMARK  2 active torsions:
REMARK  status: ('A' for Active; 'I' for Inactive)
REMARK    1  A    between atoms: C_1  and  C_2
REMARK    2  A    between atoms: C_16  and  C_17
REMARK                            x       y       z     vdW  Elec       q    Type
REMARK                         _______ _______ _______ _____ _____    ______ ____
ROOT
ATOM      1  C   UNL     1       0.165  14.093  17.977  0.00  0.00    +0.000 C 
ATOM      2  C   UNL     1      -0.795  13.307  18.783  0.00  0.00    +0.000 C 
ATOM      3  N   UNL     1      -0.926  13.390  20.061  0.00  0.00    +0.000 NA
ATOM      4  C   UNL     1      -1.969  12.383  20.391  0.00  0.00    +0.000 C 
ATOM      5  C   UNL     1      -3.051  13.087  21.221  0.00  0.00    +0.000 C 
ATOM      6  C   UNL     1      -2.508  13.396  22.643  0.00  0.00    +0.000 C 
ATOM      7  C   UNL     1      -1.243  14.292  22.673  0.00  0.00    +0.000 C 
ATOM      8  C   UNL     1      -0.844  14.681  24.086  0.00  0.00    +0.000 C 
ATOM      9  C   UNL     1      -2.015  15.325  24.798  0.00  0.00    +0.000 C 
ATOM     10  O   UNL     1      -3.147  14.459  24.802  0.00  0.00    +0.000 OA
ATOM     11  C   UNL     1      -3.598  14.106  23.484  0.00  0.00    +0.000 C 
ATOM     12  O   UNL     1      -2.219  12.157  23.324  0.00  0.00    +0.000 OA
ATOM     13  C   UNL     1      -1.494  11.245  22.611  0.00  0.00    +0.000 A 
ATOM     14  C   UNL     1      -0.866  10.257  23.363  0.00  0.00    +0.000 A 
ATOM     15  C   UNL     1      -0.071   9.293  22.740  0.00  0.00    +0.000 A 
ATOM     16  C   UNL     1       0.082   9.272  21.345  0.00  0.00    +0.000 A 
ATOM     17  C   UNL     1      -0.599  10.256  20.610  0.00  0.00    +0.000 A 
ATOM     18  C   UNL     1      -1.364  11.265  21.223  0.00  0.00    +0.000 A 
ATOM     19  N   UNL     1      -2.524  11.847  19.104  0.00  0.00    +0.000 NA
ATOM     20  C   UNL     1      -1.713  12.293  18.202  0.00  0.00    +0.000 C 
ATOM     21  N   UNL     1      -1.650  11.870  16.908  0.00  0.00    +0.000 N 
ATOM     22  H   UNL     1      -2.091  10.964  16.775  0.00  0.00    +0.000 HD
ATOM     23  H   UNL     1      -0.736  11.915  16.466  0.00  0.00    +0.000 HD
ENDROOT
BRANCH  16  24
ATOM     24  C   UNL     1       0.951   8.289  20.667  0.00  0.00    +0.000 A 
ATOM     25  C   UNL     1       1.169   7.005  21.200  0.00  0.00    +0.000 A 
ATOM     26  C   UNL     1       2.022   6.092  20.571  0.00  0.00    +0.000 A 
ATOM     27  C   UNL     1       2.656   6.445  19.388  0.00  0.00    +0.000 A 
ATOM     28  F   UNL     1       3.475   5.561  18.802  0.00  0.00    +0.000 F 
ATOM     29  C   UNL     1       2.445   7.699  18.825  0.00  0.00    +0.000 A 
ATOM     30 CL   UNL     1       3.208   8.147  17.348  0.00  0.00    +0.000 Cl
ATOM     31  C   UNL     1       1.605   8.613  19.461  0.00  0.00    +0.000 A 
ENDBRANCH  16  24
TORSDOF 1
ENDMDL
MODEL 6
REMARK VINA RESULT:      -7.3      5.902      9.802
REMARK  Name = 
REMARK  2 active torsions:
REMARK  status: ('A' for Active; 'I' for Inactive)
REMARK    1  A    between atoms: C_1  and  C_2
REMARK    2  A    between atoms: C_16  and  C_17
REMARK                            x       y       z     vdW  Elec       q    Type
REMARK                         _______ _______ _______ _____ _____    ______ ____
ROOT
ATOM      1  C   UNL     1       4.522  14.550  20.867  0.00  0.00    +0.000 C 
ATOM      2  C   UNL     1       3.276  14.410  20.082  0.00  0.00    +0.000 C 
ATOM      3  N   UNL     1       2.090  14.380  20.580  0.00  0.00    +0.000 NA
ATOM      4  C   UNL     1       1.201  14.181  19.405  0.00  0.00    +0.000 C 
ATOM      5  C   UNL     1       0.127  15.277  19.443  0.00  0.00    +0.000 C 
ATOM      6  C   UNL     1      -0.875  14.995  20.597  0.00  0.00    +0.000 C 
ATOM      7  C   UNL     1      -0.236  14.923  22.007  0.00  0.00    +0.000 C 
ATOM      8  C   UNL     1      -1.276  14.794  23.106  0.00  0.00    +0.000 C 
ATOM      9  C   UNL     1      -2.291  15.912  22.997  0.00  0.00    +0.000 C 
ATOM     10  O   UNL     1      -2.901  15.922  21.710  0.00  0.00    +0.000 OA
ATOM     11  C   UNL     1      -1.961  16.099  20.636  0.00  0.00    +0.000 C 
ATOM     12  O   UNL     1      -1.570  13.757  20.334  0.00  0.00    +0.000 OA
ATOM     13  C   UNL     1      -0.781  12.701  19.979  0.00  0.00    +0.000 A 
ATOM     14  C   UNL     1      -1.359  11.443  20.129  0.00  0.00    +0.000 A 
ATOM     15  C   UNL     1      -0.630  10.291  19.827  0.00  0.00    +0.000 A 
ATOM     16  C   UNL     1       0.679  10.371  19.331  0.00  0.00    +0.000 A 
ATOM     17  C   UNL     1       1.220  11.655  19.151  0.00  0.00    +0.000 A 
ATOM     18  C   UNL     1       0.520  12.826  19.495  0.00  0.00    +0.000 A 
ATOM     19  N   UNL     1       2.039  14.274  18.165  0.00  0.00    +0.000 NA
ATOM     20  C   UNL     1       3.254  14.253  18.605  0.00  0.00    +0.000 C 
ATOM     21  N   UNL     1       4.372  14.060  17.848  0.00  0.00    +0.000 N 
ATOM     22  H   UNL     1       4.162  13.637  16.948  0.00  0.00    +0.000 HD
ATOM     23  H   UNL     1       5.151  13.600  18.310  0.00  0.00    +0.000 HD
ENDROOT
BRANCH  16  24
ATOM     24  C   UNL     1       1.485   9.166  19.046  0.00  0.00    +0.000 A 
ATOM     25  C   UNL     1       2.247   9.050  17.868  0.00  0.00    +0.000 A 
ATOM     26  C   UNL     1       2.978   7.892  17.587  0.00  0.00    +0.000 A 
ATOM     27  C   UNL     1       2.974   6.839  18.491  0.00  0.00    +0.000 A 
ATOM     28  F   UNL     1       3.676   5.734  18.203  0.00  0.00    +0.000 F 
ATOM     29  C   UNL     1       2.248   6.931  19.673  0.00  0.00    +0.000 A 
ATOM     30 CL   UNL     1       2.246   5.642  20.815  0.00  0.00    +0.000 Cl
ATOM     31  C   UNL     1       1.508   8.082  19.946  0.00  0.00    +0.000 A 
ENDBRANCH  16  24
TORSDOF 1
ENDMDL
MODEL 7
REMARK VINA RESULT:      -7.2      9.067     11.896
REMARK  Name = 
REMARK  2 active torsions:
REMARK  status: ('A' for Active; 'I' for Inactive)
REMARK    1  A    between atoms: C_1  and  C_2
REMARK    2  A    between atoms: C_16  and  C_17
REMARK                            x       y       z     vdW  Elec       q    Type
REMARK                         _______ _______ _______ _____ _____    ______ ____
ROOT
ATOM      1  C   UNL     1      -7.125  14.963  23.395  0.00  0.00    +0.000 C 
ATOM      2  C   UNL     1      -5.858  14.278  23.737  0.00  0.00    +0.000 C 
ATOM      3  N   UNL     1      -4.715  14.857  23.855  0.00  0.00    +0.000 NA
ATOM      4  C   UNL     1      -3.770  13.750  24.156  0.00  0.00    +0.000 C 
ATOM      5  C   UNL     1      -2.992  14.133  25.422  0.00  0.00    +0.000 C 
ATOM      6  C   UNL     1      -1.987  15.273  25.101  0.00  0.00    +0.000 C 
ATOM      7  C   UNL     1      -2.631  16.567  24.543  0.00  0.00    +0.000 C 
ATOM      8  C   UNL     1      -1.624  17.694  24.387  0.00  0.00    +0.000 C 
ATOM      9  C   UNL     1      -0.905  17.933  25.697  0.00  0.00    +0.000 C 
ATOM     10  O   UNL     1      -0.277  16.741  26.160  0.00  0.00    +0.000 OA
ATOM     11  C   UNL     1      -1.199  15.660  26.377  0.00  0.00    +0.000 C 
ATOM     12  O   UNL     1      -1.007  14.793  24.155  0.00  0.00    +0.000 OA
ATOM     13  C   UNL     1      -1.508  14.136  23.067  0.00  0.00    +0.000 A 
ATOM     14  C   UNL     1      -0.650  14.042  21.976  0.00  0.00    +0.000 A 
ATOM     15  C   UNL     1      -1.071  13.420  20.798  0.00  0.00    +0.000 A 
ATOM     16  C   UNL     1      -2.346  12.844  20.699  0.00  0.00    +0.000 A 
ATOM     17  C   UNL     1      -3.173  12.919  21.831  0.00  0.00    +0.000 A 
ATOM     18  C   UNL     1      -2.786  13.583  23.010  0.00  0.00    +0.000 A 
ATOM     19  N   UNL     1      -4.568  12.497  24.357  0.00  0.00    +0.000 NA
ATOM     20  C   UNL     1      -5.755  12.812  23.955  0.00  0.00    +0.000 C 
ATOM     21  N   UNL     1      -6.771  11.937  23.705  0.00  0.00    +0.000 N 
ATOM     22  H   UNL     1      -6.438  10.986  23.575  0.00  0.00    +0.000 HD
ATOM     23  H   UNL     1      -7.430  12.211  22.983  0.00  0.00    +0.000 HD
ENDROOT
BRANCH  16  24
ATOM     24  C   UNL     1      -2.830  12.220  19.451  0.00  0.00    +0.000 A 
ATOM     25  C   UNL     1      -1.939  11.778  18.454  0.00  0.00    +0.000 A 
ATOM     26  C   UNL     1      -2.405  11.221  17.259  0.00  0.00    +0.000 A 
ATOM     27  C   UNL     1      -3.770  11.080  17.051  0.00  0.00    +0.000 A 
ATOM     28  F   UNL     1      -4.200  10.550  15.897  0.00  0.00    +0.000 F 
ATOM     29  C   UNL     1      -4.674  11.489  18.025  0.00  0.00    +0.000 A 
ATOM     30 CL   UNL     1      -6.371  11.305  17.792  0.00  0.00    +0.000 Cl
ATOM     31  C   UNL     1      -4.209  12.057  19.211  0.00  0.00    +0.000 A 
ENDBRANCH  16  24
TORSDOF 1
ENDMDL
MODEL 8
REMARK VINA RESULT:      -7.1      7.746     12.356
REMARK  Name = 
REMARK  2 active torsions:
REMARK  status: ('A' for Active; 'I' for Inactive)
REMARK    1  A    between atoms: C_1  and  C_2
REMARK    2  A    between atoms: C_16  and  C_17
REMARK                            x       y       z     vdW  Elec       q    Type
REMARK                         _______ _______ _______ _____ _____    ______ ____
ROOT
ATOM      1  C   UNL     1      -6.225  12.594  18.227  0.00  0.00    +0.000 C 
ATOM      2  C   UNL     1      -6.199  12.703  19.703  0.00  0.00    +0.000 C 
ATOM      3  N   UNL     1      -5.891  13.766  20.359  0.00  0.00    +0.000 NA
ATOM      4  C   UNL     1      -5.968  13.355  21.785  0.00  0.00    +0.000 C 
ATOM      5  C   UNL     1      -6.877  14.357  22.510  0.00  0.00    +0.000 C 
ATOM      6  C   UNL     1      -6.150  15.722  22.656  0.00  0.00    +0.000 C 
ATOM      7  C   UNL     1      -5.717  16.372  21.317  0.00  0.00    +0.000 C 
ATOM      8  C   UNL     1      -5.146  17.766  21.510  0.00  0.00    +0.000 C 
ATOM      9  C   UNL     1      -6.128  18.630  22.272  0.00  0.00    +0.000 C 
ATOM     10  O   UNL     1      -6.467  18.035  23.521  0.00  0.00    +0.000 OA
ATOM     11  C   UNL     1      -7.065  16.734  23.389  0.00  0.00    +0.000 C 
ATOM     12  O   UNL     1      -4.985  15.555  23.492  0.00  0.00    +0.000 OA
ATOM     13  C   UNL     1      -4.179  14.497  23.180  0.00  0.00    +0.000 A 
ATOM     14  C   UNL     1      -2.882  14.563  23.680  0.00  0.00    +0.000 A 
ATOM     15  C   UNL     1      -1.964  13.551  23.394  0.00  0.00    +0.000 A 
ATOM     16  C   UNL     1      -2.332  12.432  22.633  0.00  0.00    +0.000 A 
ATOM     17  C   UNL     1      -3.659  12.375  22.177  0.00  0.00    +0.000 A 
ATOM     18  C   UNL     1      -4.586  13.406  22.414  0.00  0.00    +0.000 A 
ATOM     19  N   UNL     1      -6.527  11.964  21.841  0.00  0.00    +0.000 NA
ATOM     20  C   UNL     1      -6.502  11.567  20.611  0.00  0.00    +0.000 C 
ATOM     21  N   UNL     1      -6.671  10.283  20.186  0.00  0.00    +0.000 N 
ATOM     22  H   UNL     1      -6.525   9.606  20.930  0.00  0.00    +0.000 HD
ATOM     23  H   UNL     1      -6.178  10.024  19.336  0.00  0.00    +0.000 HD
ENDROOT
BRANCH  16  24
ATOM     24  C   UNL     1      -1.366  11.371  22.280  0.00  0.00    +0.000 A 
ATOM     25  C   UNL     1      -0.949  10.411  23.222  0.00  0.00    +0.000 A 
ATOM     26  C   UNL     1      -0.007   9.431  22.891  0.00  0.00    +0.000 A 
ATOM     27  C   UNL     1       0.517   9.386  21.607  0.00  0.00    +0.000 A 
ATOM     28  F   UNL     1       1.423   8.444  21.309  0.00  0.00    +0.000 F 
ATOM     29  C   UNL     1       0.110  10.307  20.649  0.00  0.00    +0.000 A 
ATOM     30 CL   UNL     1       0.735  10.254  19.045  0.00  0.00    +0.000 Cl
ATOM     31  C   UNL     1      -0.820  11.292  20.984  0.00  0.00    +0.000 A 
ENDBRANCH  16  24
TORSDOF 1
ENDMDL
MODEL 9
REMARK VINA RESULT:      -7.0      8.346     11.956
REMARK  Name = 
REMARK  2 active torsions:
REMARK  status: ('A' for Active; 'I' for Inactive)
REMARK    1  A    between atoms: C_1  and  C_2
REMARK    2  A    between atoms: C_16  and  C_17
REMARK                            x       y       z     vdW  Elec       q    Type
REMARK                         _______ _______ _______ _____ _____    ______ ____
ROOT
ATOM      1  C   UNL     1      -6.453  14.703  17.410  0.00  0.00    +0.000 C 
ATOM      2  C   UNL     1      -6.102  13.628  18.364  0.00  0.00    +0.000 C 
ATOM      3  N   UNL     1      -6.121  13.743  19.645  0.00  0.00    +0.000 NA
ATOM      4  C   UNL     1      -5.650  12.424  20.142  0.00  0.00    +0.000 C 
ATOM      5  C   UNL     1      -6.682  11.912  21.156  0.00  0.00    +0.000 C 
ATOM      6  C   UNL     1      -6.595  12.746  22.464  0.00  0.00    +0.000 C 
ATOM      7  C   UNL     1      -6.838  14.266  22.282  0.00  0.00    +0.000 C 
ATOM      8  C   UNL     1      -6.888  15.006  23.607  0.00  0.00    +0.000 C 
ATOM      9  C   UNL     1      -7.915  14.370  24.520  0.00  0.00    +0.000 C 
ATOM     10  O   UNL     1      -7.638  12.987  24.713  0.00  0.00    +0.000 OA
ATOM     11  C   UNL     1      -7.635  12.230  23.490  0.00  0.00    +0.000 C 
ATOM     12  O   UNL     1      -5.301  12.548  23.071  0.00  0.00    +0.000 OA
ATOM     13  C   UNL     1      -4.230  12.671  22.233  0.00  0.00    +0.000 A 
ATOM     14  C   UNL     1      -3.005  12.897  22.854  0.00  0.00    +0.000 A 
ATOM     15  C   UNL     1      -1.848  13.071  22.090  0.00  0.00    +0.000 A 
ATOM     16  C   UNL     1      -1.884  12.984  20.691  0.00  0.00    +0.000 A 
ATOM     17  C   UNL     1      -3.127  12.713  20.096  0.00  0.00    +0.000 A 
ATOM     18  C   UNL     1      -4.312  12.583  20.844  0.00  0.00    +0.000 A 
ATOM     19  N   UNL     1      -5.527  11.500  18.967  0.00  0.00    +0.000 NA
ATOM     20  C   UNL     1      -5.648  12.277  17.942  0.00  0.00    +0.000 C 
ATOM     21  N   UNL     1      -5.356  11.946  16.652  0.00  0.00    +0.000 N 
ATOM     22  H   UNL     1      -4.751  11.132  16.589  0.00  0.00    +0.000 HD
ATOM     23  H   UNL     1      -5.033  12.704  16.058  0.00  0.00    +0.000 HD
ENDROOT
BRANCH  16  24
ATOM     24  C   UNL     1      -0.683  13.207  19.860  0.00  0.00    +0.000 A 
ATOM     25  C   UNL     1       0.050  12.134  19.320  0.00  0.00    +0.000 A 
ATOM     26  C   UNL     1       1.207  12.351  18.565  0.00  0.00    +0.000 A 
ATOM     27  C   UNL     1       1.637  13.648  18.322  0.00  0.00    +0.000 A 
ATOM     28  F   UNL     1       2.751  13.839  17.602  0.00  0.00    +0.000 F 
ATOM     29  C   UNL     1       0.923  14.730  18.825  0.00  0.00    +0.000 A 
ATOM     30 CL   UNL     1       1.431  16.347  18.518  0.00  0.00    +0.000 Cl
ATOM     31  C   UNL     1      -0.223  14.511  19.590  0.00  0.00    +0.000 A 
ENDBRANCH  16  24
TORSDOF 1
ENDMDL
