MODEL 1
REMARK VINA RESULT:      -8.9      0.000      0.000
REMARK  Name = 
REMARK  8 active torsions:
REMARK  status: ('A' for Active; 'I' for Inactive)
REMARK    1  A    between atoms: C_1  and  O_2
REMARK    2  A    between atoms: O_2  and  C_3
REMARK    3  A    between atoms: C_6  and  C_7
REMARK    4  A    between atoms: C_8  and  C_9
REMARK    5  A    between atoms: C_9  and  C_10
REMARK    6  A    between atoms: C_10  and  O_11
REMARK    7  A    between atoms: O_11  and  C_12
REMARK    8  A    between atoms: N_21  and  C_22
REMARK                            x       y       z     vdW  Elec       q    Type
REMARK                         _______ _______ _______ _____ _____    ______ ____
ROOT
ATOM      1  C   UNL     1       3.584   6.623  18.747  0.00  0.00    +0.000 C 
ATOM      2  C   UNL     1       4.192   6.454  17.312  0.00  0.00    +0.000 C 
ATOM      3  C   UNL     1       3.764   4.982  17.440  0.00  0.00    +0.000 C 
ATOM      4  O   UNL     1       3.904   3.994  16.756  0.00  0.00    +0.000 OA
ATOM      5  N   UNL     1       3.186   5.213  18.644  0.00  0.00    +0.000 N 
ENDROOT
BRANCH   1   9
ATOM      6  C   UNL     1       0.461   9.733  19.242  0.00  0.00    +0.000 A 
ATOM      7  C   UNL     1       0.845   8.944  20.321  0.00  0.00    +0.000 A 
ATOM      8  C   UNL     1       1.832   7.965  20.172  0.00  0.00    +0.000 A 
ATOM      9  C   UNL     1       2.459   7.728  18.938  0.00  0.00    +0.000 A 
ATOM     10  C   UNL     1       2.036   8.530  17.859  0.00  0.00    +0.000 A 
ATOM     11  C   UNL     1       1.055   9.520  18.001  0.00  0.00    +0.000 A 
BRANCH   6  13
ATOM     12  C   UNL     1      -0.956  11.430  18.403  0.00  0.00    +0.000 C 
ATOM     13  O   UNL     1      -0.519  10.646  19.507  0.00  0.00    +0.000 OA
ENDBRANCH   6  13
ENDBRANCH   1   9
BRANCH   5  14
ATOM     14  C   UNL     1       2.601   4.355  19.575  0.00  0.00    +0.000 A 
ATOM     15  C   UNL     1       3.385   3.700  20.532  0.00  0.00    +0.000 A 
ATOM     16  C   UNL     1       2.808   2.806  21.439  0.00  0.00    +0.000 A 
ATOM     17  C   UNL     1       1.443   2.538  21.381  0.00  0.00    +0.000 A 
ATOM     18  C   UNL     1       0.651   3.191  20.441  0.00  0.00    +0.000 A 
ATOM     19  C   UNL     1       1.224   4.112  19.557  0.00  0.00    +0.000 A 
ENDBRANCH   5  14
BRANCH   2  20
ATOM     20  C   UNL     1       5.679   6.711  17.081  0.00  0.00    +0.000 C 
BRANCH  20  21
ATOM     21  C   UNL     1       6.422   5.454  16.641  0.00  0.00    +0.000 C 
BRANCH  21  22
ATOM     22  O   UNL     1       7.256   5.766  15.525  0.00  0.00    +0.000 OA
BRANCH  22  23
ATOM     23  C   UNL     1       6.993   5.025  14.402  0.00  0.00    +0.000 A 
ATOM     24  C   UNL     1       5.912   4.143  14.501  0.00  0.00    +0.000 A 
ATOM     25  C   UNL     1       5.550   3.348  13.413  0.00  0.00    +0.000 A 
ATOM     26  C   UNL     1       6.265   3.449  12.225  0.00  0.00    +0.000 A 
ATOM     27  F   UNL     1       5.918   2.692  11.177  0.00  0.00    +0.000 F 
ATOM     28  C   UNL     1       7.331   4.331  12.106  0.00  0.00    +0.000 A 
ATOM     29  C   UNL     1       7.695   5.123  13.196  0.00  0.00    +0.000 A 
ENDBRANCH  22  23
ENDBRANCH  21  22
ENDBRANCH  20  21
ENDBRANCH   2  20
TORSDOF 7
ENDMDL
MODEL 2
REMARK VINA RESULT:      -8.8      0.518      1.030
REMARK  Name = 
REMARK  8 active torsions:
REMARK  status: ('A' for Active; 'I' for Inactive)
REMARK    1  A    between atoms: C_1  and  O_2
REMARK    2  A    between atoms: O_2  and  C_3
REMARK    3  A    between atoms: C_6  and  C_7
REMARK    4  A    between atoms: C_8  and  C_9
REMARK    5  A    between atoms: C_9  and  C_10
REMARK    6  A    between atoms: C_10  and  O_11
REMARK    7  A    between atoms: O_11  and  C_12
REMARK    8  A    between atoms: N_21  and  C_22
REMARK                            x       y       z     vdW  Elec       q    Type
REMARK                         _______ _______ _______ _____ _____    ______ ____
ROOT
ATOM      1  C   UNL     1       3.918   6.329  18.873  0.00  0.00    +0.000 C 
ATOM      2  C   UNL     1       4.697   6.098  17.532  0.00  0.00    +0.000 C 
ATOM      3  C   UNL     1       4.189   4.650  17.631  0.00  0.00    +0.000 C 
ATOM      4  O   UNL     1       4.371   3.640  16.990  0.00  0.00    +0.000 OA
ATOM      5  N   UNL     1       3.473   4.934  18.747  0.00  0.00    +0.000 N 
ENDROOT
BRANCH   1   9
ATOM      6  C   UNL     1       0.902   9.580  18.904  0.00  0.00    +0.000 A 
ATOM      7  C   UNL     1       1.071   8.767  20.020  0.00  0.00    +0.000 A 
ATOM      8  C   UNL     1       2.023   7.743  20.018  0.00  0.00    +0.000 A 
ATOM      9  C   UNL     1       2.829   7.484  18.897  0.00  0.00    +0.000 A 
ATOM     10  C   UNL     1       2.622   8.313  17.774  0.00  0.00    +0.000 A 
ATOM     11  C   UNL     1       1.677   9.346  17.771  0.00  0.00    +0.000 A 
BRANCH   6  13
ATOM     12  C   UNL     1       0.354  11.878  18.797  0.00  0.00    +0.000 C 
ATOM     13  O   UNL     1      -0.065  10.537  19.021  0.00  0.00    +0.000 OA
ENDBRANCH   6  13
ENDBRANCH   1   9
BRANCH   5  14
ATOM     14  C   UNL     1       2.736   4.125  19.611  0.00  0.00    +0.000 A 
ATOM     15  C   UNL     1       1.346   4.027  19.484  0.00  0.00    +0.000 A 
ATOM     16  C   UNL     1       0.600   3.251  20.376  0.00  0.00    +0.000 A 
ATOM     17  C   UNL     1       1.234   2.585  21.421  0.00  0.00    +0.000 A 
ATOM     18  C   UNL     1       2.618   2.667  21.551  0.00  0.00    +0.000 A 
ATOM     19  C   UNL     1       3.367   3.415  20.638  0.00  0.00    +0.000 A 
ENDBRANCH   5  14
BRANCH   2  20
ATOM     20  C   UNL     1       6.211   6.287  17.490  0.00  0.00    +0.000 C 
BRANCH  20  21
ATOM     21  C   UNL     1       6.895   5.277  16.573  0.00  0.00    +0.000 C 
BRANCH  21  22
ATOM     22  O   UNL     1       7.098   5.869  15.290  0.00  0.00    +0.000 OA
BRANCH  22  23
ATOM     23  C   UNL     1       6.815   5.039  14.237  0.00  0.00    +0.000 A 
ATOM     24  C   UNL     1       5.602   4.349  14.322  0.00  0.00    +0.000 A 
ATOM     25  C   UNL     1       5.210   3.485  13.300  0.00  0.00    +0.000 A 
ATOM     26  C   UNL     1       6.029   3.326  12.188  0.00  0.00    +0.000 A 
ATOM     27  F   UNL     1       5.655   2.502  11.201  0.00  0.00    +0.000 F 
ATOM     28  C   UNL     1       7.230   4.016  12.081  0.00  0.00    +0.000 A 
ATOM     29  C   UNL     1       7.623   4.876  13.107  0.00  0.00    +0.000 A 
ENDBRANCH  22  23
ENDBRANCH  21  22
ENDBRANCH  20  21
ENDBRANCH   2  20
TORSDOF 7
ENDMDL
MODEL 3
REMARK VINA RESULT:      -8.8      0.168      1.271
REMARK  Name = 
REMARK  8 active torsions:
REMARK  status: ('A' for Active; 'I' for Inactive)
REMARK    1  A    between atoms: C_1  and  O_2
REMARK    2  A    between atoms: O_2  and  C_3
REMARK    3  A    between atoms: C_6  and  C_7
REMARK    4  A    between atoms: C_8  and  C_9
REMARK    5  A    between atoms: C_9  and  C_10
REMARK    6  A    between atoms: C_10  and  O_11
REMARK    7  A    between atoms: O_11  and  C_12
REMARK    8  A    between atoms: N_21  and  C_22
REMARK                            x       y       z     vdW  Elec       q    Type
REMARK                         _______ _______ _______ _____ _____    ______ ____
ROOT
ATOM      1  C   UNL     1       3.639   6.603  18.684  0.00  0.00    +0.000 C 
ATOM      2  C   UNL     1       4.249   6.479  17.245  0.00  0.00    +0.000 C 
ATOM      3  C   UNL     1       3.834   5.001  17.331  0.00  0.00    +0.000 C 
ATOM      4  O   UNL     1       3.983   4.034  16.620  0.00  0.00    +0.000 OA
ATOM      5  N   UNL     1       3.254   5.192  18.542  0.00  0.00    +0.000 N 
ENDROOT
BRANCH   1   9
ATOM      6  C   UNL     1       0.488   9.669  19.266  0.00  0.00    +0.000 A 
ATOM      7  C   UNL     1       0.883   8.858  20.324  0.00  0.00    +0.000 A 
ATOM      8  C   UNL     1       1.880   7.892  20.148  0.00  0.00    +0.000 A 
ATOM      9  C   UNL     1       2.505   7.691  18.906  0.00  0.00    +0.000 A 
ATOM     10  C   UNL     1       2.069   8.515  17.848  0.00  0.00    +0.000 A 
ATOM     11  C   UNL     1       1.079   9.491  18.018  0.00  0.00    +0.000 A 
BRANCH   6  13
ATOM     12  C   UNL     1      -0.963  11.358  18.470  0.00  0.00    +0.000 C 
ATOM     13  O   UNL     1      -0.501  10.565  19.557  0.00  0.00    +0.000 OA
ENDBRANCH   6  13
ENDBRANCH   1   9
BRANCH   5  14
ATOM     14  C   UNL     1       2.678   4.304  19.449  0.00  0.00    +0.000 A 
ATOM     15  C   UNL     1       1.287   4.195  19.556  0.00  0.00    +0.000 A 
ATOM     16  C   UNL     1       0.707   3.337  20.495  0.00  0.00    +0.000 A 
ATOM     17  C   UNL     1       1.512   2.597  21.355  0.00  0.00    +0.000 A 
ATOM     18  C   UNL     1       2.897   2.688  21.251  0.00  0.00    +0.000 A 
ATOM     19  C   UNL     1       3.477   3.520  20.289  0.00  0.00    +0.000 A 
ENDBRANCH   5  14
BRANCH   2  20
ATOM     20  C   UNL     1       5.733   6.757  17.021  0.00  0.00    +0.000 C 
BRANCH  20  21
ATOM     21  C   UNL     1       6.525   5.482  16.746  0.00  0.00    +0.000 C 
BRANCH  21  22
ATOM     22  O   UNL     1       7.364   5.686  15.609  0.00  0.00    +0.000 OA
BRANCH  22  23
ATOM     23  C   UNL     1       7.012   4.945  14.511  0.00  0.00    +0.000 A 
ATOM     24  C   UNL     1       7.730   5.218  13.343  0.00  0.00    +0.000 A 
ATOM     25  C   UNL     1       7.459   4.514  12.169  0.00  0.00    +0.000 A 
ATOM     26  C   UNL     1       6.479   3.529  12.173  0.00  0.00    +0.000 A 
ATOM     27  F   UNL     1       6.219   2.847  11.051  0.00  0.00    +0.000 F 
ATOM     28  C   UNL     1       5.767   3.235  13.330  0.00  0.00    +0.000 A 
ATOM     29  C   UNL     1       6.035   3.943  14.502  0.00  0.00    +0.000 A 
ENDBRANCH  22  23
ENDBRANCH  21  22
ENDBRANCH  20  21
ENDBRANCH   2  20
TORSDOF 7
ENDMDL
MODEL 4
REMARK VINA RESULT:      -8.7      0.483      1.009
REMARK  Name = 
REMARK  8 active torsions:
REMARK  status: ('A' for Active; 'I' for Inactive)
REMARK    1  A    between atoms: C_1  and  O_2
REMARK    2  A    between atoms: O_2  and  C_3
REMARK    3  A    between atoms: C_6  and  C_7
REMARK    4  A    between atoms: C_8  and  C_9
REMARK    5  A    between atoms: C_9  and  C_10
REMARK    6  A    between atoms: C_10  and  O_11
REMARK    7  A    between atoms: O_11  and  C_12
REMARK    8  A    between atoms: N_21  and  C_22
REMARK                            x       y       z     vdW  Elec       q    Type
REMARK                         _______ _______ _______ _____ _____    ______ ____
ROOT
ATOM      1  C   UNL     1       3.722   6.608  18.704  0.00  0.00    +0.000 C 
ATOM      2  C   UNL     1       4.465   6.373  17.344  0.00  0.00    +0.000 C 
ATOM      3  C   UNL     1       3.922   4.937  17.439  0.00  0.00    +0.000 C 
ATOM      4  O   UNL     1       4.063   3.930  16.783  0.00  0.00    +0.000 OA
ATOM      5  N   UNL     1       3.238   5.228  18.573  0.00  0.00    +0.000 N 
ENDROOT
BRANCH   1   9
ATOM      6  C   UNL     1       0.746   9.889  18.908  0.00  0.00    +0.000 A 
ATOM      7  C   UNL     1       1.483   9.680  17.747  0.00  0.00    +0.000 A 
ATOM      8  C   UNL     1       2.420   8.644  17.675  0.00  0.00    +0.000 A 
ATOM      9  C   UNL     1       2.666   7.792  18.764  0.00  0.00    +0.000 A 
ATOM     10  C   UNL     1       1.917   8.041  19.933  0.00  0.00    +0.000 A 
ATOM     11  C   UNL     1       0.970   9.070  20.011  0.00  0.00    +0.000 A 
BRANCH   6  13
ATOM     12  C   UNL     1      -1.340  10.771  19.590  0.00  0.00    +0.000 C 
ATOM     13  O   UNL     1      -0.129  10.938  18.862  0.00  0.00    +0.000 OA
ENDBRANCH   6  13
ENDBRANCH   1   9
BRANCH   5  14
ATOM     14  C   UNL     1       2.500   4.429  19.445  0.00  0.00    +0.000 A 
ATOM     15  C   UNL     1       2.891   4.279  20.780  0.00  0.00    +0.000 A 
ATOM     16  C   UNL     1       2.177   3.444  21.645  0.00  0.00    +0.000 A 
ATOM     17  C   UNL     1       1.080   2.729  21.176  0.00  0.00    +0.000 A 
ATOM     18  C   UNL     1       0.675   2.877  19.852  0.00  0.00    +0.000 A 
ATOM     19  C   UNL     1       1.368   3.739  18.997  0.00  0.00    +0.000 A 
ENDBRANCH   5  14
BRANCH   2  20
ATOM     20  C   UNL     1       5.983   6.522  17.269  0.00  0.00    +0.000 C 
BRANCH  20  21
ATOM     21  C   UNL     1       6.652   5.317  16.617  0.00  0.00    +0.000 C 
BRANCH  21  22
ATOM     22  O   UNL     1       7.311   5.734  15.421  0.00  0.00    +0.000 OA
BRANCH  22  23
ATOM     23  C   UNL     1       6.999   4.986  14.316  0.00  0.00    +0.000 A 
ATOM     24  C   UNL     1       5.869   4.170  14.440  0.00  0.00    +0.000 A 
ATOM     25  C   UNL     1       5.456   3.374  13.371  0.00  0.00    +0.000 A 
ATOM     26  C   UNL     1       6.167   3.409  12.177  0.00  0.00    +0.000 A 
ATOM     27  F   UNL     1       5.770   2.651  11.147  0.00  0.00    +0.000 F 
ATOM     28  C   UNL     1       7.281   4.226  12.034  0.00  0.00    +0.000 A 
ATOM     29  C   UNL     1       7.697   5.017  13.105  0.00  0.00    +0.000 A 
ENDBRANCH  22  23
ENDBRANCH  21  22
ENDBRANCH  20  21
ENDBRANCH   2  20
TORSDOF 7
ENDMDL
MODEL 5
REMARK VINA RESULT:      -8.6      3.213      7.991
REMARK  Name = 
REMARK  8 active torsions:
REMARK  status: ('A' for Active; 'I' for Inactive)
REMARK    1  A    between atoms: C_1  and  O_2
REMARK    2  A    between atoms: O_2  and  C_3
REMARK    3  A    between atoms: C_6  and  C_7
REMARK    4  A    between atoms: C_8  and  C_9
REMARK    5  A    between atoms: C_9  and  C_10
REMARK    6  A    between atoms: C_10  and  O_11
REMARK    7  A    between atoms: O_11  and  C_12
REMARK    8  A    between atoms: N_21  and  C_22
REMARK                            x       y       z     vdW  Elec       q    Type
REMARK                         _______ _______ _______ _____ _____    ______ ____
ROOT
ATOM      1  C   UNL     1       2.493   6.622  18.059  0.00  0.00    +0.000 C 
ATOM      2  C   UNL     1       2.462   8.106  18.562  0.00  0.00    +0.000 C 
ATOM      3  C   UNL     1       2.078   7.505  19.925  0.00  0.00    +0.000 C 
ATOM      4  O   UNL     1       1.764   7.965  20.998  0.00  0.00    +0.000 OA
ATOM      5  N   UNL     1       2.199   6.242  19.447  0.00  0.00    +0.000 N 
ENDROOT
BRANCH   1   9
ATOM      6  C   UNL     1       6.234   5.134  16.199  0.00  0.00    +0.000 A 
ATOM      7  C   UNL     1       6.139   6.454  16.627  0.00  0.00    +0.000 A 
ATOM      8  C   UNL     1       4.963   6.928  17.218  0.00  0.00    +0.000 A 
ATOM      9  C   UNL     1       3.837   6.106  17.388  0.00  0.00    +0.000 A 
ATOM     10  C   UNL     1       3.958   4.778  16.928  0.00  0.00    +0.000 A 
ATOM     11  C   UNL     1       5.135   4.293  16.343  0.00  0.00    +0.000 A 
BRANCH   6  13
ATOM     12  C   UNL     1       7.452   4.765  14.205  0.00  0.00    +0.000 C 
ATOM     13  O   UNL     1       7.427   4.792  15.627  0.00  0.00    +0.000 OA
ENDBRANCH   6  13
ENDBRANCH   1   9
BRANCH   5  14
ATOM     14  C   UNL     1       1.924   5.000  20.018  0.00  0.00    +0.000 A 
ATOM     15  C   UNL     1       2.463   4.652  21.262  0.00  0.00    +0.000 A 
ATOM     16  C   UNL     1       2.224   3.392  21.818  0.00  0.00    +0.000 A 
ATOM     17  C   UNL     1       1.465   2.456  21.122  0.00  0.00    +0.000 A 
ATOM     18  C   UNL     1       0.915   2.793  19.889  0.00  0.00    +0.000 A 
ATOM     19  C   UNL     1       1.125   4.066  19.350  0.00  0.00    +0.000 A 
ENDBRANCH   5  14
BRANCH   2  20
ATOM     20  C   UNL     1       1.472   9.096  17.953  0.00  0.00    +0.000 C 
BRANCH  20  21
ATOM     21  C   UNL     1       0.658   9.828  19.014  0.00  0.00    +0.000 C 
BRANCH  21  22
ATOM     22  O   UNL     1       0.064  10.989  18.434  0.00  0.00    +0.000 OA
BRANCH  22  23
ATOM     23  C   UNL     1      -1.279  10.869  18.186  0.00  0.00    +0.000 A 
ATOM     24  C   UNL     1      -2.101  11.779  18.859  0.00  0.00    +0.000 A 
ATOM     25  C   UNL     1      -3.483  11.752  18.670  0.00  0.00    +0.000 A 
ATOM     26  C   UNL     1      -4.036  10.823  17.797  0.00  0.00    +0.000 A 
ATOM     27  F   UNL     1      -5.361  10.797  17.608  0.00  0.00    +0.000 F 
ATOM     28  C   UNL     1      -3.231   9.923  17.109  0.00  0.00    +0.000 A 
ATOM     29  C   UNL     1      -1.849   9.947  17.302  0.00  0.00    +0.000 A 
ENDBRANCH  22  23
ENDBRANCH  21  22
ENDBRANCH  20  21
ENDBRANCH   2  20
TORSDOF 7
ENDMDL
MODEL 6
REMARK VINA RESULT:      -8.6      3.206      8.008
REMARK  Name = 
REMARK  8 active torsions:
REMARK  status: ('A' for Active; 'I' for Inactive)
REMARK    1  A    between atoms: C_1  and  O_2
REMARK    2  A    between atoms: O_2  and  C_3
REMARK    3  A    between atoms: C_6  and  C_7
REMARK    4  A    between atoms: C_8  and  C_9
REMARK    5  A    between atoms: C_9  and  C_10
REMARK    6  A    between atoms: C_10  and  O_11
REMARK    7  A    between atoms: O_11  and  C_12
REMARK    8  A    between atoms: N_21  and  C_22
REMARK                            x       y       z     vdW  Elec       q    Type
REMARK                         _______ _______ _______ _____ _____    ______ ____
ROOT
ATOM      1  C   UNL     1       2.545   6.585  18.010  0.00  0.00    +0.000 C 
ATOM      2  C   UNL     1       2.495   8.065  18.525  0.00  0.00    +0.000 C 
ATOM      3  C   UNL     1       2.110   7.449  19.881  0.00  0.00    +0.000 C 
ATOM      4  O   UNL     1       1.785   7.897  20.956  0.00  0.00    +0.000 OA
ATOM      5  N   UNL     1       2.247   6.191  19.393  0.00  0.00    +0.000 N 
ENDROOT
BRANCH   1   9
ATOM      6  C   UNL     1       6.333   5.247  16.133  0.00  0.00    +0.000 A 
ATOM      7  C   UNL     1       5.268   4.364  16.273  0.00  0.00    +0.000 A 
ATOM      8  C   UNL     1       4.069   4.781  16.860  0.00  0.00    +0.000 A 
ATOM      9  C   UNL     1       3.897   6.090  17.342  0.00  0.00    +0.000 A 
ATOM     10  C   UNL     1       5.001   6.956  17.203  0.00  0.00    +0.000 A 
ATOM     11  C   UNL     1       6.202   6.549  16.608  0.00  0.00    +0.000 A 
BRANCH   6  13
ATOM     12  C   UNL     1       7.517   4.794  14.136  0.00  0.00    +0.000 C 
ATOM     13  O   UNL     1       7.454   4.722  15.556  0.00  0.00    +0.000 OA
ENDBRANCH   6  13
ENDBRANCH   1   9
BRANCH   5  14
ATOM     14  C   UNL     1       1.983   4.942  19.954  0.00  0.00    +0.000 A 
ATOM     15  C   UNL     1       1.199   4.005  19.271  0.00  0.00    +0.000 A 
ATOM     16  C   UNL     1       0.896   2.769  19.850  0.00  0.00    +0.000 A 
ATOM     17  C   UNL     1       1.353   2.467  21.129  0.00  0.00    +0.000 A 
ATOM     18  C   UNL     1       2.143   3.387  21.814  0.00  0.00    +0.000 A 
ATOM     19  C   UNL     1       2.474   4.609  21.220  0.00  0.00    +0.000 A 
ENDBRANCH   5  14
BRANCH   2  20
ATOM     20  C   UNL     1       1.497   9.049  17.918  0.00  0.00    +0.000 C 
BRANCH  20  21
ATOM     21  C   UNL     1       0.643   9.736  18.979  0.00  0.00    +0.000 C 
BRANCH  21  22
ATOM     22  O   UNL     1       0.068  10.920  18.427  0.00  0.00    +0.000 OA
BRANCH  22  23
ATOM     23  C   UNL     1      -1.272  10.821  18.154  0.00  0.00    +0.000 A 
ATOM     24  C   UNL     1      -2.096  11.709  18.852  0.00  0.00    +0.000 A 
ATOM     25  C   UNL     1      -3.476  11.701  18.642  0.00  0.00    +0.000 A 
ATOM     26  C   UNL     1      -4.022  10.812  17.724  0.00  0.00    +0.000 A 
ATOM     27  F   UNL     1      -5.345  10.804  17.516  0.00  0.00    +0.000 F 
ATOM     28  C   UNL     1      -3.214   9.934  17.012  0.00  0.00    +0.000 A 
ATOM     29  C   UNL     1      -1.836   9.940  17.226  0.00  0.00    +0.000 A 
ENDBRANCH  22  23
ENDBRANCH  21  22
ENDBRANCH  20  21
ENDBRANCH   2  20
TORSDOF 7
ENDMDL
MODEL 7
REMARK VINA RESULT:      -8.6      3.102      7.882
REMARK  Name = 
REMARK  8 active torsions:
REMARK  status: ('A' for Active; 'I' for Inactive)
REMARK    1  A    between atoms: C_1  and  O_2
REMARK    2  A    between atoms: O_2  and  C_3
REMARK    3  A    between atoms: C_6  and  C_7
REMARK    4  A    between atoms: C_8  and  C_9
REMARK    5  A    between atoms: C_9  and  C_10
REMARK    6  A    between atoms: C_10  and  O_11
REMARK    7  A    between atoms: O_11  and  C_12
REMARK    8  A    between atoms: N_21  and  C_22
REMARK                            x       y       z     vdW  Elec       q    Type
REMARK                         _______ _______ _______ _____ _____    ______ ____
ROOT
ATOM      1  C   UNL     1       2.479   6.595  18.042  0.00  0.00    +0.000 C 
ATOM      2  C   UNL     1       2.387   8.081  18.533  0.00  0.00    +0.000 C 
ATOM      3  C   UNL     1       1.996   7.477  19.892  0.00  0.00    +0.000 C 
ATOM      4  O   UNL     1       1.645   7.935  20.955  0.00  0.00    +0.000 OA
ATOM      5  N   UNL     1       2.169   6.215  19.427  0.00  0.00    +0.000 N 
ENDROOT
BRANCH   1   9
ATOM      6  C   UNL     1       6.325   5.315  16.245  0.00  0.00    +0.000 A 
ATOM      7  C   UNL     1       5.260   4.424  16.334  0.00  0.00    +0.000 A 
ATOM      8  C   UNL     1       4.043   4.824  16.896  0.00  0.00    +0.000 A 
ATOM      9  C   UNL     1       3.852   6.120  17.402  0.00  0.00    +0.000 A 
ATOM     10  C   UNL     1       4.956   6.993  17.315  0.00  0.00    +0.000 A 
ATOM     11  C   UNL     1       6.175   6.605  16.746  0.00  0.00    +0.000 A 
BRANCH   6  13
ATOM     12  C   UNL     1       7.444   4.628  14.277  0.00  0.00    +0.000 C 
ATOM     13  O   UNL     1       7.465   4.806  15.689  0.00  0.00    +0.000 OA
ENDBRANCH   6  13
ENDBRANCH   1   9
BRANCH   5  14
ATOM     14  C   UNL     1       1.925   4.970  20.003  0.00  0.00    +0.000 A 
ATOM     15  C   UNL     1       2.466   4.642  21.251  0.00  0.00    +0.000 A 
ATOM     16  C   UNL     1       2.258   3.378  21.811  0.00  0.00    +0.000 A 
ATOM     17  C   UNL     1       1.528   2.419  21.116  0.00  0.00    +0.000 A 
ATOM     18  C   UNL     1       0.975   2.736  19.879  0.00  0.00    +0.000 A 
ATOM     19  C   UNL     1       1.154   4.012  19.335  0.00  0.00    +0.000 A 
ENDBRANCH   5  14
BRANCH   2  20
ATOM     20  C   UNL     1       1.377   9.033  17.896  0.00  0.00    +0.000 C 
BRANCH  20  21
ATOM     21  C   UNL     1       1.089  10.245  18.776  0.00  0.00    +0.000 C 
BRANCH  21  22
ATOM     22  O   UNL     1      -0.175  10.072  19.415  0.00  0.00    +0.000 OA
BRANCH  22  23
ATOM     23  C   UNL     1      -1.249  10.446  18.649  0.00  0.00    +0.000 A 
ATOM     24  C   UNL     1      -2.055  11.452  19.191  0.00  0.00    +0.000 A 
ATOM     25  C   UNL     1      -3.168  11.916  18.489  0.00  0.00    +0.000 A 
ATOM     26  C   UNL     1      -3.461  11.380  17.240  0.00  0.00    +0.000 A 
ATOM     27  F   UNL     1      -4.525  11.825  16.560  0.00  0.00    +0.000 F 
ATOM     28  C   UNL     1      -2.661  10.391  16.682  0.00  0.00    +0.000 A 
ATOM     29  C   UNL     1      -1.551   9.924  17.387  0.00  0.00    +0.000 A 
ENDBRANCH  22  23
ENDBRANCH  21  22
ENDBRANCH  20  21
ENDBRANCH   2  20
TORSDOF 7
ENDMDL
MODEL 8
REMARK VINA RESULT:      -8.5      3.098      7.903
REMARK  Name = 
REMARK  8 active torsions:
REMARK  status: ('A' for Active; 'I' for Inactive)
REMARK    1  A    between atoms: C_1  and  O_2
REMARK    2  A    between atoms: O_2  and  C_3
REMARK    3  A    between atoms: C_6  and  C_7
REMARK    4  A    between atoms: C_8  and  C_9
REMARK    5  A    between atoms: C_9  and  C_10
REMARK    6  A    between atoms: C_10  and  O_11
REMARK    7  A    between atoms: O_11  and  C_12
REMARK    8  A    between atoms: N_21  and  C_22
REMARK                            x       y       z     vdW  Elec       q    Type
REMARK                         _______ _______ _______ _____ _____    ______ ____
ROOT
ATOM      1  C   UNL     1       2.476   6.533  18.007  0.00  0.00    +0.000 C 
ATOM      2  C   UNL     1       2.432   8.030  18.469  0.00  0.00    +0.000 C 
ATOM      3  C   UNL     1       2.053   7.463  19.848  0.00  0.00    +0.000 C 
ATOM      4  O   UNL     1       1.735   7.950  20.909  0.00  0.00    +0.000 OA
ATOM      5  N   UNL     1       2.186   6.188  19.405  0.00  0.00    +0.000 N 
ENDROOT
BRANCH   1   9
ATOM      6  C   UNL     1       6.234   5.031  16.193  0.00  0.00    +0.000 A 
ATOM      7  C   UNL     1       6.052   6.393  16.407  0.00  0.00    +0.000 A 
ATOM      8  C   UNL     1       4.871   6.872  16.983  0.00  0.00    +0.000 A 
ATOM      9  C   UNL     1       3.824   6.011  17.350  0.00  0.00    +0.000 A 
ATOM     10  C   UNL     1       4.030   4.638  17.102  0.00  0.00    +0.000 A 
ATOM     11  C   UNL     1       5.213   4.148  16.535  0.00  0.00    +0.000 A 
BRANCH   6  13
ATOM     12  C   UNL     1       7.478   4.785  14.196  0.00  0.00    +0.000 C 
ATOM     13  O   UNL     1       7.422   4.685  15.614  0.00  0.00    +0.000 OA
ENDBRANCH   6  13
ENDBRANCH   1   9
BRANCH   5  14
ATOM     14  C   UNL     1       1.922   4.961  20.010  0.00  0.00    +0.000 A 
ATOM     15  C   UNL     1       2.484   4.642  21.252  0.00  0.00    +0.000 A 
ATOM     16  C   UNL     1       2.257   3.395  21.841  0.00  0.00    +0.000 A 
ATOM     17  C   UNL     1       1.485   2.443  21.182  0.00  0.00    +0.000 A 
ATOM     18  C   UNL     1       0.912   2.751  19.952  0.00  0.00    +0.000 A 
ATOM     19  C   UNL     1       1.111   4.011  19.379  0.00  0.00    +0.000 A 
ENDBRANCH   5  14
BRANCH   2  20
ATOM     20  C   UNL     1       1.432   8.994  17.833  0.00  0.00    +0.000 C 
BRANCH  20  21
ATOM     21  C   UNL     1       1.069  10.147  18.763  0.00  0.00    +0.000 C 
BRANCH  21  22
ATOM     22  O   UNL     1      -0.199   9.885  19.365  0.00  0.00    +0.000 OA
BRANCH  22  23
ATOM     23  C   UNL     1      -1.262  10.442  18.700  0.00  0.00    +0.000 A 
ATOM     24  C   UNL     1      -1.562   9.872  17.459  0.00  0.00    +0.000 A 
ATOM     25  C   UNL     1      -2.631  10.355  16.703  0.00  0.00    +0.000 A 
ATOM     26  C   UNL     1      -3.404  11.398  17.201  0.00  0.00    +0.000 A 
ATOM     27  F   UNL     1      -4.434  11.861  16.482  0.00  0.00    +0.000 F 
ATOM     28  C   UNL     1      -3.128  11.963  18.440  0.00  0.00    +0.000 A 
ATOM     29  C   UNL     1      -2.056  11.483  19.192  0.00  0.00    +0.000 A 
ENDBRANCH  22  23
ENDBRANCH  21  22
ENDBRANCH  20  21
ENDBRANCH   2  20
TORSDOF 7
ENDMDL
MODEL 9
REMARK VINA RESULT:      -8.5      4.419      7.668
REMARK  Name = 
REMARK  8 active torsions:
REMARK  status: ('A' for Active; 'I' for Inactive)
REMARK    1  A    between atoms: C_1  and  O_2
REMARK    2  A    between atoms: O_2  and  C_3
REMARK    3  A    between atoms: C_6  and  C_7
REMARK    4  A    between atoms: C_8  and  C_9
REMARK    5  A    between atoms: C_9  and  C_10
REMARK    6  A    between atoms: C_10  and  O_11
REMARK    7  A    between atoms: O_11  and  C_12
REMARK    8  A    between atoms: N_21  and  C_22
REMARK                            x       y       z     vdW  Elec       q    Type
REMARK                         _______ _______ _______ _____ _____    ______ ____
ROOT
ATOM      1  C   UNL     1       5.447   5.860  16.567  0.00  0.00    +0.000 C 
ATOM      2  C   UNL     1       6.625   6.381  17.460  0.00  0.00    +0.000 C 
ATOM      3  C   UNL     1       5.991   5.532  18.575  0.00  0.00    +0.000 C 
ATOM      4  O   UNL     1       6.220   5.366  19.751  0.00  0.00    +0.000 OA
ATOM      5  N   UNL     1       5.043   5.057  17.729  0.00  0.00    +0.000 N 
ENDROOT
BRANCH   1   9
ATOM      6  C   UNL     1       6.543   3.825  12.782  0.00  0.00    +0.000 A 
ATOM      7  C   UNL     1       5.275   3.658  13.328  0.00  0.00    +0.000 A 
ATOM      8  C   UNL     1       4.922   4.300  14.519  0.00  0.00    +0.000 A 
ATOM      9  C   UNL     1       5.827   5.119  15.215  0.00  0.00    +0.000 A 
ATOM     10  C   UNL     1       7.111   5.254  14.647  0.00  0.00    +0.000 A 
ATOM     11  C   UNL     1       7.470   4.622  13.450  0.00  0.00    +0.000 A 
BRANCH   6  13
ATOM     12  C   UNL     1       5.956   1.997  11.402  0.00  0.00    +0.000 C 
ATOM     13  O   UNL     1       6.775   3.139  11.624  0.00  0.00    +0.000 OA
ENDBRANCH   6  13
ENDBRANCH   1   9
BRANCH   5  14
ATOM     14  C   UNL     1       3.928   4.249  17.941  0.00  0.00    +0.000 A 
ATOM     15  C   UNL     1       4.048   2.854  17.946  0.00  0.00    +0.000 A 
ATOM     16  C   UNL     1       2.923   2.040  18.115  0.00  0.00    +0.000 A 
ATOM     17  C   UNL     1       1.663   2.613  18.256  0.00  0.00    +0.000 A 
ATOM     18  C   UNL     1       1.532   3.999  18.264  0.00  0.00    +0.000 A 
ATOM     19  C   UNL     1       2.661   4.813  18.129  0.00  0.00    +0.000 A 
ENDBRANCH   5  14
BRANCH   2  20
ATOM     20  C   UNL     1       6.765   7.876  17.740  0.00  0.00    +0.000 C 
BRANCH  20  21
ATOM     21  C   UNL     1       8.203   8.361  17.586  0.00  0.00    +0.000 C 
BRANCH  21  22
ATOM     22  O   UNL     1       8.729   8.688  18.872  0.00  0.00    +0.000 OA
BRANCH  22  23
ATOM     23  C   UNL     1       9.061  10.010  19.024  0.00  0.00    +0.000 A 
ATOM     24  C   UNL     1       8.956  10.794  17.872  0.00  0.00    +0.000 A 
ATOM     25  C   UNL     1       9.260  12.155  17.917  0.00  0.00    +0.000 A 
ATOM     26  C   UNL     1       9.654  12.728  19.120  0.00  0.00    +0.000 A 
ATOM     27  F   UNL     1       9.941  14.035  19.170  0.00  0.00    +0.000 F 
ATOM     28  C   UNL     1       9.748  11.965  20.277  0.00  0.00    +0.000 A 
ATOM     29  C   UNL     1       9.449  10.603  20.230  0.00  0.00    +0.000 A 
ENDBRANCH  22  23
ENDBRANCH  21  22
ENDBRANCH  20  21
ENDBRANCH   2  20
TORSDOF 7
ENDMDL
