MODEL 1
REMARK VINA RESULT:      -7.3      0.000      0.000
REMARK  Name = 
REMARK  6 active torsions:
REMARK  status: ('A' for Active; 'I' for Inactive)
REMARK    1  A    between atoms: C_1  and  S_2
REMARK    2  A    between atoms: S_2  and  C_3
REMARK    3  A    between atoms: C_5  and  O_6
REMARK    4  A    between atoms: C_7  and  C_8
REMARK    5  A    between atoms: C_9  and  C_10
REMARK    6  A    between atoms: C_10  and  C_11
REMARK                            x       y       z     vdW  Elec       q    Type
REMARK                         _______ _______ _______ _____ _____    ______ ____
ROOT
ATOM      1  C   UNL     1       6.956   5.281  17.710  0.00  0.00    +0.000 A 
ATOM      2  N   UNL     1       7.616   5.421  16.558  0.00  0.00    +0.000 NA
ATOM      3  C   UNL     1       6.950   5.025  15.473  0.00  0.00    +0.000 A 
ATOM      4  C   UNL     1       5.675   4.498  15.445  0.00  0.00    +0.000 A 
ATOM      5  C   UNL     1       5.009   4.133  14.159  0.00  0.00    +0.000 C 
ATOM      6  C   UNL     1       5.075   4.384  16.691  0.00  0.00    +0.000 A 
ATOM      7  N   UNL     1       5.711   4.792  17.819  0.00  0.00    +0.000 NA
ENDROOT
BRANCH   1   9
ATOM      8  C   UNL     1       8.263   7.522  18.602  0.00  0.00    +0.000 C 
ATOM      9  S   UNL     1       7.781   5.874  19.165  0.00  0.00    +0.000 S 
ENDBRANCH   1   9
BRANCH   3  10
ATOM     10  O   UNL     1       7.657   5.221  14.330  0.00  0.00    +0.000 OA
ATOM     11  H   UNL     1       7.636   6.195  14.278  0.00  0.00    +0.000 HD
ENDBRANCH   3  10
BRANCH   6  12
ATOM     12  C   UNL     1       3.651   3.889  16.892  0.00  0.00    +0.000 C 
BRANCH  12  13
ATOM     13  C   UNL     1       3.105   3.896  18.314  0.00  0.00    +0.000 A 
ATOM     14  C   UNL     1       2.524   5.053  18.877  0.00  0.00    +0.000 A 
ATOM     15 CL   UNL     1       2.341   6.533  18.010  0.00  0.00    +0.000 Cl
ATOM     16  C   UNL     1       1.988   5.049  20.175  0.00  0.00    +0.000 A 
ATOM     17  C   UNL     1       1.996   3.892  20.938  0.00  0.00    +0.000 A 
ATOM     18  C   UNL     1       2.535   2.730  20.400  0.00  0.00    +0.000 A 
ATOM     19  C   UNL     1       3.076   2.727  19.104  0.00  0.00    +0.000 A 
ATOM     20 CL   UNL     1       3.641   1.192  18.535  0.00  0.00    +0.000 Cl
ENDBRANCH  12  13
ENDBRANCH   6  12
TORSDOF 4
ENDMDL
MODEL 2
REMARK VINA RESULT:      -7.2      0.091      2.104
REMARK  Name = 
REMARK  6 active torsions:
REMARK  status: ('A' for Active; 'I' for Inactive)
REMARK    1  A    between atoms: C_1  and  S_2
REMARK    2  A    between atoms: S_2  and  C_3
REMARK    3  A    between atoms: C_5  and  O_6
REMARK    4  A    between atoms: C_7  and  C_8
REMARK    5  A    between atoms: C_9  and  C_10
REMARK    6  A    between atoms: C_10  and  C_11
REMARK                            x       y       z     vdW  Elec       q    Type
REMARK                         _______ _______ _______ _____ _____    ______ ____
ROOT
ATOM      1  C   UNL     1       6.904   5.239  17.706  0.00  0.00    +0.000 A 
ATOM      2  N   UNL     1       7.586   5.387  16.567  0.00  0.00    +0.000 NA
ATOM      3  C   UNL     1       6.938   5.002  15.466  0.00  0.00    +0.000 A 
ATOM      4  C   UNL     1       5.662   4.479  15.411  0.00  0.00    +0.000 A 
ATOM      5  C   UNL     1       5.020   4.127  14.109  0.00  0.00    +0.000 C 
ATOM      6  C   UNL     1       5.039   4.355  16.643  0.00  0.00    +0.000 A 
ATOM      7  N   UNL     1       5.655   4.752  17.787  0.00  0.00    +0.000 NA
ENDROOT
BRANCH   1   9
ATOM      8  C   UNL     1       8.256   7.443  18.620  0.00  0.00    +0.000 C 
ATOM      9  S   UNL     1       7.703   5.817  19.181  0.00  0.00    +0.000 S 
ENDBRANCH   1   9
BRANCH   3  10
ATOM     10  O   UNL     1       7.667   5.206  14.339  0.00  0.00    +0.000 OA
ATOM     11  H   UNL     1       7.783   4.285  14.039  0.00  0.00    +0.000 HD
ENDBRANCH   3  10
BRANCH   6  12
ATOM     12  C   UNL     1       3.610   3.863  16.815  0.00  0.00    +0.000 C 
BRANCH  12  13
ATOM     13  C   UNL     1       3.030   3.881  18.222  0.00  0.00    +0.000 A 
ATOM     14  C   UNL     1       3.027   2.726  19.034  0.00  0.00    +0.000 A 
ATOM     15 CL   UNL     1       3.704   1.221  18.534  0.00  0.00    +0.000 Cl
ATOM     16  C   UNL     1       2.525   2.751  20.345  0.00  0.00    +0.000 A 
ATOM     17  C   UNL     1       2.034   3.927  20.891  0.00  0.00    +0.000 A 
ATOM     18  C   UNL     1       2.051   5.087  20.126  0.00  0.00    +0.000 A 
ATOM     19  C   UNL     1       2.548   5.069  18.812  0.00  0.00    +0.000 A 
ATOM     20 CL   UNL     1       2.581   6.601  18.006  0.00  0.00    +0.000 Cl
ENDBRANCH  12  13
ENDBRANCH   6  12
TORSDOF 4
ENDMDL
MODEL 3
REMARK VINA RESULT:      -6.9      2.158      2.881
REMARK  Name = 
REMARK  6 active torsions:
REMARK  status: ('A' for Active; 'I' for Inactive)
REMARK    1  A    between atoms: C_1  and  S_2
REMARK    2  A    between atoms: S_2  and  C_3
REMARK    3  A    between atoms: C_5  and  O_6
REMARK    4  A    between atoms: C_7  and  C_8
REMARK    5  A    between atoms: C_9  and  C_10
REMARK    6  A    between atoms: C_10  and  C_11
REMARK                            x       y       z     vdW  Elec       q    Type
REMARK                         _______ _______ _______ _____ _____    ______ ____
ROOT
ATOM      1  C   UNL     1       6.110   4.412  15.367  0.00  0.00    +0.000 A 
ATOM      2  N   UNL     1       7.189   4.303  16.145  0.00  0.00    +0.000 NA
ATOM      3  C   UNL     1       6.992   4.604  17.430  0.00  0.00    +0.000 A 
ATOM      4  C   UNL     1       5.802   5.006  18.001  0.00  0.00    +0.000 A 
ATOM      5  C   UNL     1       5.691   5.271  19.467  0.00  0.00    +0.000 C 
ATOM      6  C   UNL     1       4.742   5.098  17.112  0.00  0.00    +0.000 A 
ATOM      7  N   UNL     1       4.894   4.784  15.799  0.00  0.00    +0.000 NA
ENDROOT
BRANCH   1   9
ATOM      8  C   UNL     1       7.641   5.069  13.189  0.00  0.00    +0.000 C 
ATOM      9  S   UNL     1       6.315   3.940  13.669  0.00  0.00    +0.000 S 
ENDBRANCH   1   9
BRANCH   3  10
ATOM     10  O   UNL     1       8.115   4.445  18.177  0.00  0.00    +0.000 OA
ATOM     11  H   UNL     1       7.909   3.602  18.622  0.00  0.00    +0.000 HD
ENDBRANCH   3  10
BRANCH   6  12
ATOM     12  C   UNL     1       3.325   5.460  17.531  0.00  0.00    +0.000 C 
BRANCH  12  13
ATOM     13  C   UNL     1       2.731   4.701  18.709  0.00  0.00    +0.000 A 
ATOM     14  C   UNL     1       2.243   5.373  19.851  0.00  0.00    +0.000 A 
ATOM     15 CL   UNL     1       2.236   7.092  20.001  0.00  0.00    +0.000 Cl
ATOM     16  C   UNL     1       1.663   4.676  20.922  0.00  0.00    +0.000 A 
ATOM     17  C   UNL     1       1.532   3.297  20.879  0.00  0.00    +0.000 A 
ATOM     18  C   UNL     1       1.976   2.610  19.755  0.00  0.00    +0.000 A 
ATOM     19  C   UNL     1       2.562   3.300  18.682  0.00  0.00    +0.000 A 
ATOM     20 CL   UNL     1       2.997   2.326  17.318  0.00  0.00    +0.000 Cl
ENDBRANCH  12  13
ENDBRANCH   6  12
TORSDOF 4
ENDMDL
MODEL 4
REMARK VINA RESULT:      -6.7      2.134      3.449
REMARK  Name = 
REMARK  6 active torsions:
REMARK  status: ('A' for Active; 'I' for Inactive)
REMARK    1  A    between atoms: C_1  and  S_2
REMARK    2  A    between atoms: S_2  and  C_3
REMARK    3  A    between atoms: C_5  and  O_6
REMARK    4  A    between atoms: C_7  and  C_8
REMARK    5  A    between atoms: C_9  and  C_10
REMARK    6  A    between atoms: C_10  and  C_11
REMARK                            x       y       z     vdW  Elec       q    Type
REMARK                         _______ _______ _______ _____ _____    ______ ____
ROOT
ATOM      1  C   UNL     1       6.114   4.374  15.380  0.00  0.00    +0.000 A 
ATOM      2  N   UNL     1       7.193   4.302  16.163  0.00  0.00    +0.000 NA
ATOM      3  C   UNL     1       6.982   4.604  17.446  0.00  0.00    +0.000 A 
ATOM      4  C   UNL     1       5.778   4.974  18.010  0.00  0.00    +0.000 A 
ATOM      5  C   UNL     1       5.652   5.243  19.473  0.00  0.00    +0.000 C 
ATOM      6  C   UNL     1       4.719   5.028  17.116  0.00  0.00    +0.000 A 
ATOM      7  N   UNL     1       4.885   4.711  15.805  0.00  0.00    +0.000 NA
ENDROOT
BRANCH   1   9
ATOM      8  C   UNL     1       7.628   5.070  13.202  0.00  0.00    +0.000 C 
ATOM      9  S   UNL     1       6.340   3.899  13.686  0.00  0.00    +0.000 S 
ENDBRANCH   1   9
BRANCH   3  10
ATOM     10  O   UNL     1       8.106   4.482  18.198  0.00  0.00    +0.000 OA
ATOM     11  H   UNL     1       8.705   5.079  17.712  0.00  0.00    +0.000 HD
ENDBRANCH   3  10
BRANCH   6  12
ATOM     12  C   UNL     1       3.291   5.350  17.527  0.00  0.00    +0.000 C 
BRANCH  12  13
ATOM     13  C   UNL     1       2.714   4.580  18.707  0.00  0.00    +0.000 A 
ATOM     14  C   UNL     1       2.719   3.169  18.742  0.00  0.00    +0.000 A 
ATOM     15 CL   UNL     1       3.405   2.198  17.491  0.00  0.00    +0.000 Cl
ATOM     16  C   UNL     1       2.221   2.459  19.845  0.00  0.00    +0.000 A 
ATOM     17  C   UNL     1       1.724   3.132  20.951  0.00  0.00    +0.000 A 
ATOM     18  C   UNL     1       1.733   4.521  20.959  0.00  0.00    +0.000 A 
ATOM     19  C   UNL     1       2.226   5.238  19.857  0.00  0.00    +0.000 A 
ATOM     20 CL   UNL     1       2.248   6.960  20.036  0.00  0.00    +0.000 Cl
ENDBRANCH  12  13
ENDBRANCH   6  12
TORSDOF 4
ENDMDL
MODEL 5
REMARK VINA RESULT:      -6.7      2.166      3.637
REMARK  Name = 
REMARK  6 active torsions:
REMARK  status: ('A' for Active; 'I' for Inactive)
REMARK    1  A    between atoms: C_1  and  S_2
REMARK    2  A    between atoms: S_2  and  C_3
REMARK    3  A    between atoms: C_5  and  O_6
REMARK    4  A    between atoms: C_7  and  C_8
REMARK    5  A    between atoms: C_9  and  C_10
REMARK    6  A    between atoms: C_10  and  C_11
REMARK                            x       y       z     vdW  Elec       q    Type
REMARK                         _______ _______ _______ _____ _____    ______ ____
ROOT
ATOM      1  C   UNL     1       6.569   4.651  15.333  0.00  0.00    +0.000 A 
ATOM      2  N   UNL     1       7.541   4.656  16.248  0.00  0.00    +0.000 NA
ATOM      3  C   UNL     1       7.131   4.518  17.510  0.00  0.00    +0.000 A 
ATOM      4  C   UNL     1       5.825   4.376  17.932  0.00  0.00    +0.000 A 
ATOM      5  C   UNL     1       5.488   4.180  19.374  0.00  0.00    +0.000 C 
ATOM      6  C   UNL     1       4.887   4.391  16.910  0.00  0.00    +0.000 A 
ATOM      7  N   UNL     1       5.263   4.511  15.611  0.00  0.00    +0.000 NA
ENDROOT
BRANCH   1   9
ATOM      8  C   UNL     1       5.948   3.559  12.895  0.00  0.00    +0.000 C 
ATOM      9  S   UNL     1       7.085   4.749  13.638  0.00  0.00    +0.000 S 
ENDBRANCH   1   9
BRANCH   3  10
ATOM     10  O   UNL     1       8.163   4.499  18.391  0.00  0.00    +0.000 OA
ATOM     11  H   UNL     1       7.697   4.750  19.211  0.00  0.00    +0.000 HD
ENDBRANCH   3  10
BRANCH   6  12
ATOM     12  C   UNL     1       3.397   4.186  17.137  0.00  0.00    +0.000 C 
BRANCH  12  13
ATOM     13  C   UNL     1       2.767   4.904  18.323  0.00  0.00    +0.000 A 
ATOM     14  C   UNL     1       2.139   4.193  19.369  0.00  0.00    +0.000 A 
ATOM     15 CL   UNL     1       2.062   2.470  19.423  0.00  0.00    +0.000 Cl
ATOM     16  C   UNL     1       1.589   4.852  20.480  0.00  0.00    +0.000 A 
ATOM     17  C   UNL     1       1.669   6.231  20.592  0.00  0.00    +0.000 A 
ATOM     18  C   UNL     1       2.307   6.956  19.593  0.00  0.00    +0.000 A 
ATOM     19  C   UNL     1       2.855   6.304  18.477  0.00  0.00    +0.000 A 
ATOM     20 CL   UNL     1       3.688   7.324  17.352  0.00  0.00    +0.000 Cl
ENDBRANCH  12  13
ENDBRANCH   6  12
TORSDOF 4
ENDMDL
MODEL 6
REMARK VINA RESULT:      -6.7      2.170      3.098
REMARK  Name = 
REMARK  6 active torsions:
REMARK  status: ('A' for Active; 'I' for Inactive)
REMARK    1  A    between atoms: C_1  and  S_2
REMARK    2  A    between atoms: S_2  and  C_3
REMARK    3  A    between atoms: C_5  and  O_6
REMARK    4  A    between atoms: C_7  and  C_8
REMARK    5  A    between atoms: C_9  and  C_10
REMARK    6  A    between atoms: C_10  and  C_11
REMARK                            x       y       z     vdW  Elec       q    Type
REMARK                         _______ _______ _______ _____ _____    ______ ____
ROOT
ATOM      1  C   UNL     1       6.555   4.690  15.359  0.00  0.00    +0.000 A 
ATOM      2  N   UNL     1       7.534   4.672  16.267  0.00  0.00    +0.000 NA
ATOM      3  C   UNL     1       7.131   4.524  17.530  0.00  0.00    +0.000 A 
ATOM      4  C   UNL     1       5.826   4.393  17.960  0.00  0.00    +0.000 A 
ATOM      5  C   UNL     1       5.497   4.184  19.402  0.00  0.00    +0.000 C 
ATOM      6  C   UNL     1       4.881   4.432  16.946  0.00  0.00    +0.000 A 
ATOM      7  N   UNL     1       5.249   4.563  15.645  0.00  0.00    +0.000 NA
ENDROOT
BRANCH   1   9
ATOM      8  C   UNL     1       5.971   3.562  12.928  0.00  0.00    +0.000 C 
ATOM      9  S   UNL     1       7.061   4.802  13.662  0.00  0.00    +0.000 S 
ENDBRANCH   1   9
BRANCH   3  10
ATOM     10  O   UNL     1       8.169   4.482  18.404  0.00  0.00    +0.000 OA
ATOM     11  H   UNL     1       8.231   5.425  18.646  0.00  0.00    +0.000 HD
ENDBRANCH   3  10
BRANCH   6  12
ATOM     12  C   UNL     1       3.391   4.244  17.181  0.00  0.00    +0.000 C 
BRANCH  12  13
ATOM     13  C   UNL     1       2.788   4.912  18.409  0.00  0.00    +0.000 A 
ATOM     14  C   UNL     1       2.865   6.309  18.603  0.00  0.00    +0.000 A 
ATOM     15 CL   UNL     1       3.601   7.378  17.466  0.00  0.00    +0.000 Cl
ATOM     16  C   UNL     1       2.279   6.930  19.717  0.00  0.00    +0.000 A 
ATOM     17  C   UNL     1       1.583   6.184  20.655  0.00  0.00    +0.000 A 
ATOM     18  C   UNL     1       1.464   4.811  20.476  0.00  0.00    +0.000 A 
ATOM     19  C   UNL     1       2.052   4.182  19.366  0.00  0.00    +0.000 A 
ATOM     20 CL   UNL     1       1.758   2.482  19.231  0.00  0.00    +0.000 Cl
ENDBRANCH  12  13
ENDBRANCH   6  12
TORSDOF 4
ENDMDL
MODEL 7
REMARK VINA RESULT:      -6.5      2.069      3.626
REMARK  Name = 
REMARK  6 active torsions:
REMARK  status: ('A' for Active; 'I' for Inactive)
REMARK    1  A    between atoms: C_1  and  S_2
REMARK    2  A    between atoms: S_2  and  C_3
REMARK    3  A    between atoms: C_5  and  O_6
REMARK    4  A    between atoms: C_7  and  C_8
REMARK    5  A    between atoms: C_9  and  C_10
REMARK    6  A    between atoms: C_10  and  C_11
REMARK                            x       y       z     vdW  Elec       q    Type
REMARK                         _______ _______ _______ _____ _____    ______ ____
ROOT
ATOM      1  C   UNL     1       5.765   4.605  15.468  0.00  0.00    +0.000 A 
ATOM      2  N   UNL     1       6.635   5.618  15.486  0.00  0.00    +0.000 NA
ATOM      3  C   UNL     1       7.006   6.023  16.701  0.00  0.00    +0.000 A 
ATOM      4  C   UNL     1       6.576   5.499  17.903  0.00  0.00    +0.000 A 
ATOM      5  C   UNL     1       7.099   6.006  19.207  0.00  0.00    +0.000 C 
ATOM      6  C   UNL     1       5.668   4.458  17.782  0.00  0.00    +0.000 A 
ATOM      7  N   UNL     1       5.277   4.001  16.564  0.00  0.00    +0.000 NA
ENDROOT
BRANCH   1   9
ATOM      8  C   UNL     1       6.888   4.174  13.004  0.00  0.00    +0.000 C 
ATOM      9  S   UNL     1       5.314   3.985  13.868  0.00  0.00    +0.000 S 
ENDBRANCH   1   9
BRANCH   3  10
ATOM     10  O   UNL     1       7.914   7.032  16.656  0.00  0.00    +0.000 OA
ATOM     11  H   UNL     1       8.599   6.624  16.094  0.00  0.00    +0.000 HD
ENDBRANCH   3  10
BRANCH   6  12
ATOM     12  C   UNL     1       5.111   3.689  18.971  0.00  0.00    +0.000 C 
BRANCH  12  13
ATOM     13  C   UNL     1       3.604   3.474  19.018  0.00  0.00    +0.000 A 
ATOM     14  C   UNL     1       3.033   2.201  18.808  0.00  0.00    +0.000 A 
ATOM     15 CL   UNL     1       3.972   0.782  18.523  0.00  0.00    +0.000 Cl
ATOM     16  C   UNL     1       1.646   1.995  18.886  0.00  0.00    +0.000 A 
ATOM     17  C   UNL     1       0.794   3.043  19.197  0.00  0.00    +0.000 A 
ATOM     18  C   UNL     1       1.330   4.302  19.438  0.00  0.00    +0.000 A 
ATOM     19  C   UNL     1       2.715   4.516  19.357  0.00  0.00    +0.000 A 
ATOM     20 CL   UNL     1       3.247   6.114  19.758  0.00  0.00    +0.000 Cl
ENDBRANCH  12  13
ENDBRANCH   6  12
TORSDOF 4
ENDMDL
MODEL 8
REMARK VINA RESULT:      -6.4      2.052      2.991
REMARK  Name = 
REMARK  6 active torsions:
REMARK  status: ('A' for Active; 'I' for Inactive)
REMARK    1  A    between atoms: C_1  and  S_2
REMARK    2  A    between atoms: S_2  and  C_3
REMARK    3  A    between atoms: C_5  and  O_6
REMARK    4  A    between atoms: C_7  and  C_8
REMARK    5  A    between atoms: C_9  and  C_10
REMARK    6  A    between atoms: C_10  and  C_11
REMARK                            x       y       z     vdW  Elec       q    Type
REMARK                         _______ _______ _______ _____ _____    ______ ____
ROOT
ATOM      1  C   UNL     1       5.753   4.537  15.541  0.00  0.00    +0.000 A 
ATOM      2  N   UNL     1       6.619   5.553  15.529  0.00  0.00    +0.000 NA
ATOM      3  C   UNL     1       6.997   5.987  16.733  0.00  0.00    +0.000 A 
ATOM      4  C   UNL     1       6.578   5.488  17.949  0.00  0.00    +0.000 A 
ATOM      5  C   UNL     1       7.109   6.025  19.237  0.00  0.00    +0.000 C 
ATOM      6  C   UNL     1       5.674   4.440  17.858  0.00  0.00    +0.000 A 
ATOM      7  N   UNL     1       5.276   3.955  16.653  0.00  0.00    +0.000 NA
ENDROOT
BRANCH   1   9
ATOM      8  C   UNL     1       6.815   4.187  13.036  0.00  0.00    +0.000 C 
ATOM      9  S   UNL     1       5.292   3.880  13.958  0.00  0.00    +0.000 S 
ENDBRANCH   1   9
BRANCH   3  10
ATOM     10  O   UNL     1       7.900   6.999  16.658  0.00  0.00    +0.000 OA
ATOM     11  H   UNL     1       7.298   7.764  16.598  0.00  0.00    +0.000 HD
ENDBRANCH   3  10
BRANCH   6  12
ATOM     12  C   UNL     1       5.129   3.696  19.067  0.00  0.00    +0.000 C 
BRANCH  12  13
ATOM     13  C   UNL     1       3.622   3.491  19.139  0.00  0.00    +0.000 A 
ATOM     14  C   UNL     1       2.743   4.564  19.403  0.00  0.00    +0.000 A 
ATOM     15 CL   UNL     1       3.279   6.189  19.623  0.00  0.00    +0.000 Cl
ATOM     16  C   UNL     1       1.351   4.383  19.435  0.00  0.00    +0.000 A 
ATOM     17  C   UNL     1       0.796   3.138  19.184  0.00  0.00    +0.000 A 
ATOM     18  C   UNL     1       1.634   2.068  18.892  0.00  0.00    +0.000 A 
ATOM     19  C   UNL     1       3.028   2.241  18.863  0.00  0.00    +0.000 A 
ATOM     20 CL   UNL     1       3.943   0.844  18.410  0.00  0.00    +0.000 Cl
ENDBRANCH  12  13
ENDBRANCH   6  12
TORSDOF 4
ENDMDL
MODEL 9
REMARK VINA RESULT:      -6.3      3.532      5.736
REMARK  Name = 
REMARK  6 active torsions:
REMARK  status: ('A' for Active; 'I' for Inactive)
REMARK    1  A    between atoms: C_1  and  S_2
REMARK    2  A    between atoms: S_2  and  C_3
REMARK    3  A    between atoms: C_5  and  O_6
REMARK    4  A    between atoms: C_7  and  C_8
REMARK    5  A    between atoms: C_9  and  C_10
REMARK    6  A    between atoms: C_10  and  C_11
REMARK                            x       y       z     vdW  Elec       q    Type
REMARK                         _______ _______ _______ _____ _____    ______ ____
ROOT
ATOM      1  C   UNL     1       2.248   6.241  20.014  0.00  0.00    +0.000 A 
ATOM      2  N   UNL     1       1.366   5.386  20.537  0.00  0.00    +0.000 NA
ATOM      3  C   UNL     1       1.787   4.122  20.623  0.00  0.00    +0.000 A 
ATOM      4  C   UNL     1       3.018   3.643  20.226  0.00  0.00    +0.000 A 
ATOM      5  C   UNL     1       3.396   2.211  20.415  0.00  0.00    +0.000 C 
ATOM      6  C   UNL     1       3.861   4.605  19.687  0.00  0.00    +0.000 A 
ATOM      7  N   UNL     1       3.480   5.905  19.598  0.00  0.00    +0.000 NA
ENDROOT
BRANCH   1   9
ATOM      8  C   UNL     1       2.133   8.327  18.237  0.00  0.00    +0.000 C 
ATOM      9  S   UNL     1       1.754   7.944  19.961  0.00  0.00    +0.000 S 
ENDBRANCH   1   9
BRANCH   3  10
ATOM     10  O   UNL     1       0.862   3.306  21.191  0.00  0.00    +0.000 OA
ATOM     11  H   UNL     1       0.319   3.963  21.666  0.00  0.00    +0.000 HD
ENDBRANCH   3  10
BRANCH   6  12
ATOM     12  C   UNL     1       5.286   4.316  19.243  0.00  0.00    +0.000 C 
BRANCH  12  13
ATOM     13  C   UNL     1       5.641   4.623  17.795  0.00  0.00    +0.000 A 
ATOM     14  C   UNL     1       6.745   5.438  17.461  0.00  0.00    +0.000 A 
ATOM     15 CL   UNL     1       7.803   6.119  18.641  0.00  0.00    +0.000 Cl
ATOM     16  C   UNL     1       7.094   5.693  16.126  0.00  0.00    +0.000 A 
ATOM     17  C   UNL     1       6.371   5.127  15.087  0.00  0.00    +0.000 A 
ATOM     18  C   UNL     1       5.297   4.296  15.384  0.00  0.00    +0.000 A 
ATOM     19  C   UNL     1       4.939   4.041  16.718  0.00  0.00    +0.000 A 
ATOM     20 CL   UNL     1       3.632   2.927  16.939  0.00  0.00    +0.000 Cl
ENDBRANCH  12  13
ENDBRANCH   6  12
TORSDOF 4
ENDMDL
