MODEL 1
REMARK VINA RESULT:      -7.0      0.000      0.000
REMARK  Name = 
REMARK  4 active torsions:
REMARK  status: ('A' for Active; 'I' for Inactive)
REMARK    1  A    between atoms: C_1  and  C_2
REMARK    2  A    between atoms: C_6  and  C_7
REMARK    3  A    between atoms: C_7  and  N_8
REMARK    4  A    between atoms: C_12  and  C_13
REMARK                            x       y       z     vdW  Elec       q    Type
REMARK                         _______ _______ _______ _____ _____    ______ ____
ROOT
ATOM      1  N   UNL     1       4.769   6.551  17.347  0.00  0.00    +0.000 N 
ATOM      2  C   UNL     1       4.076   7.743  17.232  0.00  0.00    +0.000 A 
ATOM      3  C   UNL     1       2.849   7.878  17.744  0.00  0.00    +0.000 A 
ATOM      4  C   UNL     1       2.198   6.754  18.368  0.00  0.00    +0.000 A 
ATOM      5  C   UNL     1       2.817   5.565  18.503  0.00  0.00    +0.000 A 
ATOM      6  C   UNL     1       4.247   5.446  18.020  0.00  0.00    +0.000 A 
ATOM      7  O   UNL     1       4.903   4.423  18.216  0.00  0.00    +0.000 OA
ENDROOT
BRANCH   5   8
ATOM      8  C   UNL     1       2.156   4.426  19.081  0.00  0.00    +0.000 A 
ATOM      9  C   UNL     1       1.434   3.426  18.440  0.00  0.00    +0.000 A 
ATOM     10  C   UNL     1       0.843   2.483  19.327  0.00  0.00    +0.000 A 
ATOM     11  C   UNL     1       1.136   2.764  20.639  0.00  0.00    +0.000 A 
ATOM     12  S   UNL     1       2.105   4.160  20.792  0.00  0.00    +0.000 S 
ENDBRANCH   5   8
BRANCH   1  13
ATOM     13  C   UNL     1       6.081   6.415  16.716  0.00  0.00    +0.000 C 
BRANCH  13  19
ATOM     14  C   UNL     1       7.919   5.453  19.369  0.00  0.00    +0.000 C 
ATOM     15  C   UNL     1       7.862   6.726  18.612  0.00  0.00    +0.000 A 
ATOM     16  N   UNL     1       8.639   7.806  18.945  0.00  0.00    +0.000 N 
ATOM     17  C   UNL     1       8.355   8.813  18.071  0.00  0.00    +0.000 A 
ATOM     18  N   UNL     1       7.442   8.451  17.201  0.00  0.00    +0.000 NA
ATOM     19  C   UNL     1       7.120   7.144  17.517  0.00  0.00    +0.000 A 
ATOM     20  H   UNL     1       9.302   7.853  19.706  0.00  0.00    +0.000 HD
ENDBRANCH  13  19
ENDBRANCH   1  13
TORSDOF 3
ENDMDL
MODEL 2
REMARK VINA RESULT:      -6.9      2.192      3.077
REMARK  Name = 
REMARK  4 active torsions:
REMARK  status: ('A' for Active; 'I' for Inactive)
REMARK    1  A    between atoms: C_1  and  C_2
REMARK    2  A    between atoms: C_6  and  C_7
REMARK    3  A    between atoms: C_7  and  N_8
REMARK    4  A    between atoms: C_12  and  C_13
REMARK                            x       y       z     vdW  Elec       q    Type
REMARK                         _______ _______ _______ _____ _____    ______ ____
ROOT
ATOM      1  N   UNL     1       5.563   5.847  17.710  0.00  0.00    +0.000 N 
ATOM      2  C   UNL     1       4.930   6.967  17.199  0.00  0.00    +0.000 A 
ATOM      3  C   UNL     1       3.677   7.270  17.551  0.00  0.00    +0.000 A 
ATOM      4  C   UNL     1       2.938   6.390  18.423  0.00  0.00    +0.000 A 
ATOM      5  C   UNL     1       3.497   5.281  18.946  0.00  0.00    +0.000 A 
ATOM      6  C   UNL     1       4.950   4.999  18.632  0.00  0.00    +0.000 A 
ATOM      7  O   UNL     1       5.548   4.066  19.168  0.00  0.00    +0.000 OA
ENDROOT
BRANCH   5   8
ATOM      8  C   UNL     1       2.751   4.375  19.777  0.00  0.00    +0.000 A 
ATOM      9  C   UNL     1       2.436   4.495  21.125  0.00  0.00    +0.000 A 
ATOM     10  C   UNL     1       1.745   3.371  21.659  0.00  0.00    +0.000 A 
ATOM     11  C   UNL     1       1.524   2.409  20.704  0.00  0.00    +0.000 A 
ATOM     12  S   UNL     1       2.157   2.859  19.185  0.00  0.00    +0.000 S 
ENDBRANCH   5   8
BRANCH   1  13
ATOM     13  C   UNL     1       6.908   5.507  17.250  0.00  0.00    +0.000 C 
BRANCH  13  19
ATOM     14  C   UNL     1       5.136   2.988  15.887  0.00  0.00    +0.000 C 
ATOM     15  C   UNL     1       6.121   3.932  15.310  0.00  0.00    +0.000 A 
ATOM     16  N   UNL     1       6.487   3.884  13.989  0.00  0.00    +0.000 N 
ATOM     17  C   UNL     1       7.405   4.869  13.771  0.00  0.00    +0.000 A 
ATOM     18  N   UNL     1       7.655   5.543  14.868  0.00  0.00    +0.000 NA
ATOM     19  C   UNL     1       6.859   4.977  15.846  0.00  0.00    +0.000 A 
ATOM     20  H   UNL     1       6.144   3.232  13.297  0.00  0.00    +0.000 HD
ENDBRANCH  13  19
ENDBRANCH   1  13
TORSDOF 3
ENDMDL
MODEL 3
REMARK VINA RESULT:      -6.5      3.588      6.346
REMARK  Name = 
REMARK  4 active torsions:
REMARK  status: ('A' for Active; 'I' for Inactive)
REMARK    1  A    between atoms: C_1  and  C_2
REMARK    2  A    between atoms: C_6  and  C_7
REMARK    3  A    between atoms: C_7  and  N_8
REMARK    4  A    between atoms: C_12  and  C_13
REMARK                            x       y       z     vdW  Elec       q    Type
REMARK                         _______ _______ _______ _____ _____    ______ ____
ROOT
ATOM      1  N   UNL     1       4.444   4.607  18.017  0.00  0.00    +0.000 N 
ATOM      2  C   UNL     1       4.330   5.969  18.229  0.00  0.00    +0.000 A 
ATOM      3  C   UNL     1       4.592   6.842  17.252  0.00  0.00    +0.000 A 
ATOM      4  C   UNL     1       5.066   6.375  15.973  0.00  0.00    +0.000 A 
ATOM      5  C   UNL     1       5.206   5.061  15.708  0.00  0.00    +0.000 A 
ATOM      6  C   UNL     1       4.805   4.071  16.781  0.00  0.00    +0.000 A 
ATOM      7  O   UNL     1       4.802   2.860  16.560  0.00  0.00    +0.000 OA
ENDROOT
BRANCH   5   8
ATOM      8  C   UNL     1       5.724   4.591  14.452  0.00  0.00    +0.000 A 
ATOM      9  C   UNL     1       5.107   3.776  13.511  0.00  0.00    +0.000 A 
ATOM     10  C   UNL     1       5.939   3.438  12.407  0.00  0.00    +0.000 A 
ATOM     11  C   UNL     1       7.181   4.015  12.509  0.00  0.00    +0.000 A 
ATOM     12  S   UNL     1       7.338   4.944  13.931  0.00  0.00    +0.000 S 
ENDBRANCH   5   8
BRANCH   1  13
ATOM     13  C   UNL     1       4.217   3.682  19.127  0.00  0.00    +0.000 C 
BRANCH  13  19
ATOM     14  C   UNL     1       1.800   5.275  20.849  0.00  0.00    +0.000 C 
ATOM     15  C   UNL     1       1.774   4.067  19.993  0.00  0.00    +0.000 A 
ATOM     16  N   UNL     1       0.623   3.352  19.777  0.00  0.00    +0.000 N 
ATOM     17  C   UNL     1       0.926   2.304  18.960  0.00  0.00    +0.000 A 
ATOM     18  N   UNL     1       2.198   2.297  18.639  0.00  0.00    +0.000 NA
ATOM     19  C   UNL     1       2.751   3.395  19.272  0.00  0.00    +0.000 A 
ATOM     20  H   UNL     1      -0.289   3.559  20.161  0.00  0.00    +0.000 HD
ENDBRANCH  13  19
ENDBRANCH   1  13
TORSDOF 3
ENDMDL
MODEL 4
REMARK VINA RESULT:      -6.3      3.022      3.881
REMARK  Name = 
REMARK  4 active torsions:
REMARK  status: ('A' for Active; 'I' for Inactive)
REMARK    1  A    between atoms: C_1  and  C_2
REMARK    2  A    between atoms: C_6  and  C_7
REMARK    3  A    between atoms: C_7  and  N_8
REMARK    4  A    between atoms: C_12  and  C_13
REMARK                            x       y       z     vdW  Elec       q    Type
REMARK                         _______ _______ _______ _____ _____    ______ ____
ROOT
ATOM      1  N   UNL     1       5.413   4.527  16.101  0.00  0.00    +0.000 N 
ATOM      2  C   UNL     1       5.489   5.876  15.805  0.00  0.00    +0.000 A 
ATOM      3  C   UNL     1       4.720   6.765  16.440  0.00  0.00    +0.000 A 
ATOM      4  C   UNL     1       3.745   6.319  17.404  0.00  0.00    +0.000 A 
ATOM      5  C   UNL     1       3.617   5.018  17.729  0.00  0.00    +0.000 A 
ATOM      6  C   UNL     1       4.564   4.026  17.087  0.00  0.00    +0.000 A 
ATOM      7  O   UNL     1       4.572   2.843  17.427  0.00  0.00    +0.000 OA
ENDROOT
BRANCH   5   8
ATOM      8  C   UNL     1       2.614   4.561  18.653  0.00  0.00    +0.000 A 
ATOM      9  C   UNL     1       1.539   3.713  18.415  0.00  0.00    +0.000 A 
ATOM     10  C   UNL     1       0.690   3.528  19.542  0.00  0.00    +0.000 A 
ATOM     11  C   UNL     1       1.138   4.225  20.637  0.00  0.00    +0.000 A 
ATOM     12  S   UNL     1       2.561   5.102  20.298  0.00  0.00    +0.000 S 
ENDBRANCH   5   8
BRANCH   1  13
ATOM     13  C   UNL     1       6.218   3.574  15.338  0.00  0.00    +0.000 C 
BRANCH  13  19
ATOM     14  C   UNL     1       5.585   3.119  12.061  0.00  0.00    +0.000 C 
ATOM     15  C   UNL     1       6.513   4.027  12.774  0.00  0.00    +0.000 A 
ATOM     16  N   UNL     1       7.339   4.895  12.105  0.00  0.00    +0.000 N 
ATOM     17  C   UNL     1       8.067   5.581  13.032  0.00  0.00    +0.000 A 
ATOM     18  N   UNL     1       7.764   5.207  14.253  0.00  0.00    +0.000 NA
ATOM     19  C   UNL     1       6.789   4.237  14.118  0.00  0.00    +0.000 A 
ATOM     20  H   UNL     1       7.405   5.004  11.103  0.00  0.00    +0.000 HD
ENDBRANCH  13  19
ENDBRANCH   1  13
TORSDOF 3
ENDMDL
MODEL 5
REMARK VINA RESULT:      -6.3      2.451      3.876
REMARK  Name = 
REMARK  4 active torsions:
REMARK  status: ('A' for Active; 'I' for Inactive)
REMARK    1  A    between atoms: C_1  and  C_2
REMARK    2  A    between atoms: C_6  and  C_7
REMARK    3  A    between atoms: C_7  and  N_8
REMARK    4  A    between atoms: C_12  and  C_13
REMARK                            x       y       z     vdW  Elec       q    Type
REMARK                         _______ _______ _______ _____ _____    ______ ____
ROOT
ATOM      1  N   UNL     1       4.332   4.319  17.995  0.00  0.00    +0.000 N 
ATOM      2  C   UNL     1       3.415   3.419  17.482  0.00  0.00    +0.000 A 
ATOM      3  C   UNL     1       2.102   3.658  17.555  0.00  0.00    +0.000 A 
ATOM      4  C   UNL     1       1.617   4.834  18.235  0.00  0.00    +0.000 A 
ATOM      5  C   UNL     1       2.461   5.743  18.762  0.00  0.00    +0.000 A 
ATOM      6  C   UNL     1       3.948   5.524  18.582  0.00  0.00    +0.000 A 
ATOM      7  O   UNL     1       4.764   6.373  18.941  0.00  0.00    +0.000 OA
ENDROOT
BRANCH   5   8
ATOM      8  C   UNL     1       1.984   6.892  19.483  0.00  0.00    +0.000 A 
ATOM      9  C   UNL     1       1.545   6.968  20.799  0.00  0.00    +0.000 A 
ATOM     10  C   UNL     1       1.066   8.255  21.174  0.00  0.00    +0.000 A 
ATOM     11  C   UNL     1       1.161   9.155  20.141  0.00  0.00    +0.000 A 
ATOM     12  S   UNL     1       1.812   8.444  18.733  0.00  0.00    +0.000 S 
ENDBRANCH   5   8
BRANCH   1  13
ATOM     13  C   UNL     1       5.758   3.994  17.960  0.00  0.00    +0.000 C 
BRANCH  13  19
ATOM     14  C   UNL     1       7.570   6.761  17.323  0.00  0.00    +0.000 C 
ATOM     15  C   UNL     1       7.116   5.652  16.452  0.00  0.00    +0.000 A 
ATOM     16  N   UNL     1       7.403   5.615  15.112  0.00  0.00    +0.000 N 
ATOM     17  C   UNL     1       6.847   4.483  14.594  0.00  0.00    +0.000 A 
ATOM     18  N   UNL     1       6.218   3.792  15.515  0.00  0.00    +0.000 NA
ATOM     19  C   UNL     1       6.375   4.503  16.690  0.00  0.00    +0.000 A 
ATOM     20  H   UNL     1       7.929   6.306  14.594  0.00  0.00    +0.000 HD
ENDBRANCH  13  19
ENDBRANCH   1  13
TORSDOF 3
ENDMDL
MODEL 6
REMARK VINA RESULT:      -6.3      3.558      6.157
REMARK  Name = 
REMARK  4 active torsions:
REMARK  status: ('A' for Active; 'I' for Inactive)
REMARK    1  A    between atoms: C_1  and  C_2
REMARK    2  A    between atoms: C_6  and  C_7
REMARK    3  A    between atoms: C_7  and  N_8
REMARK    4  A    between atoms: C_12  and  C_13
REMARK                            x       y       z     vdW  Elec       q    Type
REMARK                         _______ _______ _______ _____ _____    ______ ____
ROOT
ATOM      1  N   UNL     1       4.746   4.869  17.915  0.00  0.00    +0.000 N 
ATOM      2  C   UNL     1       4.564   6.236  18.019  0.00  0.00    +0.000 A 
ATOM      3  C   UNL     1       4.704   7.032  16.955  0.00  0.00    +0.000 A 
ATOM      4  C   UNL     1       5.114   6.480  15.688  0.00  0.00    +0.000 A 
ATOM      5  C   UNL     1       5.315   5.158  15.525  0.00  0.00    +0.000 A 
ATOM      6  C   UNL     1       5.051   4.246  16.705  0.00  0.00    +0.000 A 
ATOM      7  O   UNL     1       5.107   3.023  16.589  0.00  0.00    +0.000 OA
ENDROOT
BRANCH   5   8
ATOM      8  C   UNL     1       5.772   4.607  14.278  0.00  0.00    +0.000 A 
ATOM      9  C   UNL     1       5.101   3.754  13.410  0.00  0.00    +0.000 A 
ATOM     10  C   UNL     1       5.880   3.337  12.294  0.00  0.00    +0.000 A 
ATOM     11  C   UNL     1       7.135   3.892  12.314  0.00  0.00    +0.000 A 
ATOM     12  S   UNL     1       7.370   4.895  13.673  0.00  0.00    +0.000 S 
ENDBRANCH   5   8
BRANCH   1  13
ATOM     13  C   UNL     1       4.655   4.036  19.113  0.00  0.00    +0.000 C 
BRANCH  13  19
ATOM     14  C   UNL     1       2.132   2.138  17.938  0.00  0.00    +0.000 C 
ATOM     15  C   UNL     1       2.200   3.121  19.044  0.00  0.00    +0.000 A 
ATOM     16  N   UNL     1       1.107   3.426  19.815  0.00  0.00    +0.000 N 
ATOM     17  C   UNL     1       1.488   4.359  20.734  0.00  0.00    +0.000 A 
ATOM     18  N   UNL     1       2.754   4.676  20.600  0.00  0.00    +0.000 NA
ATOM     19  C   UNL     1       3.224   3.910  19.550  0.00  0.00    +0.000 A 
ATOM     20  H   UNL     1       0.180   3.035  19.718  0.00  0.00    +0.000 HD
ENDBRANCH  13  19
ENDBRANCH   1  13
TORSDOF 3
ENDMDL
MODEL 7
REMARK VINA RESULT:      -6.3      3.339      6.278
REMARK  Name = 
REMARK  4 active torsions:
REMARK  status: ('A' for Active; 'I' for Inactive)
REMARK    1  A    between atoms: C_1  and  C_2
REMARK    2  A    between atoms: C_6  and  C_7
REMARK    3  A    between atoms: C_7  and  N_8
REMARK    4  A    between atoms: C_12  and  C_13
REMARK                            x       y       z     vdW  Elec       q    Type
REMARK                         _______ _______ _______ _____ _____    ______ ____
ROOT
ATOM      1  N   UNL     1       5.179   6.195  17.462  0.00  0.00    +0.000 N 
ATOM      2  C   UNL     1       5.932   5.578  18.446  0.00  0.00    +0.000 A 
ATOM      3  C   UNL     1       6.982   4.814  18.132  0.00  0.00    +0.000 A 
ATOM      4  C   UNL     1       7.307   4.564  16.750  0.00  0.00    +0.000 A 
ATOM      5  C   UNL     1       6.607   5.129  15.746  0.00  0.00    +0.000 A 
ATOM      6  C   UNL     1       5.486   6.081  16.107  0.00  0.00    +0.000 A 
ATOM      7  O   UNL     1       4.885   6.713  15.239  0.00  0.00    +0.000 OA
ENDROOT
BRANCH   5   8
ATOM      8  C   UNL     1       6.895   4.846  14.366  0.00  0.00    +0.000 A 
ATOM      9  C   UNL     1       7.812   5.468  13.527  0.00  0.00    +0.000 A 
ATOM     10  C   UNL     1       7.786   4.987  12.188  0.00  0.00    +0.000 A 
ATOM     11  C   UNL     1       6.860   3.988  12.023  0.00  0.00    +0.000 A 
ATOM     12  S   UNL     1       6.023   3.646  13.470  0.00  0.00    +0.000 S 
ENDBRANCH   5   8
BRANCH   1  13
ATOM     13  C   UNL     1       3.996   6.968  17.837  0.00  0.00    +0.000 C 
BRANCH  13  19
ATOM     14  C   UNL     1       2.658   3.921  17.317  0.00  0.00    +0.000 C 
ATOM     15  C   UNL     1       2.534   4.879  18.440  0.00  0.00    +0.000 A 
ATOM     16  N   UNL     1       1.754   4.616  19.538  0.00  0.00    +0.000 N 
ATOM     17  C   UNL     1       1.844   5.683  20.382  0.00  0.00    +0.000 A 
ATOM     18  N   UNL     1       2.628   6.616  19.896  0.00  0.00    +0.000 NA
ATOM     19  C   UNL     1       3.076   6.133  18.680  0.00  0.00    +0.000 A 
ATOM     20  H   UNL     1       1.205   3.782  19.694  0.00  0.00    +0.000 HD
ENDBRANCH  13  19
ENDBRANCH   1  13
TORSDOF 3
ENDMDL
MODEL 8
REMARK VINA RESULT:      -6.3      2.350      4.141
REMARK  Name = 
REMARK  4 active torsions:
REMARK  status: ('A' for Active; 'I' for Inactive)
REMARK    1  A    between atoms: C_1  and  C_2
REMARK    2  A    between atoms: C_6  and  C_7
REMARK    3  A    between atoms: C_7  and  N_8
REMARK    4  A    between atoms: C_12  and  C_13
REMARK                            x       y       z     vdW  Elec       q    Type
REMARK                         _______ _______ _______ _____ _____    ______ ____
ROOT
ATOM      1  N   UNL     1       3.630   4.408  19.004  0.00  0.00    +0.000 N 
ATOM      2  C   UNL     1       3.136   3.851  20.169  0.00  0.00    +0.000 A 
ATOM      3  C   UNL     1       2.254   4.509  20.928  0.00  0.00    +0.000 A 
ATOM      4  C   UNL     1       1.853   5.848  20.574  0.00  0.00    +0.000 A 
ATOM      5  C   UNL     1       2.306   6.448  19.456  0.00  0.00    +0.000 A 
ATOM      6  C   UNL     1       3.220   5.659  18.543  0.00  0.00    +0.000 A 
ATOM      7  O   UNL     1       3.575   6.110  17.454  0.00  0.00    +0.000 OA
ENDROOT
BRANCH   5   8
ATOM      8  C   UNL     1       1.948   7.801  19.123  0.00  0.00    +0.000 A 
ATOM      9  C   UNL     1       2.180   8.492  17.939  0.00  0.00    +0.000 A 
ATOM     10  C   UNL     1       1.760   9.851  17.974  0.00  0.00    +0.000 A 
ATOM     11  C   UNL     1       1.194  10.179  19.181  0.00  0.00    +0.000 A 
ATOM     12  S   UNL     1       1.185   8.859  20.262  0.00  0.00    +0.000 S 
ENDBRANCH   5   8
BRANCH   1  13
ATOM     13  C   UNL     1       4.645   3.691  18.234  0.00  0.00    +0.000 C 
BRANCH  13  19
ATOM     14  C   UNL     1       6.717   4.484  15.700  0.00  0.00    +0.000 C 
ATOM     15  C   UNL     1       6.766   4.781  17.150  0.00  0.00    +0.000 A 
ATOM     16  N   UNL     1       7.794   5.495  17.712  0.00  0.00    +0.000 N 
ATOM     17  C   UNL     1       7.556   5.594  19.051  0.00  0.00    +0.000 A 
ATOM     18  N   UNL     1       6.443   4.985  19.386  0.00  0.00    +0.000 NA
ATOM     19  C   UNL     1       5.927   4.471  18.211  0.00  0.00    +0.000 A 
ATOM     20  H   UNL     1       8.593   5.878  17.224  0.00  0.00    +0.000 HD
ENDBRANCH  13  19
ENDBRANCH   1  13
TORSDOF 3
ENDMDL
MODEL 9
REMARK VINA RESULT:      -6.2      3.677      6.175
REMARK  Name = 
REMARK  4 active torsions:
REMARK  status: ('A' for Active; 'I' for Inactive)
REMARK    1  A    between atoms: C_1  and  C_2
REMARK    2  A    between atoms: C_6  and  C_7
REMARK    3  A    between atoms: C_7  and  N_8
REMARK    4  A    between atoms: C_12  and  C_13
REMARK                            x       y       z     vdW  Elec       q    Type
REMARK                         _______ _______ _______ _____ _____    ______ ____
ROOT
ATOM      1  N   UNL     1       2.637   6.171  19.740  0.00  0.00    +0.000 N 
ATOM      2  C   UNL     1       3.463   6.088  18.633  0.00  0.00    +0.000 A 
ATOM      3  C   UNL     1       3.523   7.083  17.742  0.00  0.00    +0.000 A 
ATOM      4  C   UNL     1       2.670   8.236  17.889  0.00  0.00    +0.000 A 
ATOM      5  C   UNL     1       1.839   8.371  18.940  0.00  0.00    +0.000 A 
ATOM      6  C   UNL     1       1.853   7.294  20.003  0.00  0.00    +0.000 A 
ATOM      7  O   UNL     1       1.201   7.414  21.041  0.00  0.00    +0.000 OA
ENDROOT
BRANCH   5   8
ATOM      8  C   UNL     1       0.951   9.496  19.067  0.00  0.00    +0.000 A 
ATOM      9  C   UNL     1      -0.056   9.906  18.202  0.00  0.00    +0.000 A 
ATOM     10  C   UNL     1      -0.696  11.115  18.595  0.00  0.00    +0.000 A 
ATOM     11  C   UNL     1      -0.181  11.606  19.769  0.00  0.00    +0.000 A 
ATOM     12  S   UNL     1       1.071  10.621  20.379  0.00  0.00    +0.000 S 
ENDBRANCH   5   8
BRANCH   1  13
ATOM     13  C   UNL     1       2.544   5.036  20.657  0.00  0.00    +0.000 C 
BRANCH  13  19
ATOM     14  C   UNL     1       4.345   2.284  19.930  0.00  0.00    +0.000 C 
ATOM     15  C   UNL     1       2.949   2.667  19.613  0.00  0.00    +0.000 A 
ATOM     16  N   UNL     1       2.118   1.852  18.886  0.00  0.00    +0.000 N 
ATOM     17  C   UNL     1       0.916   2.483  18.761  0.00  0.00    +0.000 A 
ATOM     18  N   UNL     1       0.922   3.651  19.358  0.00  0.00    +0.000 NA
ATOM     19  C   UNL     1       2.185   3.788  19.903  0.00  0.00    +0.000 A 
ATOM     20  H   UNL     1       2.354   0.947  18.503  0.00  0.00    +0.000 HD
ENDBRANCH  13  19
ENDBRANCH   1  13
TORSDOF 3
ENDMDL
