MODEL 1
REMARK VINA RESULT:      -7.5      0.000      0.000
REMARK  Name = 
REMARK  10 active torsions:
REMARK  status: ('A' for Active; 'I' for Inactive)
REMARK    1  A    between atoms: C_1  and  O_2
REMARK    2  A    between atoms: O_2  and  C_3
REMARK    3  A    between atoms: C_8  and  N_9
REMARK    4  A    between atoms: N_12  and  C_13
REMARK    5  A    between atoms: C_13  and  C_14
REMARK    6  A    between atoms: C_14  and  O_15
REMARK    7  A    between atoms: C_14  and  C_16
REMARK    8  A    between atoms: C_16  and  C_17
REMARK    9  A    between atoms: C_17  and  N_18
REMARK   10  A    between atoms: C_19  and  C_21
REMARK                            x       y       z     vdW  Elec       q    Type
REMARK                         _______ _______ _______ _____ _____    ______ ____
ROOT
ATOM      1  C   UNL     1       8.694   8.769  18.297  0.00  0.00    +0.000 C 
ENDROOT
BRANCH   1   2
ATOM      2  O   UNL     1       8.762   7.658  19.194  0.00  0.00    +0.000 OA
ATOM      3  H   UNL     1       8.023   7.061  18.987  0.00  0.00    +0.000 HD
ENDBRANCH   1   2
BRANCH   1   4
ATOM      4  C   UNL     1       8.771  10.130  19.057  0.00  0.00    +0.000 C 
BRANCH   4   8
ATOM      5  N   UNL     1       9.571  13.664  18.645  0.00  0.00    +0.000 N 
ATOM      6  C   UNL     1       9.573  12.722  17.519  0.00  0.00    +0.000 C 
ATOM      7  C   UNL     1      10.440  11.480  17.845  0.00  0.00    +0.000 C 
ATOM      8  N   UNL     1      10.097  10.777  19.114  0.00  0.00    +0.000 NA
ATOM      9  C   UNL     1      10.131  11.801  20.198  0.00  0.00    +0.000 C 
ATOM     10  C   UNL     1       9.268  13.071  19.959  0.00  0.00    +0.000 C 
BRANCH   5  16
ATOM     11  C   UNL     1       8.951  16.048  18.282  0.00  0.00    +0.000 A 
ATOM     12  C   UNL     1       9.383  17.377  18.109  0.00  0.00    +0.000 A 
ATOM     13  C   UNL     1      10.724  17.722  18.217  0.00  0.00    +0.000 A 
ATOM     14  C   UNL     1      11.655  16.736  18.491  0.00  0.00    +0.000 A 
ATOM     15  C   UNL     1      11.240  15.409  18.638  0.00  0.00    +0.000 A 
ATOM     16  C   UNL     1       9.888  15.009  18.521  0.00  0.00    +0.000 A 
BRANCH  11  18
ATOM     17  C   UNL     1       6.708  16.641  18.739  0.00  0.00    +0.000 C 
ATOM     18  O   UNL     1       7.618  15.731  18.120  0.00  0.00    +0.000 OA
ENDBRANCH  11  18
ENDBRANCH   5  16
ENDBRANCH   4   8
ENDBRANCH   1   4
BRANCH   1  19
ATOM     19  C   UNL     1       7.399   8.622  17.467  0.00  0.00    +0.000 C 
BRANCH  19  20
ATOM     20  C   UNL     1       7.224   7.185  17.009  0.00  0.00    +0.000 C 
BRANCH  20  21
ATOM     21  N   UNL     1       6.258   6.359  17.696  0.00  0.00    +0.000 N 
ATOM     22  C   UNL     1       5.024   6.256  17.056  0.00  0.00    +0.000 C 
ATOM     23  O   UNL     1       4.840   6.897  16.024  0.00  0.00    +0.000 OA
ATOM     24  H   UNL     1       6.498   5.714  18.440  0.00  0.00    +0.000 HD
BRANCH  22  25
ATOM     25  C   UNL     1       3.979   5.415  17.576  0.00  0.00    +0.000 A 
ATOM     26  C   UNL     1       3.157   5.764  18.632  0.00  0.00    +0.000 A 
ATOM     27  C   UNL     1       2.339   4.666  18.919  0.00  0.00    +0.000 A 
ATOM     28  C   UNL     1       1.351   4.420  19.887  0.00  0.00    +0.000 A 
ATOM     29  C   UNL     1       0.761   3.157  19.930  0.00  0.00    +0.000 A 
ATOM     30  C   UNL     1       1.138   2.169  19.015  0.00  0.00    +0.000 A 
ATOM     31  C   UNL     1       2.105   2.410  18.021  0.00  0.00    +0.000 A 
ATOM     32  C   UNL     1       2.693   3.675  18.008  0.00  0.00    +0.000 A 
ATOM     33  O   UNL     1       3.684   4.138  17.163  0.00  0.00    +0.000 OA
ENDBRANCH  22  25
ENDBRANCH  20  21
ENDBRANCH  19  20
ENDBRANCH   1  19
TORSDOF 9
ENDMDL
MODEL 2
REMARK VINA RESULT:      -7.5      1.111      1.184
REMARK  Name = 
REMARK  10 active torsions:
REMARK  status: ('A' for Active; 'I' for Inactive)
REMARK    1  A    between atoms: C_1  and  O_2
REMARK    2  A    between atoms: O_2  and  C_3
REMARK    3  A    between atoms: C_8  and  N_9
REMARK    4  A    between atoms: N_12  and  C_13
REMARK    5  A    between atoms: C_13  and  C_14
REMARK    6  A    between atoms: C_14  and  O_15
REMARK    7  A    between atoms: C_14  and  C_16
REMARK    8  A    between atoms: C_16  and  C_17
REMARK    9  A    between atoms: C_17  and  N_18
REMARK   10  A    between atoms: C_19  and  C_21
REMARK                            x       y       z     vdW  Elec       q    Type
REMARK                         _______ _______ _______ _____ _____    ______ ____
ROOT
ATOM      1  C   UNL     1       8.819   8.730  18.468  0.00  0.00    +0.000 C 
ENDROOT
BRANCH   1   2
ATOM      2  O   UNL     1       8.687   7.503  19.189  0.00  0.00    +0.000 OA
ATOM      3  H   UNL     1       7.962   7.609  19.830  0.00  0.00    +0.000 HD
ENDBRANCH   1   2
BRANCH   1   4
ATOM      4  C   UNL     1       8.930   9.956  19.428  0.00  0.00    +0.000 C 
BRANCH   4   8
ATOM      5  N   UNL     1       8.917  13.555  18.844  0.00  0.00    +0.000 N 
ATOM      6  C   UNL     1       8.893  12.582  17.745  0.00  0.00    +0.000 C 
ATOM      7  C   UNL     1      10.036  11.547  17.906  0.00  0.00    +0.000 C 
ATOM      8  N   UNL     1      10.086  10.850  19.222  0.00  0.00    +0.000 NA
ATOM      9  C   UNL     1      10.120  11.909  20.271  0.00  0.00    +0.000 C 
ATOM     10  C   UNL     1       8.992  12.975  20.196  0.00  0.00    +0.000 C 
BRANCH   5  16
ATOM     11  C   UNL     1       7.797  15.778  18.761  0.00  0.00    +0.000 A 
ATOM     12  C   UNL     1       7.903  17.154  18.484  0.00  0.00    +0.000 A 
ATOM     13  C   UNL     1       9.120  17.732  18.146  0.00  0.00    +0.000 A 
ATOM     14  C   UNL     1      10.249  16.937  18.072  0.00  0.00    +0.000 A 
ATOM     15  C   UNL     1      10.150  15.564  18.320  0.00  0.00    +0.000 A 
ATOM     16  C   UNL     1       8.929  14.929  18.651  0.00  0.00    +0.000 A 
BRANCH  11  18
ATOM     17  C   UNL     1       5.814  14.817  17.901  0.00  0.00    +0.000 C 
ATOM     18  O   UNL     1       6.564  15.226  19.046  0.00  0.00    +0.000 OA
ENDBRANCH  11  18
ENDBRANCH   5  16
ENDBRANCH   4   8
ENDBRANCH   1   4
BRANCH   1  19
ATOM     19  C   UNL     1       7.618   8.837  17.501  0.00  0.00    +0.000 C 
BRANCH  19  20
ATOM     20  C   UNL     1       7.168   7.455  17.062  0.00  0.00    +0.000 C 
BRANCH  20  21
ATOM     21  N   UNL     1       5.893   6.965  17.536  0.00  0.00    +0.000 N 
ATOM     22  C   UNL     1       5.880   5.612  17.867  0.00  0.00    +0.000 C 
ATOM     23  O   UNL     1       6.899   4.950  17.685  0.00  0.00    +0.000 OA
ATOM     24  H   UNL     1       5.136   7.568  17.836  0.00  0.00    +0.000 HD
BRANCH  22  25
ATOM     25  C   UNL     1       4.707   4.988  18.419  0.00  0.00    +0.000 A 
ATOM     26  C   UNL     1       4.021   5.466  19.521  0.00  0.00    +0.000 A 
ATOM     27  C   UNL     1       3.007   4.551  19.825  0.00  0.00    +0.000 A 
ATOM     28  C   UNL     1       2.032   4.484  20.834  0.00  0.00    +0.000 A 
ATOM     29  C   UNL     1       1.197   3.368  20.879  0.00  0.00    +0.000 A 
ATOM     30  C   UNL     1       1.322   2.352  19.926  0.00  0.00    +0.000 A 
ATOM     31  C   UNL     1       2.275   2.419  18.892  0.00  0.00    +0.000 A 
ATOM     32  C   UNL     1       3.110   3.537  18.877  0.00  0.00    +0.000 A 
ATOM     33  O   UNL     1       4.138   3.812  17.995  0.00  0.00    +0.000 OA
ENDBRANCH  22  25
ENDBRANCH  20  21
ENDBRANCH  19  20
ENDBRANCH   1  19
TORSDOF 9
ENDMDL
MODEL 3
REMARK VINA RESULT:      -7.3      5.477      7.556
REMARK  Name = 
REMARK  10 active torsions:
REMARK  status: ('A' for Active; 'I' for Inactive)
REMARK    1  A    between atoms: C_1  and  O_2
REMARK    2  A    between atoms: O_2  and  C_3
REMARK    3  A    between atoms: C_8  and  N_9
REMARK    4  A    between atoms: N_12  and  C_13
REMARK    5  A    between atoms: C_13  and  C_14
REMARK    6  A    between atoms: C_14  and  O_15
REMARK    7  A    between atoms: C_14  and  C_16
REMARK    8  A    between atoms: C_16  and  C_17
REMARK    9  A    between atoms: C_17  and  N_18
REMARK   10  A    between atoms: C_19  and  C_21
REMARK                            x       y       z     vdW  Elec       q    Type
REMARK                         _______ _______ _______ _____ _____    ______ ____
ROOT
ATOM      1  C   UNL     1       0.032  10.140  22.396  0.00  0.00    +0.000 C 
ENDROOT
BRANCH   1   2
ATOM      2  O   UNL     1      -0.938   9.326  23.059  0.00  0.00    +0.000 OA
ATOM      3  H   UNL     1      -0.785   9.398  24.017  0.00  0.00    +0.000 HD
ENDBRANCH   1   2
BRANCH   1   4
ATOM      4  C   UNL     1      -0.509  10.700  21.044  0.00  0.00    +0.000 C 
BRANCH   4   8
ATOM      5  N   UNL     1       1.107  13.551  19.444  0.00  0.00    +0.000 N 
ATOM      6  C   UNL     1       1.392  13.163  20.832  0.00  0.00    +0.000 C 
ATOM      7  C   UNL     1       0.078  13.018  21.640  0.00  0.00    +0.000 C 
ATOM      8  N   UNL     1      -0.943  12.112  21.043  0.00  0.00    +0.000 NA
ATOM      9  C   UNL     1      -1.177  12.583  19.647  0.00  0.00    +0.000 C 
ATOM     10  C   UNL     1       0.090  12.734  18.760  0.00  0.00    +0.000 C 
BRANCH   5  16
ATOM     11  C   UNL     1       1.165  15.957  18.806  0.00  0.00    +0.000 A 
ATOM     12  C   UNL     1       1.807  16.981  18.084  0.00  0.00    +0.000 A 
ATOM     13  C   UNL     1       2.997  16.752  17.406  0.00  0.00    +0.000 A 
ATOM     14  C   UNL     1       3.558  15.488  17.432  0.00  0.00    +0.000 A 
ATOM     15  C   UNL     1       2.915  14.457  18.124  0.00  0.00    +0.000 A 
ATOM     16  C   UNL     1       1.694  14.639  18.816  0.00  0.00    +0.000 A 
BRANCH  11  18
ATOM     17  C   UNL     1       0.048  17.012  20.604  0.00  0.00    +0.000 C 
ATOM     18  O   UNL     1      -0.041  16.205  19.429  0.00  0.00    +0.000 OA
ENDBRANCH  11  18
ENDBRANCH   5  16
ENDBRANCH   4   8
ENDBRANCH   1   4
BRANCH   1  19
ATOM     19  C   UNL     1       1.313   9.293  22.221  0.00  0.00    +0.000 C 
BRANCH  19  20
ATOM     20  C   UNL     1       1.032   8.082  21.350  0.00  0.00    +0.000 C 
BRANCH  20  21
ATOM     21  N   UNL     1       1.891   7.839  20.214  0.00  0.00    +0.000 N 
ATOM     22  C   UNL     1       2.175   6.496  19.979  0.00  0.00    +0.000 C 
ATOM     23  O   UNL     1       1.736   5.654  20.759  0.00  0.00    +0.000 OA
ATOM     24  H   UNL     1       2.087   8.532  19.499  0.00  0.00    +0.000 HD
BRANCH  22  25
ATOM     25  C   UNL     1       2.958   6.084  18.845  0.00  0.00    +0.000 A 
ATOM     26  C   UNL     1       3.203   4.764  18.510  0.00  0.00    +0.000 A 
ATOM     27  C   UNL     1       4.079   4.753  17.419  0.00  0.00    +0.000 A 
ATOM     28  C   UNL     1       4.695   3.730  16.680  0.00  0.00    +0.000 A 
ATOM     29  C   UNL     1       5.586   4.084  15.667  0.00  0.00    +0.000 A 
ATOM     30  C   UNL     1       5.841   5.431  15.388  0.00  0.00    +0.000 A 
ATOM     31  C   UNL     1       5.209   6.467  16.101  0.00  0.00    +0.000 A 
ATOM     32  C   UNL     1       4.334   6.089  17.120  0.00  0.00    +0.000 A 
ATOM     33  O   UNL     1       3.629   6.912  17.977  0.00  0.00    +0.000 OA
ENDBRANCH  22  25
ENDBRANCH  20  21
ENDBRANCH  19  20
ENDBRANCH   1  19
TORSDOF 9
ENDMDL
MODEL 4
REMARK VINA RESULT:      -7.2      1.766     11.699
REMARK  Name = 
REMARK  10 active torsions:
REMARK  status: ('A' for Active; 'I' for Inactive)
REMARK    1  A    between atoms: C_1  and  O_2
REMARK    2  A    between atoms: O_2  and  C_3
REMARK    3  A    between atoms: C_8  and  N_9
REMARK    4  A    between atoms: N_12  and  C_13
REMARK    5  A    between atoms: C_13  and  C_14
REMARK    6  A    between atoms: C_14  and  O_15
REMARK    7  A    between atoms: C_14  and  C_16
REMARK    8  A    between atoms: C_16  and  C_17
REMARK    9  A    between atoms: C_17  and  N_18
REMARK   10  A    between atoms: C_19  and  C_21
REMARK                            x       y       z     vdW  Elec       q    Type
REMARK                         _______ _______ _______ _____ _____    ______ ____
ROOT
ATOM      1  C   UNL     1       7.340   6.959  18.053  0.00  0.00    +0.000 C 
ENDROOT
BRANCH   1   2
ATOM      2  O   UNL     1       8.303   6.517  19.012  0.00  0.00    +0.000 OA
ATOM      3  H   UNL     1       7.822   6.144  19.770  0.00  0.00    +0.000 HD
ENDBRANCH   1   2
BRANCH   1   4
ATOM      4  C   UNL     1       6.970   5.829  17.042  0.00  0.00    +0.000 C 
BRANCH   4   8
ATOM      5  N   UNL     1       4.232   4.220  18.834  0.00  0.00    +0.000 N 
ATOM      6  C   UNL     1       5.031   3.514  17.824  0.00  0.00    +0.000 C 
ATOM      7  C   UNL     1       5.089   4.329  16.507  0.00  0.00    +0.000 C 
ATOM      8  N   UNL     1       5.550   5.739  16.647  0.00  0.00    +0.000 NA
ATOM      9  C   UNL     1       4.681   6.377  17.677  0.00  0.00    +0.000 C 
ATOM     10  C   UNL     1       4.585   5.635  19.039  0.00  0.00    +0.000 C 
BRANCH   5  16
ATOM     11  C   UNL     1       1.924   3.291  18.944  0.00  0.00    +0.000 A 
ATOM     12  C   UNL     1       0.891   2.762  19.741  0.00  0.00    +0.000 A 
ATOM     13  C   UNL     1       1.076   2.517  21.095  0.00  0.00    +0.000 A 
ATOM     14  C   UNL     1       2.298   2.807  21.675  0.00  0.00    +0.000 A 
ATOM     15  C   UNL     1       3.322   3.358  20.898  0.00  0.00    +0.000 A 
ATOM     16  C   UNL     1       3.175   3.639  19.519  0.00  0.00    +0.000 A 
BRANCH  11  18
ATOM     17  C   UNL     1       1.252   4.902  17.348  0.00  0.00    +0.000 C 
ATOM     18  O   UNL     1       1.693   3.569  17.612  0.00  0.00    +0.000 OA
ENDBRANCH  11  18
ENDBRANCH   5  16
ENDBRANCH   4   8
ENDBRANCH   1   4
BRANCH   1  19
ATOM     19  C   UNL     1       7.912   8.215  17.359  0.00  0.00    +0.000 C 
BRANCH  19  20
ATOM     20  C   UNL     1       8.497   9.168  18.386  0.00  0.00    +0.000 C 
BRANCH  20  21
ATOM     21  N   UNL     1       8.563  10.574  18.060  0.00  0.00    +0.000 N 
ATOM     22  C   UNL     1       9.528  11.288  18.769  0.00  0.00    +0.000 C 
ATOM     23  O   UNL     1      10.185  10.702  19.625  0.00  0.00    +0.000 OA
ATOM     24  H   UNL     1       8.136  10.980  17.236  0.00  0.00    +0.000 HD
BRANCH  22  25
ATOM     25  C   UNL     1       9.766  12.683  18.510  0.00  0.00    +0.000 A 
ATOM     26  C   UNL     1       8.898  13.697  18.871  0.00  0.00    +0.000 A 
ATOM     27  C   UNL     1       9.410  14.899  18.368  0.00  0.00    +0.000 A 
ATOM     28  C   UNL     1       8.960  16.229  18.389  0.00  0.00    +0.000 A 
ATOM     29  C   UNL     1       9.707  17.196  17.717  0.00  0.00    +0.000 A 
ATOM     30  C   UNL     1      10.887  16.843  17.055  0.00  0.00    +0.000 A 
ATOM     31  C   UNL     1      11.367  15.520  17.050  0.00  0.00    +0.000 A 
ATOM     32  C   UNL     1      10.594  14.567  17.715  0.00  0.00    +0.000 A 
ATOM     33  O   UNL     1      10.831  13.210  17.819  0.00  0.00    +0.000 OA
ENDBRANCH  22  25
ENDBRANCH  20  21
ENDBRANCH  19  20
ENDBRANCH   1  19
TORSDOF 9
ENDMDL
MODEL 5
REMARK VINA RESULT:      -7.1      1.660     11.612
REMARK  Name = 
REMARK  10 active torsions:
REMARK  status: ('A' for Active; 'I' for Inactive)
REMARK    1  A    between atoms: C_1  and  O_2
REMARK    2  A    between atoms: O_2  and  C_3
REMARK    3  A    between atoms: C_8  and  N_9
REMARK    4  A    between atoms: N_12  and  C_13
REMARK    5  A    between atoms: C_13  and  C_14
REMARK    6  A    between atoms: C_14  and  O_15
REMARK    7  A    between atoms: C_14  and  C_16
REMARK    8  A    between atoms: C_16  and  C_17
REMARK    9  A    between atoms: C_17  and  N_18
REMARK   10  A    between atoms: C_19  and  C_21
REMARK                            x       y       z     vdW  Elec       q    Type
REMARK                         _______ _______ _______ _____ _____    ______ ____
ROOT
ATOM      1  C   UNL     1       7.470   7.342  17.988  0.00  0.00    +0.000 C 
ENDROOT
BRANCH   1   2
ATOM      2  O   UNL     1       8.373   6.942  19.022  0.00  0.00    +0.000 OA
ATOM      3  H   UNL     1       8.954   6.251  18.662  0.00  0.00    +0.000 HD
ENDBRANCH   1   2
BRANCH   1   4
ATOM      4  C   UNL     1       7.299   6.228  16.908  0.00  0.00    +0.000 C 
BRANCH   4   8
ATOM      5  N   UNL     1       4.247   4.626  18.096  0.00  0.00    +0.000 N 
ATOM      6  C   UNL     1       5.225   3.925  17.254  0.00  0.00    +0.000 C 
ATOM      7  C   UNL     1       5.551   4.756  15.987  0.00  0.00    +0.000 C 
ATOM      8  N   UNL     1       5.986   6.159  16.237  0.00  0.00    +0.000 NA
ATOM      9  C   UNL     1       4.935   6.793  17.084  0.00  0.00    +0.000 C 
ATOM     10  C   UNL     1       4.564   6.034  18.388  0.00  0.00    +0.000 C 
BRANCH   5  16
ATOM     11  C   UNL     1       2.271   4.548  19.609  0.00  0.00    +0.000 A 
ATOM     12  C   UNL     1       1.124   3.850  20.033  0.00  0.00    +0.000 A 
ATOM     13  C   UNL     1       0.711   2.685  19.401  0.00  0.00    +0.000 A 
ATOM     14  C   UNL     1       1.447   2.195  18.337  0.00  0.00    +0.000 A 
ATOM     15  C   UNL     1       2.602   2.866  17.925  0.00  0.00    +0.000 A 
ATOM     16  C   UNL     1       3.070   4.047  18.548  0.00  0.00    +0.000 A 
BRANCH  11  18
ATOM     17  C   UNL     1       1.650   6.631  20.541  0.00  0.00    +0.000 C 
ATOM     18  O   UNL     1       2.682   5.676  20.289  0.00  0.00    +0.000 OA
ENDBRANCH  11  18
ENDBRANCH   5  16
ENDBRANCH   4   8
ENDBRANCH   1   4
BRANCH   1  19
ATOM     19  C   UNL     1       7.995   8.670  17.397  0.00  0.00    +0.000 C 
BRANCH  19  20
ATOM     20  C   UNL     1       8.767   9.448  18.446  0.00  0.00    +0.000 C 
BRANCH  20  21
ATOM     21  N   UNL     1       8.685  10.891  18.430  0.00  0.00    +0.000 N 
ATOM     22  C   UNL     1       9.857  11.533  18.033  0.00  0.00    +0.000 C 
ATOM     23  O   UNL     1      10.850  10.852  17.791  0.00  0.00    +0.000 OA
ATOM     24  H   UNL     1       7.812  11.405  18.463  0.00  0.00    +0.000 HD
BRANCH  22  25
ATOM     25  C   UNL     1       9.917  12.964  17.898  0.00  0.00    +0.000 A 
ATOM     26  C   UNL     1      10.903  13.636  17.198  0.00  0.00    +0.000 A 
ATOM     27  C   UNL     1      10.692  15.008  17.371  0.00  0.00    +0.000 A 
ATOM     28  C   UNL     1      11.375  16.156  16.937  0.00  0.00    +0.000 A 
ATOM     29  C   UNL     1      10.915  17.404  17.356  0.00  0.00    +0.000 A 
ATOM     30  C   UNL     1       9.786  17.502  18.176  0.00  0.00    +0.000 A 
ATOM     31  C   UNL     1       9.074  16.362  18.596  0.00  0.00    +0.000 A 
ATOM     32  C   UNL     1       9.563  15.124  18.177  0.00  0.00    +0.000 A 
ATOM     33  O   UNL     1       9.068  13.871  18.485  0.00  0.00    +0.000 OA
ENDBRANCH  22  25
ENDBRANCH  20  21
ENDBRANCH  19  20
ENDBRANCH   1  19
TORSDOF 9
ENDMDL
MODEL 6
REMARK VINA RESULT:      -7.1      6.213      9.691
REMARK  Name = 
REMARK  10 active torsions:
REMARK  status: ('A' for Active; 'I' for Inactive)
REMARK    1  A    between atoms: C_1  and  O_2
REMARK    2  A    between atoms: O_2  and  C_3
REMARK    3  A    between atoms: C_8  and  N_9
REMARK    4  A    between atoms: N_12  and  C_13
REMARK    5  A    between atoms: C_13  and  C_14
REMARK    6  A    between atoms: C_14  and  O_15
REMARK    7  A    between atoms: C_14  and  C_16
REMARK    8  A    between atoms: C_16  and  C_17
REMARK    9  A    between atoms: C_17  and  N_18
REMARK   10  A    between atoms: C_19  and  C_21
REMARK                            x       y       z     vdW  Elec       q    Type
REMARK                         _______ _______ _______ _____ _____    ______ ____
ROOT
ATOM      1  C   UNL     1       1.107   3.241  19.612  0.00  0.00    +0.000 C 
ENDROOT
BRANCH   1   2
ATOM      2  O   UNL     1      -0.309   3.075  19.508  0.00  0.00    +0.000 OA
ATOM      3  H   UNL     1      -0.639   2.767  20.370  0.00  0.00    +0.000 HD
ENDBRANCH   1   2
BRANCH   1   4
ATOM      4  C   UNL     1       1.860   1.881  19.474  0.00  0.00    +0.000 C 
BRANCH   4   8
ATOM      5  N   UNL     1       4.547   4.186  18.601  0.00  0.00    +0.000 N 
ATOM      6  C   UNL     1       3.201   4.293  18.022  0.00  0.00    +0.000 C 
ATOM      7  C   UNL     1       2.750   2.934  17.431  0.00  0.00    +0.000 C 
ATOM      8  N   UNL     1       2.828   1.774  18.364  0.00  0.00    +0.000 NA
ATOM      9  C   UNL     1       4.222   1.736  18.891  0.00  0.00    +0.000 C 
ATOM     10  C   UNL     1       4.746   3.055  19.523  0.00  0.00    +0.000 C 
BRANCH   5  16
ATOM     11  C   UNL     1       5.809   5.608  16.993  0.00  0.00    +0.000 A 
ATOM     12  C   UNL     1       6.938   6.412  16.747  0.00  0.00    +0.000 A 
ATOM     13  C   UNL     1       7.844   6.714  17.756  0.00  0.00    +0.000 A 
ATOM     14  C   UNL     1       7.636   6.207  19.026  0.00  0.00    +0.000 A 
ATOM     15  C   UNL     1       6.532   5.385  19.274  0.00  0.00    +0.000 A 
ATOM     16  C   UNL     1       5.592   5.038  18.274  0.00  0.00    +0.000 A 
BRANCH  11  18
ATOM     17  C   UNL     1       5.568   4.592  14.870  0.00  0.00    +0.000 C 
ATOM     18  O   UNL     1       4.954   5.286  15.958  0.00  0.00    +0.000 OA
ENDBRANCH  11  18
ENDBRANCH   5  16
ENDBRANCH   4   8
ENDBRANCH   1   4
BRANCH   1  19
ATOM     19  C   UNL     1       1.398   3.951  20.953  0.00  0.00    +0.000 C 
BRANCH  19  20
ATOM     20  C   UNL     1       2.007   5.320  20.707  0.00  0.00    +0.000 C 
BRANCH  20  21
ATOM     21  N   UNL     1       1.346   6.476  21.267  0.00  0.00    +0.000 N 
ATOM     22  C   UNL     1       1.533   7.655  20.547  0.00  0.00    +0.000 C 
ATOM     23  O   UNL     1       2.264   7.634  19.560  0.00  0.00    +0.000 OA
ATOM     24  H   UNL     1       0.619   6.422  21.971  0.00  0.00    +0.000 HD
BRANCH  22  25
ATOM     25  C   UNL     1       0.885   8.879  20.935  0.00  0.00    +0.000 A 
ATOM     26  C   UNL     1       0.280   9.081  22.162  0.00  0.00    +0.000 A 
ATOM     27  C   UNL     1      -0.327  10.341  22.139  0.00  0.00    +0.000 A 
ATOM     28  C   UNL     1      -1.100  11.063  23.064  0.00  0.00    +0.000 A 
ATOM     29  C   UNL     1      -1.613  12.302  22.681  0.00  0.00    +0.000 A 
ATOM     30  C   UNL     1      -1.344  12.815  21.408  0.00  0.00    +0.000 A 
ATOM     31  C   UNL     1      -0.548  12.117  20.480  0.00  0.00    +0.000 A 
ATOM     32  C   UNL     1      -0.059  10.872  20.880  0.00  0.00    +0.000 A 
ATOM     33  O   UNL     1       0.706   9.989  20.144  0.00  0.00    +0.000 OA
ENDBRANCH  22  25
ENDBRANCH  20  21
ENDBRANCH  19  20
ENDBRANCH   1  19
TORSDOF 9
ENDMDL
MODEL 7
REMARK VINA RESULT:      -7.1      2.105     11.976
REMARK  Name = 
REMARK  10 active torsions:
REMARK  status: ('A' for Active; 'I' for Inactive)
REMARK    1  A    between atoms: C_1  and  O_2
REMARK    2  A    between atoms: O_2  and  C_3
REMARK    3  A    between atoms: C_8  and  N_9
REMARK    4  A    between atoms: N_12  and  C_13
REMARK    5  A    between atoms: C_13  and  C_14
REMARK    6  A    between atoms: C_14  and  O_15
REMARK    7  A    between atoms: C_14  and  C_16
REMARK    8  A    between atoms: C_16  and  C_17
REMARK    9  A    between atoms: C_17  and  N_18
REMARK   10  A    between atoms: C_19  and  C_21
REMARK                            x       y       z     vdW  Elec       q    Type
REMARK                         _______ _______ _______ _____ _____    ______ ____
ROOT
ATOM      1  C   UNL     1       7.497   7.564  17.912  0.00  0.00    +0.000 C 
ENDROOT
BRANCH   1   2
ATOM      2  O   UNL     1       8.298   6.959  18.931  0.00  0.00    +0.000 OA
ATOM      3  H   UNL     1       9.133   6.672  18.524  0.00  0.00    +0.000 HD
ENDBRANCH   1   2
BRANCH   1   4
ATOM      4  C   UNL     1       7.282   6.604  16.700  0.00  0.00    +0.000 C 
BRANCH   4   8
ATOM      5  N   UNL     1       4.529   4.557  17.936  0.00  0.00    +0.000 N 
ATOM      6  C   UNL     1       5.450   4.088  16.892  0.00  0.00    +0.000 C 
ATOM      7  C   UNL     1       5.555   5.127  15.747  0.00  0.00    +0.000 C 
ATOM      8  N   UNL     1       5.907   6.511  16.172  0.00  0.00    +0.000 NA
ATOM      9  C   UNL     1       4.919   6.908  17.216  0.00  0.00    +0.000 C 
ATOM     10  C   UNL     1       4.768   5.929  18.414  0.00  0.00    +0.000 C 
BRANCH   5  16
ATOM     11  C   UNL     1       3.536   2.876  19.481  0.00  0.00    +0.000 A 
ATOM     12  C   UNL     1       2.408   2.117  19.848  0.00  0.00    +0.000 A 
ATOM     13  C   UNL     1       1.184   2.289  19.217  0.00  0.00    +0.000 A 
ATOM     14  C   UNL     1       1.072   3.219  18.199  0.00  0.00    +0.000 A 
ATOM     15  C   UNL     1       2.193   3.959  17.808  0.00  0.00    +0.000 A 
ATOM     16  C   UNL     1       3.463   3.807  18.412  0.00  0.00    +0.000 A 
BRANCH  11  18
ATOM     17  C   UNL     1       4.832   1.416  20.815  0.00  0.00    +0.000 C 
ATOM     18  O   UNL     1       4.750   2.647  20.095  0.00  0.00    +0.000 OA
ENDBRANCH  11  18
ENDBRANCH   5  16
ENDBRANCH   4   8
ENDBRANCH   1   4
BRANCH   1  19
ATOM     19  C   UNL     1       8.178   8.891  17.509  0.00  0.00    +0.000 C 
BRANCH  19  20
ATOM     20  C   UNL     1       8.920   9.487  18.691  0.00  0.00    +0.000 C 
BRANCH  20  21
ATOM     21  N   UNL     1       9.352  10.864  18.608  0.00  0.00    +0.000 N 
ATOM     22  C   UNL     1       9.571  11.478  19.839  0.00  0.00    +0.000 C 
ATOM     23  O   UNL     1       9.334  10.845  20.865  0.00  0.00    +0.000 OA
ATOM     24  H   UNL     1       9.702  11.292  17.758  0.00  0.00    +0.000 HD
BRANCH  22  25
ATOM     25  C   UNL     1      10.070  12.824  19.926  0.00  0.00    +0.000 A 
ATOM     26  C   UNL     1      10.626  13.514  18.863  0.00  0.00    +0.000 A 
ATOM     27  C   UNL     1      11.088  14.744  19.346  0.00  0.00    +0.000 A 
ATOM     28  C   UNL     1      11.758  15.828  18.755  0.00  0.00    +0.000 A 
ATOM     29  C   UNL     1      12.135  16.899  19.564  0.00  0.00    +0.000 A 
ATOM     30  C   UNL     1      11.834  16.894  20.929  0.00  0.00    +0.000 A 
ATOM     31  C   UNL     1      11.138  15.829  21.531  0.00  0.00    +0.000 A 
ATOM     32  C   UNL     1      10.785  14.761  20.704  0.00  0.00    +0.000 A 
ATOM     33  O   UNL     1      10.137  13.594  21.062  0.00  0.00    +0.000 OA
ENDBRANCH  22  25
ENDBRANCH  20  21
ENDBRANCH  19  20
ENDBRANCH   1  19
TORSDOF 9
ENDMDL
MODEL 8
REMARK VINA RESULT:      -7.1      5.436      7.729
REMARK  Name = 
REMARK  10 active torsions:
REMARK  status: ('A' for Active; 'I' for Inactive)
REMARK    1  A    between atoms: C_1  and  O_2
REMARK    2  A    between atoms: O_2  and  C_3
REMARK    3  A    between atoms: C_8  and  N_9
REMARK    4  A    between atoms: N_12  and  C_13
REMARK    5  A    between atoms: C_13  and  C_14
REMARK    6  A    between atoms: C_14  and  O_15
REMARK    7  A    between atoms: C_14  and  C_16
REMARK    8  A    between atoms: C_16  and  C_17
REMARK    9  A    between atoms: C_17  and  N_18
REMARK   10  A    between atoms: C_19  and  C_21
REMARK                            x       y       z     vdW  Elec       q    Type
REMARK                         _______ _______ _______ _____ _____    ______ ____
ROOT
ATOM      1  C   UNL     1       0.866   9.928  21.829  0.00  0.00    +0.000 C 
ENDROOT
BRANCH   1   2
ATOM      2  O   UNL     1       0.191  10.242  23.049  0.00  0.00    +0.000 OA
ATOM      3  H   UNL     1      -0.319  11.058  22.908  0.00  0.00    +0.000 HD
ENDBRANCH   1   2
BRANCH   1   4
ATOM      4  C   UNL     1       0.961  11.168  20.886  0.00  0.00    +0.000 C 
BRANCH   4   8
ATOM      5  N   UNL     1       0.767  14.489  19.392  0.00  0.00    +0.000 N 
ATOM      6  C   UNL     1       1.265  14.269  20.756  0.00  0.00    +0.000 C 
ATOM      7  C   UNL     1       0.256  13.426  21.577  0.00  0.00    +0.000 C 
ATOM      8  N   UNL     1      -0.152  12.135  20.955  0.00  0.00    +0.000 NA
ATOM      9  C   UNL     1      -0.652  12.453  19.587  0.00  0.00    +0.000 C 
ATOM     10  C   UNL     1       0.309  13.278  18.688  0.00  0.00    +0.000 C 
BRANCH   5  16
ATOM     11  C   UNL     1       1.754  16.485  18.279  0.00  0.00    +0.000 A 
ATOM     12  C   UNL     1       1.554  17.778  17.758  0.00  0.00    +0.000 A 
ATOM     13  C   UNL     1       0.288  18.345  17.697  0.00  0.00    +0.000 A 
ATOM     14  C   UNL     1      -0.798  17.627  18.164  0.00  0.00    +0.000 A 
ATOM     15  C   UNL     1      -0.607  16.353  18.707  0.00  0.00    +0.000 A 
ATOM     16  C   UNL     1       0.665  15.741  18.805  0.00  0.00    +0.000 A 
BRANCH  11  18
ATOM     17  C   UNL     1       3.878  16.638  19.307  0.00  0.00    +0.000 C 
ATOM     18  O   UNL     1       3.031  15.969  18.371  0.00  0.00    +0.000 OA
ENDBRANCH  11  18
ENDBRANCH   5  16
ENDBRANCH   4   8
ENDBRANCH   1   4
BRANCH   1  19
ATOM     19  C   UNL     1       0.126   8.738  21.177  0.00  0.00    +0.000 C 
BRANCH  19  20
ATOM     20  C   UNL     1       0.978   7.484  21.243  0.00  0.00    +0.000 C 
BRANCH  20  21
ATOM     21  N   UNL     1       2.149   7.404  20.400  0.00  0.00    +0.000 N 
ATOM     22  C   UNL     1       2.472   6.115  19.979  0.00  0.00    +0.000 C 
ATOM     23  O   UNL     1       1.796   5.174  20.387  0.00  0.00    +0.000 OA
ATOM     24  H   UNL     1       2.571   8.206  19.946  0.00  0.00    +0.000 HD
BRANCH  22  25
ATOM     25  C   UNL     1       3.568   5.875  19.079  0.00  0.00    +0.000 A 
ATOM     26  C   UNL     1       3.480   5.985  17.703  0.00  0.00    +0.000 A 
ATOM     27  C   UNL     1       4.705   5.580  17.161  0.00  0.00    +0.000 A 
ATOM     28  C   UNL     1       5.188   5.449  15.848  0.00  0.00    +0.000 A 
ATOM     29  C   UNL     1       6.474   4.943  15.660  0.00  0.00    +0.000 A 
ATOM     30  C   UNL     1       7.265   4.595  16.759  0.00  0.00    +0.000 A 
ATOM     31  C   UNL     1       6.805   4.748  18.081  0.00  0.00    +0.000 A 
ATOM     32  C   UNL     1       5.509   5.240  18.244  0.00  0.00    +0.000 A 
ATOM     33  O   UNL     1       4.825   5.442  19.427  0.00  0.00    +0.000 OA
ENDBRANCH  22  25
ENDBRANCH  20  21
ENDBRANCH  19  20
ENDBRANCH   1  19
TORSDOF 9
ENDMDL
MODEL 9
REMARK VINA RESULT:      -7.1      8.366     10.920
REMARK  Name = 
REMARK  10 active torsions:
REMARK  status: ('A' for Active; 'I' for Inactive)
REMARK    1  A    between atoms: C_1  and  O_2
REMARK    2  A    between atoms: O_2  and  C_3
REMARK    3  A    between atoms: C_8  and  N_9
REMARK    4  A    between atoms: N_12  and  C_13
REMARK    5  A    between atoms: C_13  and  C_14
REMARK    6  A    between atoms: C_14  and  O_15
REMARK    7  A    between atoms: C_14  and  C_16
REMARK    8  A    between atoms: C_16  and  C_17
REMARK    9  A    between atoms: C_17  and  N_18
REMARK   10  A    between atoms: C_19  and  C_21
REMARK                            x       y       z     vdW  Elec       q    Type
REMARK                         _______ _______ _______ _____ _____    ______ ____
ROOT
ATOM      1  C   UNL     1      -0.058  10.122  22.800  0.00  0.00    +0.000 C 
ENDROOT
BRANCH   1   2
ATOM      2  O   UNL     1      -0.971   9.126  23.265  0.00  0.00    +0.000 OA
ATOM      3  H   UNL     1      -1.148   8.515  22.530  0.00  0.00    +0.000 HD
ENDBRANCH   1   2
BRANCH   1   4
ATOM      4  C   UNL     1      -0.645  10.931  21.601  0.00  0.00    +0.000 C 
BRANCH   4   8
ATOM      5  N   UNL     1      -3.754  12.789  22.029  0.00  0.00    +0.000 N 
ATOM      6  C   UNL     1      -3.133  12.589  20.713  0.00  0.00    +0.000 C 
ATOM      7  C   UNL     1      -1.643  13.014  20.740  0.00  0.00    +0.000 C 
ATOM      8  N   UNL     1      -0.819  12.382  21.809  0.00  0.00    +0.000 NA
ATOM      9  C   UNL     1      -1.513  12.644  23.103  0.00  0.00    +0.000 C 
ATOM     10  C   UNL     1      -3.008  12.225  23.167  0.00  0.00    +0.000 C 
BRANCH   5  16
ATOM     11  C   UNL     1      -6.236  12.976  22.088  0.00  0.00    +0.000 A 
ATOM     12  C   UNL     1      -7.363  13.805  22.246  0.00  0.00    +0.000 A 
ATOM     13  C   UNL     1      -7.234  15.144  22.587  0.00  0.00    +0.000 A 
ATOM     14  C   UNL     1      -5.971  15.678  22.766  0.00  0.00    +0.000 A 
ATOM     15  C   UNL     1      -4.844  14.871  22.586  0.00  0.00    +0.000 A 
ATOM     16  C   UNL     1      -4.926  13.505  22.223  0.00  0.00    +0.000 A 
BRANCH  11  18
ATOM     17  C   UNL     1      -6.831  11.484  20.351  0.00  0.00    +0.000 C 
ATOM     18  O   UNL     1      -6.396  11.661  21.701  0.00  0.00    +0.000 OA
ENDBRANCH  11  18
ENDBRANCH   5  16
ENDBRANCH   4   8
ENDBRANCH   1   4
BRANCH   1  19
ATOM     19  C   UNL     1       1.269   9.413  22.447  0.00  0.00    +0.000 C 
BRANCH  19  20
ATOM     20  C   UNL     1       1.215   8.860  21.035  0.00  0.00    +0.000 C 
BRANCH  20  21
ATOM     21  N   UNL     1       1.545   7.468  20.829  0.00  0.00    +0.000 N 
ATOM     22  C   UNL     1       2.177   7.196  19.617  0.00  0.00    +0.000 C 
ATOM     23  O   UNL     1       2.349   8.115  18.821  0.00  0.00    +0.000 OA
ATOM     24  H   UNL     1       1.550   6.776  21.570  0.00  0.00    +0.000 HD
BRANCH  22  25
ATOM     25  C   UNL     1       2.633   5.871  19.292  0.00  0.00    +0.000 A 
ATOM     26  C   UNL     1       2.175   5.137  18.212  0.00  0.00    +0.000 A 
ATOM     27  C   UNL     1       2.763   3.869  18.275  0.00  0.00    +0.000 A 
ATOM     28  C   UNL     1       2.655   2.710  17.489  0.00  0.00    +0.000 A 
ATOM     29  C   UNL     1       3.353   1.569  17.884  0.00  0.00    +0.000 A 
ATOM     30  C   UNL     1       4.155   1.593  19.029  0.00  0.00    +0.000 A 
ATOM     31  C   UNL     1       4.295   2.755  19.812  0.00  0.00    +0.000 A 
ATOM     32  C   UNL     1       3.575   3.879  19.406  0.00  0.00    +0.000 A 
ATOM     33  O   UNL     1       3.518   5.114  20.022  0.00  0.00    +0.000 OA
ENDBRANCH  22  25
ENDBRANCH  20  21
ENDBRANCH  19  20
ENDBRANCH   1  19
TORSDOF 9
ENDMDL
