MODEL 1
REMARK VINA RESULT:      -7.1      0.000      0.000
REMARK  Name = 
REMARK  1 active torsions:
REMARK  status: ('A' for Active; 'I' for Inactive)
REMARK    1  A    between atoms: C_2  and  C_3
REMARK                            x       y       z     vdW  Elec       q    Type
REMARK                         _______ _______ _______ _____ _____    ______ ____
ROOT
ATOM      1  O   UNL     1       4.107   2.519  18.025  0.00  0.00    +0.000 OA
ATOM      2  C   UNL     1       4.263   3.738  17.888  0.00  0.00    +0.000 C 
ATOM      3  N   UNL     1       3.609   4.643  18.704  0.00  0.00    +0.000 N 
ATOM      4  C   UNL     1       2.644   4.090  19.675  0.00  0.00    +0.000 C 
ATOM      5  C   UNL     1       2.361   5.216  20.650  0.00  0.00    +0.000 C 
ATOM      6  C   UNL     1       2.469   6.357  19.692  0.00  0.00    +0.000 A 
ATOM      7  C   UNL     1       1.782   7.556  19.742  0.00  0.00    +0.000 A 
ATOM      8  C   UNL     1       2.015   8.472  18.723  0.00  0.00    +0.000 A 
ATOM      9 BR   UNL     1       0.938  10.024  18.610  0.00  0.00    +0.000 Br
ATOM     10  C   UNL     1       2.980   8.219  17.734  0.00  0.00    +0.000 A 
ATOM     11  C   UNL     1       3.646   6.985  17.679  0.00  0.00    +0.000 A 
ATOM     12  C   UNL     1       3.331   6.025  18.624  0.00  0.00    +0.000 A 
ENDROOT
BRANCH   2  13
ATOM     13  C   UNL     1       5.180   4.138  16.801  0.00  0.00    +0.000 A 
ATOM     14  C   UNL     1       4.703   3.999  15.489  0.00  0.00    +0.000 A 
ATOM     15  C   UNL     1       5.520   4.322  14.410  0.00  0.00    +0.000 A 
ATOM     16  C   UNL     1       6.816   4.777  14.653  0.00  0.00    +0.000 A 
ATOM     17 BR   UNL     1       7.910   5.285  13.200  0.00  0.00    +0.000 Br
ATOM     18  C   UNL     1       7.309   4.862  15.957  0.00  0.00    +0.000 A 
ATOM     19  C   UNL     1       6.498   4.520  17.039  0.00  0.00    +0.000 A 
ENDBRANCH   2  13
TORSDOF 1
ENDMDL
MODEL 2
REMARK VINA RESULT:      -6.9      0.158      1.123
REMARK  Name = 
REMARK  1 active torsions:
REMARK  status: ('A' for Active; 'I' for Inactive)
REMARK    1  A    between atoms: C_2  and  C_3
REMARK                            x       y       z     vdW  Elec       q    Type
REMARK                         _______ _______ _______ _____ _____    ______ ____
ROOT
ATOM      1  O   UNL     1       4.012   2.427  18.107  0.00  0.00    +0.000 OA
ATOM      2  C   UNL     1       4.170   3.643  17.948  0.00  0.00    +0.000 C 
ATOM      3  N   UNL     1       3.560   4.563  18.781  0.00  0.00    +0.000 N 
ATOM      4  C   UNL     1       2.635   4.030  19.801  0.00  0.00    +0.000 C 
ATOM      5  C   UNL     1       2.403   5.169  20.773  0.00  0.00    +0.000 C 
ATOM      6  C   UNL     1       2.477   6.298  19.797  0.00  0.00    +0.000 A 
ATOM      7  C   UNL     1       1.802   7.503  19.862  0.00  0.00    +0.000 A 
ATOM      8  C   UNL     1       1.995   8.405  18.823  0.00  0.00    +0.000 A 
ATOM      9 BR   UNL     1       0.926   9.963  18.738  0.00  0.00    +0.000 Br
ATOM     10  C   UNL     1       2.913   8.132  17.796  0.00  0.00    +0.000 A 
ATOM     11  C   UNL     1       3.567   6.892  17.727  0.00  0.00    +0.000 A 
ATOM     12  C   UNL     1       3.288   5.946  18.696  0.00  0.00    +0.000 A 
ENDROOT
BRANCH   2  13
ATOM     13  C   UNL     1       5.040   4.023  16.817  0.00  0.00    +0.000 A 
ATOM     14  C   UNL     1       6.346   4.428  17.133  0.00  0.00    +0.000 A 
ATOM     15  C   UNL     1       7.215   4.834  16.125  0.00  0.00    +0.000 A 
ATOM     16  C   UNL     1       6.768   4.839  14.805  0.00  0.00    +0.000 A 
ATOM     17 BR   UNL     1       7.960   5.322  13.422  0.00  0.00    +0.000 Br
ATOM     18  C   UNL     1       5.451   4.489  14.496  0.00  0.00    +0.000 A 
ATOM     19  C   UNL     1       4.573   4.101  15.508  0.00  0.00    +0.000 A 
ENDBRANCH   2  13
TORSDOF 1
ENDMDL
MODEL 3
REMARK VINA RESULT:      -6.1      4.534      6.709
REMARK  Name = 
REMARK  1 active torsions:
REMARK  status: ('A' for Active; 'I' for Inactive)
REMARK    1  A    between atoms: C_2  and  C_3
REMARK                            x       y       z     vdW  Elec       q    Type
REMARK                         _______ _______ _______ _____ _____    ______ ____
ROOT
ATOM      1  O   UNL     1       1.370   9.507  22.206  0.00  0.00    +0.000 OA
ATOM      2  C   UNL     1       0.979   9.525  21.033  0.00  0.00    +0.000 C 
ATOM      3  N   UNL     1       0.108  10.501  20.581  0.00  0.00    +0.000 N 
ATOM      4  C   UNL     1      -0.407  11.453  21.585  0.00  0.00    +0.000 C 
ATOM      5  C   UNL     1      -1.017  12.589  20.788  0.00  0.00    +0.000 C 
ATOM      6  C   UNL     1      -1.519  11.789  19.630  0.00  0.00    +0.000 A 
ATOM      7  C   UNL     1      -2.636  12.049  18.858  0.00  0.00    +0.000 A 
ATOM      8  C   UNL     1      -2.938  11.150  17.843  0.00  0.00    +0.000 A 
ATOM      9 BR   UNL     1      -4.575  11.325  16.909  0.00  0.00    +0.000 Br
ATOM     10  C   UNL     1      -2.086  10.071  17.560  0.00  0.00    +0.000 A 
ATOM     11  C   UNL     1      -0.973   9.803  18.372  0.00  0.00    +0.000 A 
ATOM     12  C   UNL     1      -0.735  10.628  19.455  0.00  0.00    +0.000 A 
ENDROOT
BRANCH   2  13
ATOM     13  C   UNL     1       1.501   8.441  20.177  0.00  0.00    +0.000 A 
ATOM     14  C   UNL     1       1.550   7.157  20.742  0.00  0.00    +0.000 A 
ATOM     15  C   UNL     1       2.061   6.091  20.010  0.00  0.00    +0.000 A 
ATOM     16  C   UNL     1       2.528   6.317  18.716  0.00  0.00    +0.000 A 
ATOM     17 BR   UNL     1       3.160   4.865  17.688  0.00  0.00    +0.000 Br
ATOM     18  C   UNL     1       2.530   7.605  18.174  0.00  0.00    +0.000 A 
ATOM     19  C   UNL     1       2.036   8.679  18.914  0.00  0.00    +0.000 A 
ENDBRANCH   2  13
TORSDOF 1
ENDMDL
MODEL 4
REMARK VINA RESULT:      -6.1      1.577      5.941
REMARK  Name = 
REMARK  1 active torsions:
REMARK  status: ('A' for Active; 'I' for Inactive)
REMARK    1  A    between atoms: C_2  and  C_3
REMARK                            x       y       z     vdW  Elec       q    Type
REMARK                         _______ _______ _______ _____ _____    ______ ____
ROOT
ATOM      1  O   UNL     1       2.168   5.179  21.020  0.00  0.00    +0.000 OA
ATOM      2  C   UNL     1       2.449   5.616  19.898  0.00  0.00    +0.000 C 
ATOM      3  N   UNL     1       3.066   4.818  18.950  0.00  0.00    +0.000 N 
ATOM      4  C   UNL     1       3.459   3.459  19.374  0.00  0.00    +0.000 C 
ATOM      5  C   UNL     1       3.761   2.708  18.094  0.00  0.00    +0.000 C 
ATOM      6  C   UNL     1       4.317   3.848  17.304  0.00  0.00    +0.000 A 
ATOM      7  C   UNL     1       5.292   3.789  16.326  0.00  0.00    +0.000 A 
ATOM      8  C   UNL     1       5.684   4.986  15.737  0.00  0.00    +0.000 A 
ATOM      9 BR   UNL     1       7.169   4.997  14.566  0.00  0.00    +0.000 Br
ATOM     10  C   UNL     1       5.046   6.192  16.066  0.00  0.00    +0.000 A 
ATOM     11  C   UNL     1       4.080   6.240  17.084  0.00  0.00    +0.000 A 
ATOM     12  C   UNL     1       3.770   5.071  17.753  0.00  0.00    +0.000 A 
ENDROOT
BRANCH   2  13
ATOM     13  C   UNL     1       2.088   7.027  19.661  0.00  0.00    +0.000 A 
ATOM     14  C   UNL     1       1.562   7.737  20.752  0.00  0.00    +0.000 A 
ATOM     15  C   UNL     1       1.165   9.061  20.599  0.00  0.00    +0.000 A 
ATOM     16  C   UNL     1       1.291   9.667  19.349  0.00  0.00    +0.000 A 
ATOM     17 BR   UNL     1       0.821  11.485  19.146  0.00  0.00    +0.000 Br
ATOM     18  C   UNL     1       1.763   8.944  18.250  0.00  0.00    +0.000 A 
ATOM     19  C   UNL     1       2.142   7.611  18.398  0.00  0.00    +0.000 A 
ENDBRANCH   2  13
TORSDOF 1
ENDMDL
MODEL 5
REMARK VINA RESULT:      -6.0      1.532      2.077
REMARK  Name = 
REMARK  1 active torsions:
REMARK  status: ('A' for Active; 'I' for Inactive)
REMARK    1  A    between atoms: C_2  and  C_3
REMARK                            x       y       z     vdW  Elec       q    Type
REMARK                         _______ _______ _______ _____ _____    ______ ____
ROOT
ATOM      1  O   UNL     1       2.865   3.994  19.841  0.00  0.00    +0.000 OA
ATOM      2  C   UNL     1       3.074   5.102  19.333  0.00  0.00    +0.000 C 
ATOM      3  N   UNL     1       2.469   6.244  19.827  0.00  0.00    +0.000 N 
ATOM      4  C   UNL     1       1.490   6.064  20.917  0.00  0.00    +0.000 C 
ATOM      5  C   UNL     1       1.267   7.447  21.493  0.00  0.00    +0.000 C 
ATOM      6  C   UNL     1       1.417   8.230  20.230  0.00  0.00    +0.000 A 
ATOM      7  C   UNL     1       0.785   9.416  19.903  0.00  0.00    +0.000 A 
ATOM      8  C   UNL     1       1.048   9.960  18.651  0.00  0.00    +0.000 A 
ATOM      9 BR   UNL     1       0.040  11.447  18.059  0.00  0.00    +0.000 Br
ATOM     10  C   UNL     1       1.991   9.369  17.794  0.00  0.00    +0.000 A 
ATOM     11  C   UNL     1       2.600   8.149  18.127  0.00  0.00    +0.000 A 
ATOM     12  C   UNL     1       2.253   7.545  19.321  0.00  0.00    +0.000 A 
ENDROOT
BRANCH   2  13
ATOM     13  C   UNL     1       3.997   5.104  18.181  0.00  0.00    +0.000 A 
ATOM     14  C   UNL     1       3.708   4.210  17.138  0.00  0.00    +0.000 A 
ATOM     15  C   UNL     1       4.550   4.129  16.034  0.00  0.00    +0.000 A 
ATOM     16  C   UNL     1       5.684   4.940  15.983  0.00  0.00    +0.000 A 
ATOM     17 BR   UNL     1       6.796   4.888  14.458  0.00  0.00    +0.000 Br
ATOM     18  C   UNL     1       6.001   5.789  17.046  0.00  0.00    +0.000 A 
ATOM     19  C   UNL     1       5.168   5.857  18.163  0.00  0.00    +0.000 A 
ENDBRANCH   2  13
TORSDOF 1
ENDMDL
MODEL 6
REMARK VINA RESULT:      -5.9      3.506      4.610
REMARK  Name = 
REMARK  1 active torsions:
REMARK  status: ('A' for Active; 'I' for Inactive)
REMARK    1  A    between atoms: C_2  and  C_3
REMARK                            x       y       z     vdW  Elec       q    Type
REMARK                         _______ _______ _______ _____ _____    ______ ____
ROOT
ATOM      1  O   UNL     1       4.192   7.533  16.824  0.00  0.00    +0.000 OA
ATOM      2  C   UNL     1       3.417   7.208  17.732  0.00  0.00    +0.000 C 
ATOM      3  N   UNL     1       2.445   8.078  18.194  0.00  0.00    +0.000 N 
ATOM      4  C   UNL     1       2.444   9.440  17.624  0.00  0.00    +0.000 C 
ATOM      5  C   UNL     1       1.108  10.040  18.014  0.00  0.00    +0.000 C 
ATOM      6  C   UNL     1       0.955   9.372  19.341  0.00  0.00    +0.000 A 
ATOM      7  C   UNL     1       0.314   9.875  20.459  0.00  0.00    +0.000 A 
ATOM      8  C   UNL     1       0.319   9.092  21.608  0.00  0.00    +0.000 A 
ATOM      9 BR   UNL     1      -0.334   9.822  23.226  0.00  0.00    +0.000 Br
ATOM     10  C   UNL     1       0.876   7.803  21.598  0.00  0.00    +0.000 A 
ATOM     11  C   UNL     1       1.550   7.320  20.465  0.00  0.00    +0.000 A 
ATOM     12  C   UNL     1       1.649   8.143  19.358  0.00  0.00    +0.000 A 
ENDROOT
BRANCH   2  13
ATOM     13  C   UNL     1       3.614   5.849  18.274  0.00  0.00    +0.000 A 
ATOM     14  C   UNL     1       4.827   5.601  18.935  0.00  0.00    +0.000 A 
ATOM     15  C   UNL     1       5.102   4.335  19.442  0.00  0.00    +0.000 A 
ATOM     16  C   UNL     1       4.160   3.320  19.278  0.00  0.00    +0.000 A 
ATOM     17 BR   UNL     1       4.491   1.616  20.023  0.00  0.00    +0.000 Br
ATOM     18  C   UNL     1       2.977   3.551  18.571  0.00  0.00    +0.000 A 
ATOM     19  C   UNL     1       2.710   4.815  18.045  0.00  0.00    +0.000 A 
ENDBRANCH   2  13
TORSDOF 1
ENDMDL
MODEL 7
REMARK VINA RESULT:      -5.8      3.907      7.486
REMARK  Name = 
REMARK  1 active torsions:
REMARK  status: ('A' for Active; 'I' for Inactive)
REMARK    1  A    between atoms: C_2  and  C_3
REMARK                            x       y       z     vdW  Elec       q    Type
REMARK                         _______ _______ _______ _____ _____    ______ ____
ROOT
ATOM      1  O   UNL     1       1.934   9.871  17.450  0.00  0.00    +0.000 OA
ATOM      2  C   UNL     1       1.863   9.177  18.471  0.00  0.00    +0.000 C 
ATOM      3  N   UNL     1       2.531   7.969  18.567  0.00  0.00    +0.000 N 
ATOM      4  C   UNL     1       3.247   7.504  17.362  0.00  0.00    +0.000 C 
ATOM      5  C   UNL     1       4.157   6.390  17.838  0.00  0.00    +0.000 C 
ATOM      6  C   UNL     1       3.275   5.838  18.910  0.00  0.00    +0.000 A 
ATOM      7  C   UNL     1       3.195   4.523  19.330  0.00  0.00    +0.000 A 
ATOM      8  C   UNL     1       2.276   4.222  20.328  0.00  0.00    +0.000 A 
ATOM      9 BR   UNL     1       1.958   2.412  20.778  0.00  0.00    +0.000 Br
ATOM     10  C   UNL     1       1.525   5.236  20.944  0.00  0.00    +0.000 A 
ATOM     11  C   UNL     1       1.594   6.561  20.484  0.00  0.00    +0.000 A 
ATOM     12  C   UNL     1       2.422   6.844  19.413  0.00  0.00    +0.000 A 
ENDROOT
BRANCH   2  13
ATOM     13  C   UNL     1       1.021   9.728  19.551  0.00  0.00    +0.000 A 
ATOM     14  C   UNL     1      -0.109  10.464  19.159  0.00  0.00    +0.000 A 
ATOM     15  C   UNL     1      -0.932  11.044  20.119  0.00  0.00    +0.000 A 
ATOM     16  C   UNL     1      -0.615  10.890  21.468  0.00  0.00    +0.000 A 
ATOM     17 BR   UNL     1      -1.764  11.615  22.781  0.00  0.00    +0.000 Br
ATOM     18  C   UNL     1       0.539  10.205  21.856  0.00  0.00    +0.000 A 
ATOM     19  C   UNL     1       1.376   9.640  20.894  0.00  0.00    +0.000 A 
ENDBRANCH   2  13
TORSDOF 1
ENDMDL
MODEL 8
REMARK VINA RESULT:      -5.8      7.374     11.131
REMARK  Name = 
REMARK  1 active torsions:
REMARK  status: ('A' for Active; 'I' for Inactive)
REMARK    1  A    between atoms: C_2  and  C_3
REMARK                            x       y       z     vdW  Elec       q    Type
REMARK                         _______ _______ _______ _____ _____    ______ ____
ROOT
ATOM      1  O   UNL     1       0.390  12.793  21.936  0.00  0.00    +0.000 OA
ATOM      2  C   UNL     1      -0.653  12.441  21.372  0.00  0.00    +0.000 C 
ATOM      3  N   UNL     1      -0.634  11.539  20.323  0.00  0.00    +0.000 N 
ATOM      4  C   UNL     1       0.692  11.099  19.845  0.00  0.00    +0.000 C 
ATOM      5  C   UNL     1       0.427   9.885  18.977  0.00  0.00    +0.000 C 
ATOM      6  C   UNL     1      -0.891  10.311  18.415  0.00  0.00    +0.000 A 
ATOM      7  C   UNL     1      -1.406  10.002  17.170  0.00  0.00    +0.000 A 
ATOM      8  C   UNL     1      -2.646  10.533  16.838  0.00  0.00    +0.000 A 
ATOM      9 BR   UNL     1      -3.293  10.340  15.071  0.00  0.00    +0.000 Br
ATOM     10  C   UNL     1      -3.382  11.279  17.772  0.00  0.00    +0.000 A 
ATOM     11  C   UNL     1      -2.833  11.610  19.021  0.00  0.00    +0.000 A 
ATOM     12  C   UNL     1      -1.550  11.182  19.310  0.00  0.00    +0.000 A 
ENDROOT
BRANCH   2  13
ATOM     13  C   UNL     1      -1.891  13.051  21.896  0.00  0.00    +0.000 A 
ATOM     14  C   UNL     1      -2.659  12.270  22.774  0.00  0.00    +0.000 A 
ATOM     15  C   UNL     1      -3.856  12.762  23.283  0.00  0.00    +0.000 A 
ATOM     16  C   UNL     1      -4.283  14.034  22.903  0.00  0.00    +0.000 A 
ATOM     17 BR   UNL     1      -5.872  14.740  23.641  0.00  0.00    +0.000 Br
ATOM     18  C   UNL     1      -3.547  14.789  21.986  0.00  0.00    +0.000 A 
ATOM     19  C   UNL     1      -2.357  14.289  21.460  0.00  0.00    +0.000 A 
ENDBRANCH   2  13
TORSDOF 1
ENDMDL
MODEL 9
REMARK VINA RESULT:      -5.8      3.476      4.433
REMARK  Name = 
REMARK  1 active torsions:
REMARK  status: ('A' for Active; 'I' for Inactive)
REMARK    1  A    between atoms: C_2  and  C_3
REMARK                            x       y       z     vdW  Elec       q    Type
REMARK                         _______ _______ _______ _____ _____    ______ ____
ROOT
ATOM      1  O   UNL     1       4.261   7.628  16.717  0.00  0.00    +0.000 OA
ATOM      2  C   UNL     1       3.498   7.263  17.619  0.00  0.00    +0.000 C 
ATOM      3  N   UNL     1       2.532   8.111  18.132  0.00  0.00    +0.000 N 
ATOM      4  C   UNL     1       2.523   9.497  17.623  0.00  0.00    +0.000 C 
ATOM      5  C   UNL     1       1.192  10.077  18.056  0.00  0.00    +0.000 C 
ATOM      6  C   UNL     1       1.057   9.351  19.355  0.00  0.00    +0.000 A 
ATOM      7  C   UNL     1       0.430   9.803  20.502  0.00  0.00    +0.000 A 
ATOM      8  C   UNL     1       0.450   8.970  21.614  0.00  0.00    +0.000 A 
ATOM      9 BR   UNL     1      -0.182   9.626  23.272  0.00  0.00    +0.000 Br
ATOM     10  C   UNL     1       1.007   7.683  21.540  0.00  0.00    +0.000 A 
ATOM     11  C   UNL     1       1.667   7.252  20.378  0.00  0.00    +0.000 A 
ATOM     12  C   UNL     1       1.751   8.123  19.308  0.00  0.00    +0.000 A 
ENDROOT
BRANCH   2  13
ATOM     13  C   UNL     1       3.703   5.881  18.097  0.00  0.00    +0.000 A 
ATOM     14  C   UNL     1       2.711   4.944  17.765  0.00  0.00    +0.000 A 
ATOM     15  C   UNL     1       2.815   3.630  18.209  0.00  0.00    +0.000 A 
ATOM     16  C   UNL     1       3.910   3.261  18.989  0.00  0.00    +0.000 A 
ATOM     17 BR   UNL     1       4.097   1.464  19.539  0.00  0.00    +0.000 Br
ATOM     18  C   UNL     1       4.868   4.206  19.366  0.00  0.00    +0.000 A 
ATOM     19  C   UNL     1       4.755   5.529  18.938  0.00  0.00    +0.000 A 
ENDBRANCH   2  13
TORSDOF 1
ENDMDL
