MODEL 1
REMARK VINA RESULT:      -7.4      0.000      0.000
REMARK  Name = 
REMARK  10 active torsions:
REMARK  status: ('A' for Active; 'I' for Inactive)
REMARK    1  A    between atoms: C_1  and  C_2
REMARK    2  A    between atoms: C_2  and  N_3
REMARK    3  A    between atoms: N_3  and  C_4
REMARK    4  A    between atoms: N_3  and  C_6
REMARK    5  A    between atoms: C_4  and  C_5
REMARK    6  A    between atoms: C_6  and  C_7
REMARK    7  A    between atoms: N_10  and  C_11
REMARK    8  A    between atoms: C_14  and  O_15
REMARK    9  A    between atoms: O_15  and  C_16
REMARK   10  A    between atoms: C_19  and  C_20
REMARK                            x       y       z     vdW  Elec       q    Type
REMARK                         _______ _______ _______ _____ _____    ______ ____
ROOT
ATOM      1  C   UNL     1       1.695   7.561  19.627  0.00  0.00    +0.000 C 
ATOM      2  C   UNL     1       2.432   7.870  18.319  0.00  0.00    +0.000 C 
ATOM      3  O   UNL     1       2.273   8.644  17.402  0.00  0.00    +0.000 OA
ATOM      4  N   UNL     1       3.326   6.872  18.542  0.00  0.00    +0.000 N 
ATOM      5  C   UNL     1       2.662   6.331  19.730  0.00  0.00    +0.000 C 
ENDROOT
BRANCH   4   6
ATOM      6  C   UNL     1       4.444   6.443  17.824  0.00  0.00    +0.000 A 
ATOM      7  C   UNL     1       4.433   6.467  16.428  0.00  0.00    +0.000 A 
ATOM      8  C   UNL     1       5.529   6.006  15.697  0.00  0.00    +0.000 A 
ATOM      9  C   UNL     1       6.667   5.544  16.345  0.00  0.00    +0.000 A 
ATOM     10  C   UNL     1       6.702   5.523  17.739  0.00  0.00    +0.000 A 
ATOM     11  C   UNL     1       5.590   5.973  18.476  0.00  0.00    +0.000 A 
BRANCH   9  12
ATOM     12  O   UNL     1       7.656   5.090  15.517  0.00  0.00    +0.000 OA
ATOM     13  C   UNL     1       7.260   4.789  14.185  0.00  0.00    +0.000 C 
ENDBRANCH   9  12
ENDBRANCH   4   6
BRANCH   5  14
ATOM     14  C   UNL     1       1.996   4.887  19.632  0.00  0.00    +0.000 A 
ATOM     15  C   UNL     1       1.653   4.164  20.793  0.00  0.00    +0.000 A 
ATOM     16  C   UNL     1       1.089   2.885  20.734  0.00  0.00    +0.000 A 
ATOM     17  C   UNL     1       0.844   2.291  19.501  0.00  0.00    +0.000 A 
ATOM     18  C   UNL     1       1.152   2.979  18.333  0.00  0.00    +0.000 A 
ATOM     19  C   UNL     1       1.713   4.257  18.403  0.00  0.00    +0.000 A 
ENDBRANCH   5  14
BRANCH   1  20
ATOM     20  C   UNL     1       1.844   8.535  20.792  0.00  0.00    +0.000 C 
BRANCH  20  21
ATOM     21  N   UNL     1       0.625   9.269  21.181  0.00  0.00    +0.000 NA
BRANCH  21  23
ATOM     22  C   UNL     1      -0.791  10.099  23.100  0.00  0.00    +0.000 C 
ATOM     23  C   UNL     1       0.565   9.585  22.616  0.00  0.00    +0.000 C 
ENDBRANCH  21  23
BRANCH  21  24
ATOM     24  C   UNL     1       0.416  10.433  20.298  0.00  0.00    +0.000 C 
ATOM     25  C   UNL     1      -0.781  10.340  19.354  0.00  0.00    +0.000 C 
ENDBRANCH  21  24
ENDBRANCH  20  21
ENDBRANCH   1  20
TORSDOF 7
ENDMDL
MODEL 2
REMARK VINA RESULT:      -7.4      0.630      1.385
REMARK  Name = 
REMARK  10 active torsions:
REMARK  status: ('A' for Active; 'I' for Inactive)
REMARK    1  A    between atoms: C_1  and  C_2
REMARK    2  A    between atoms: C_2  and  N_3
REMARK    3  A    between atoms: N_3  and  C_4
REMARK    4  A    between atoms: N_3  and  C_6
REMARK    5  A    between atoms: C_4  and  C_5
REMARK    6  A    between atoms: C_6  and  C_7
REMARK    7  A    between atoms: N_10  and  C_11
REMARK    8  A    between atoms: C_14  and  O_15
REMARK    9  A    between atoms: O_15  and  C_16
REMARK   10  A    between atoms: C_19  and  C_20
REMARK                            x       y       z     vdW  Elec       q    Type
REMARK                         _______ _______ _______ _____ _____    ______ ____
ROOT
ATOM      1  C   UNL     1       1.681   7.671  19.484  0.00  0.00    +0.000 C 
ATOM      2  C   UNL     1       2.378   7.938  18.144  0.00  0.00    +0.000 C 
ATOM      3  O   UNL     1       2.182   8.672  17.202  0.00  0.00    +0.000 OA
ATOM      4  N   UNL     1       3.293   6.963  18.382  0.00  0.00    +0.000 N 
ATOM      5  C   UNL     1       2.670   6.460  19.609  0.00  0.00    +0.000 C 
ENDROOT
BRANCH   4   6
ATOM      6  C   UNL     1       4.397   6.521  17.652  0.00  0.00    +0.000 A 
ATOM      7  C   UNL     1       4.255   5.489  16.722  0.00  0.00    +0.000 A 
ATOM      8  C   UNL     1       5.358   5.011  16.011  0.00  0.00    +0.000 A 
ATOM      9  C   UNL     1       6.614   5.576  16.192  0.00  0.00    +0.000 A 
ATOM     10  C   UNL     1       6.774   6.616  17.108  0.00  0.00    +0.000 A 
ATOM     11  C   UNL     1       5.664   7.086  17.836  0.00  0.00    +0.000 A 
BRANCH   9  12
ATOM     12  O   UNL     1       7.615   4.997  15.462  0.00  0.00    +0.000 OA
ATOM     13  C   UNL     1       7.302   4.699  14.107  0.00  0.00    +0.000 C 
ENDBRANCH   9  12
ENDBRANCH   4   6
BRANCH   5  14
ATOM     14  C   UNL     1       2.023   5.005  19.588  0.00  0.00    +0.000 A 
ATOM     15  C   UNL     1       1.784   4.297  20.784  0.00  0.00    +0.000 A 
ATOM     16  C   UNL     1       1.240   3.008  20.790  0.00  0.00    +0.000 A 
ATOM     17  C   UNL     1       0.910   2.389  19.590  0.00  0.00    +0.000 A 
ATOM     18  C   UNL     1       1.113   3.060  18.391  0.00  0.00    +0.000 A 
ATOM     19  C   UNL     1       1.655   4.348  18.395  0.00  0.00    +0.000 A 
ENDBRANCH   5  14
BRANCH   1  20
ATOM     20  C   UNL     1       1.847   8.694  20.604  0.00  0.00    +0.000 C 
BRANCH  20  21
ATOM     21  N   UNL     1       0.672   9.539  20.888  0.00  0.00    +0.000 NA
BRANCH  21  23
ATOM     22  C   UNL     1      -0.937  11.199  19.872  0.00  0.00    +0.000 C 
ATOM     23  C   UNL     1      -0.043   9.974  19.678  0.00  0.00    +0.000 C 
ENDBRANCH  21  23
BRANCH  21  24
ATOM     24  C   UNL     1      -0.192   8.903  21.902  0.00  0.00    +0.000 C 
ATOM     25  C   UNL     1      -0.296   9.639  23.237  0.00  0.00    +0.000 C 
ENDBRANCH  21  24
ENDBRANCH  20  21
ENDBRANCH   1  20
TORSDOF 7
ENDMDL
MODEL 3
REMARK VINA RESULT:      -7.4      0.585      1.261
REMARK  Name = 
REMARK  10 active torsions:
REMARK  status: ('A' for Active; 'I' for Inactive)
REMARK    1  A    between atoms: C_1  and  C_2
REMARK    2  A    between atoms: C_2  and  N_3
REMARK    3  A    between atoms: N_3  and  C_4
REMARK    4  A    between atoms: N_3  and  C_6
REMARK    5  A    between atoms: C_4  and  C_5
REMARK    6  A    between atoms: C_6  and  C_7
REMARK    7  A    between atoms: N_10  and  C_11
REMARK    8  A    between atoms: C_14  and  O_15
REMARK    9  A    between atoms: O_15  and  C_16
REMARK   10  A    between atoms: C_19  and  C_20
REMARK                            x       y       z     vdW  Elec       q    Type
REMARK                         _______ _______ _______ _____ _____    ______ ____
ROOT
ATOM      1  C   UNL     1       1.642   7.507  19.653  0.00  0.00    +0.000 C 
ATOM      2  C   UNL     1       2.278   7.783  18.286  0.00  0.00    +0.000 C 
ATOM      3  O   UNL     1       2.036   8.516  17.355  0.00  0.00    +0.000 OA
ATOM      4  N   UNL     1       3.213   6.817  18.484  0.00  0.00    +0.000 N 
ATOM      5  C   UNL     1       2.648   6.307  19.735  0.00  0.00    +0.000 C 
ENDROOT
BRANCH   4   6
ATOM      6  C   UNL     1       4.291   6.388  17.707  0.00  0.00    +0.000 A 
ATOM      7  C   UNL     1       5.467   7.140  17.663  0.00  0.00    +0.000 A 
ATOM      8  C   UNL     1       6.539   6.742  16.862  0.00  0.00    +0.000 A 
ATOM      9  C   UNL     1       6.469   5.572  16.116  0.00  0.00    +0.000 A 
ATOM     10  C   UNL     1       5.307   4.802  16.156  0.00  0.00    +0.000 A 
ATOM     11  C   UNL     1       4.220   5.212  16.952  0.00  0.00    +0.000 A 
BRANCH   9  12
ATOM     12  O   UNL     1       7.570   5.313  15.349  0.00  0.00    +0.000 OA
ATOM     13  C   UNL     1       7.313   4.840  14.033  0.00  0.00    +0.000 C 
ENDBRANCH   9  12
ENDBRANCH   4   6
BRANCH   5  14
ATOM     14  C   UNL     1       2.017   4.844  19.738  0.00  0.00    +0.000 A 
ATOM     15  C   UNL     1       1.558   4.247  18.545  0.00  0.00    +0.000 A 
ATOM     16  C   UNL     1       0.978   2.974  18.526  0.00  0.00    +0.000 A 
ATOM     17  C   UNL     1       0.847   2.253  19.707  0.00  0.00    +0.000 A 
ATOM     18  C   UNL     1       1.304   2.799  20.900  0.00  0.00    +0.000 A 
ATOM     19  C   UNL     1       1.883   4.070  20.910  0.00  0.00    +0.000 A 
ENDBRANCH   5  14
BRANCH   1  20
ATOM     20  C   UNL     1       1.843   8.530  20.767  0.00  0.00    +0.000 C 
BRANCH  20  21
ATOM     21  N   UNL     1       0.649   9.301  21.160  0.00  0.00    +0.000 NA
BRANCH  21  23
ATOM     22  C   UNL     1      -0.753  10.208  23.055  0.00  0.00    +0.000 C 
ATOM     23  C   UNL     1       0.454   9.379  22.616  0.00  0.00    +0.000 C 
ENDBRANCH  21  23
BRANCH  21  24
ATOM     24  C   UNL     1       0.630  10.611  20.479  0.00  0.00    +0.000 C 
ATOM     25  C   UNL     1      -0.234  10.690  19.222  0.00  0.00    +0.000 C 
ENDBRANCH  21  24
ENDBRANCH  20  21
ENDBRANCH   1  20
TORSDOF 7
ENDMDL
MODEL 4
REMARK VINA RESULT:      -7.3      2.328      6.781
REMARK  Name = 
REMARK  10 active torsions:
REMARK  status: ('A' for Active; 'I' for Inactive)
REMARK    1  A    between atoms: C_1  and  C_2
REMARK    2  A    between atoms: C_2  and  N_3
REMARK    3  A    between atoms: N_3  and  C_4
REMARK    4  A    between atoms: N_3  and  C_6
REMARK    5  A    between atoms: C_4  and  C_5
REMARK    6  A    between atoms: C_6  and  C_7
REMARK    7  A    between atoms: N_10  and  C_11
REMARK    8  A    between atoms: C_14  and  O_15
REMARK    9  A    between atoms: O_15  and  C_16
REMARK   10  A    between atoms: C_19  and  C_20
REMARK                            x       y       z     vdW  Elec       q    Type
REMARK                         _______ _______ _______ _____ _____    ______ ____
ROOT
ATOM      1  C   UNL     1       3.347   3.789  18.331  0.00  0.00    +0.000 C 
ATOM      2  C   UNL     1       2.174   4.713  17.981  0.00  0.00    +0.000 C 
ATOM      3  O   UNL     1       1.221   4.652  17.238  0.00  0.00    +0.000 OA
ATOM      4  N   UNL     1       2.651   5.690  18.795  0.00  0.00    +0.000 N 
ATOM      5  C   UNL     1       3.914   5.022  19.118  0.00  0.00    +0.000 C 
ENDROOT
BRANCH   4   6
ATOM      6  C   UNL     1       2.154   6.951  19.130  0.00  0.00    +0.000 A 
ATOM      7  C   UNL     1       1.723   7.212  20.432  0.00  0.00    +0.000 A 
ATOM      8  C   UNL     1       1.190   8.457  20.772  0.00  0.00    +0.000 A 
ATOM      9  C   UNL     1       1.107   9.472  19.828  0.00  0.00    +0.000 A 
ATOM     10  C   UNL     1       1.543   9.235  18.525  0.00  0.00    +0.000 A 
ATOM     11  C   UNL     1       2.066   7.975  18.179  0.00  0.00    +0.000 A 
BRANCH   9  12
ATOM     12  O   UNL     1       0.535  10.630  20.278  0.00  0.00    +0.000 OA
ATOM     13  C   UNL     1      -0.124  10.549  21.535  0.00  0.00    +0.000 C 
ENDBRANCH   9  12
ENDBRANCH   4   6
BRANCH   5  14
ATOM     14  C   UNL     1       5.268   5.658  18.571  0.00  0.00    +0.000 A 
ATOM     15  C   UNL     1       6.495   5.431  19.229  0.00  0.00    +0.000 A 
ATOM     16  C   UNL     1       7.694   5.997  18.782  0.00  0.00    +0.000 A 
ATOM     17  C   UNL     1       7.700   6.807  17.652  0.00  0.00    +0.000 A 
ATOM     18  C   UNL     1       6.514   7.040  16.966  0.00  0.00    +0.000 A 
ATOM     19  C   UNL     1       5.322   6.468  17.419  0.00  0.00    +0.000 A 
ENDBRANCH   5  14
BRANCH   1  20
ATOM     20  C   UNL     1       3.078   2.584  19.227  0.00  0.00    +0.000 C 
BRANCH  20  21
ATOM     21  N   UNL     1       3.540   2.699  20.623  0.00  0.00    +0.000 NA
BRANCH  21  23
ATOM     22  C   UNL     1       1.081   3.016  21.101  0.00  0.00    +0.000 C 
ATOM     23  C   UNL     1       2.456   2.583  21.610  0.00  0.00    +0.000 C 
ENDBRANCH  21  23
BRANCH  21  24
ATOM     24  C   UNL     1       4.679   1.794  20.870  0.00  0.00    +0.000 C 
ATOM     25  C   UNL     1       4.924   0.732  19.800  0.00  0.00    +0.000 C 
ENDBRANCH  21  24
ENDBRANCH  20  21
ENDBRANCH   1  20
TORSDOF 7
ENDMDL
MODEL 5
REMARK VINA RESULT:      -7.2      0.627      1.548
REMARK  Name = 
REMARK  10 active torsions:
REMARK  status: ('A' for Active; 'I' for Inactive)
REMARK    1  A    between atoms: C_1  and  C_2
REMARK    2  A    between atoms: C_2  and  N_3
REMARK    3  A    between atoms: N_3  and  C_4
REMARK    4  A    between atoms: N_3  and  C_6
REMARK    5  A    between atoms: C_4  and  C_5
REMARK    6  A    between atoms: C_6  and  C_7
REMARK    7  A    between atoms: N_10  and  C_11
REMARK    8  A    between atoms: C_14  and  O_15
REMARK    9  A    between atoms: O_15  and  C_16
REMARK   10  A    between atoms: C_19  and  C_20
REMARK                            x       y       z     vdW  Elec       q    Type
REMARK                         _______ _______ _______ _____ _____    ______ ____
ROOT
ATOM      1  C   UNL     1       1.689   7.604  19.699  0.00  0.00    +0.000 C 
ATOM      2  C   UNL     1       2.312   7.878  18.326  0.00  0.00    +0.000 C 
ATOM      3  O   UNL     1       2.069   8.622  17.402  0.00  0.00    +0.000 OA
ATOM      4  N   UNL     1       3.232   6.896  18.505  0.00  0.00    +0.000 N 
ATOM      5  C   UNL     1       2.675   6.386  19.760  0.00  0.00    +0.000 C 
ENDROOT
BRANCH   4   6
ATOM      6  C   UNL     1       4.292   6.453  17.710  0.00  0.00    +0.000 A 
ATOM      7  C   UNL     1       5.509   7.138  17.719  0.00  0.00    +0.000 A 
ATOM      8  C   UNL     1       6.565   6.729  16.902  0.00  0.00    +0.000 A 
ATOM      9  C   UNL     1       6.436   5.612  16.088  0.00  0.00    +0.000 A 
ATOM     10  C   UNL     1       5.232   4.907  16.073  0.00  0.00    +0.000 A 
ATOM     11  C   UNL     1       4.163   5.330  16.885  0.00  0.00    +0.000 A 
BRANCH   9  12
ATOM     12  O   UNL     1       7.529   5.337  15.313  0.00  0.00    +0.000 OA
ATOM     13  C   UNL     1       7.258   4.809  14.021  0.00  0.00    +0.000 C 
ENDBRANCH   9  12
ENDBRANCH   4   6
BRANCH   5  14
ATOM     14  C   UNL     1       2.019   4.934  19.762  0.00  0.00    +0.000 A 
ATOM     15  C   UNL     1       1.867   4.207  20.961  0.00  0.00    +0.000 A 
ATOM     16  C   UNL     1       1.316   2.921  20.985  0.00  0.00    +0.000 A 
ATOM     17  C   UNL     1       0.892   2.324  19.804  0.00  0.00    +0.000 A 
ATOM     18  C   UNL     1       1.009   3.016  18.604  0.00  0.00    +0.000 A 
ATOM     19  C   UNL     1       1.559   4.301  18.589  0.00  0.00    +0.000 A 
ENDBRANCH   5  14
BRANCH   1  20
ATOM     20  C   UNL     1       1.923   8.616  20.817  0.00  0.00    +0.000 C 
BRANCH  20  21
ATOM     21  N   UNL     1       0.800   9.525  21.112  0.00  0.00    +0.000 NA
BRANCH  21  23
ATOM     22  C   UNL     1      -0.258  10.783  19.194  0.00  0.00    +0.000 C 
ATOM     23  C   UNL     1      -0.239   9.530  20.071  0.00  0.00    +0.000 C 
ENDBRANCH  21  23
BRANCH  21  24
ATOM     24  C   UNL     1       0.286   9.290  22.475  0.00  0.00    +0.000 C 
ATOM     25  C   UNL     1      -0.736  10.307  22.981  0.00  0.00    +0.000 C 
ENDBRANCH  21  24
ENDBRANCH  20  21
ENDBRANCH   1  20
TORSDOF 7
ENDMDL
MODEL 6
REMARK VINA RESULT:      -7.2      0.690      1.818
REMARK  Name = 
REMARK  10 active torsions:
REMARK  status: ('A' for Active; 'I' for Inactive)
REMARK    1  A    between atoms: C_1  and  C_2
REMARK    2  A    between atoms: C_2  and  N_3
REMARK    3  A    between atoms: N_3  and  C_4
REMARK    4  A    between atoms: N_3  and  C_6
REMARK    5  A    between atoms: C_4  and  C_5
REMARK    6  A    between atoms: C_6  and  C_7
REMARK    7  A    between atoms: N_10  and  C_11
REMARK    8  A    between atoms: C_14  and  O_15
REMARK    9  A    between atoms: O_15  and  C_16
REMARK   10  A    between atoms: C_19  and  C_20
REMARK                            x       y       z     vdW  Elec       q    Type
REMARK                         _______ _______ _______ _____ _____    ______ ____
ROOT
ATOM      1  C   UNL     1       1.640   7.657  19.580  0.00  0.00    +0.000 C 
ATOM      2  C   UNL     1       2.281   7.885  18.206  0.00  0.00    +0.000 C 
ATOM      3  O   UNL     1       2.039   8.583  17.247  0.00  0.00    +0.000 OA
ATOM      4  N   UNL     1       3.218   6.930  18.442  0.00  0.00    +0.000 N 
ATOM      5  C   UNL     1       2.649   6.463  19.708  0.00  0.00    +0.000 C 
ENDROOT
BRANCH   4   6
ATOM      6  C   UNL     1       4.300   6.477  17.685  0.00  0.00    +0.000 A 
ATOM      7  C   UNL     1       5.501   7.190  17.680  0.00  0.00    +0.000 A 
ATOM      8  C   UNL     1       6.578   6.768  16.899  0.00  0.00    +0.000 A 
ATOM      9  C   UNL     1       6.488   5.612  16.135  0.00  0.00    +0.000 A 
ATOM     10  C   UNL     1       5.301   4.879  16.136  0.00  0.00    +0.000 A 
ATOM     11  C   UNL     1       4.209   5.314  16.911  0.00  0.00    +0.000 A 
BRANCH   9  12
ATOM     12  O   UNL     1       7.599   5.327  15.391  0.00  0.00    +0.000 OA
ATOM     13  C   UNL     1       7.358   4.864  14.068  0.00  0.00    +0.000 C 
ENDBRANCH   9  12
ENDBRANCH   4   6
BRANCH   5  14
ATOM     14  C   UNL     1       2.023   5.000  19.762  0.00  0.00    +0.000 A 
ATOM     15  C   UNL     1       1.566   4.360  18.591  0.00  0.00    +0.000 A 
ATOM     16  C   UNL     1       0.990   3.086  18.615  0.00  0.00    +0.000 A 
ATOM     17  C   UNL     1       0.861   2.405  19.821  0.00  0.00    +0.000 A 
ATOM     18  C   UNL     1       1.316   2.994  20.995  0.00  0.00    +0.000 A 
ATOM     19  C   UNL     1       1.891   4.267  20.960  0.00  0.00    +0.000 A 
ENDBRANCH   5  14
BRANCH   1  20
ATOM     20  C   UNL     1       1.834   8.720  20.656  0.00  0.00    +0.000 C 
BRANCH  20  21
ATOM     21  N   UNL     1       0.671   9.587  20.927  0.00  0.00    +0.000 NA
BRANCH  21  23
ATOM     22  C   UNL     1      -1.112  11.078  19.942  0.00  0.00    +0.000 C 
ATOM     23  C   UNL     1      -0.028  10.025  19.710  0.00  0.00    +0.000 C 
ENDBRANCH  21  23
BRANCH  21  24
ATOM     24  C   UNL     1      -0.209   8.973  21.940  0.00  0.00    +0.000 C 
ATOM     25  C   UNL     1      -0.040   9.493  23.366  0.00  0.00    +0.000 C 
ENDBRANCH  21  24
ENDBRANCH  20  21
ENDBRANCH   1  20
TORSDOF 7
ENDMDL
MODEL 7
REMARK VINA RESULT:      -7.2      1.922      6.781
REMARK  Name = 
REMARK  10 active torsions:
REMARK  status: ('A' for Active; 'I' for Inactive)
REMARK    1  A    between atoms: C_1  and  C_2
REMARK    2  A    between atoms: C_2  and  N_3
REMARK    3  A    between atoms: N_3  and  C_4
REMARK    4  A    between atoms: N_3  and  C_6
REMARK    5  A    between atoms: C_4  and  C_5
REMARK    6  A    between atoms: C_6  and  C_7
REMARK    7  A    between atoms: N_10  and  C_11
REMARK    8  A    between atoms: C_14  and  O_15
REMARK    9  A    between atoms: O_15  and  C_16
REMARK   10  A    between atoms: C_19  and  C_20
REMARK                            x       y       z     vdW  Elec       q    Type
REMARK                         _______ _______ _______ _____ _____    ______ ____
ROOT
ATOM      1  C   UNL     1       4.380   4.985  17.509  0.00  0.00    +0.000 C 
ATOM      2  C   UNL     1       4.541   6.429  17.996  0.00  0.00    +0.000 C 
ATOM      3  O   UNL     1       5.476   7.162  18.227  0.00  0.00    +0.000 OA
ATOM      4  N   UNL     1       3.198   6.569  18.145  0.00  0.00    +0.000 N 
ATOM      5  C   UNL     1       2.863   5.172  17.860  0.00  0.00    +0.000 C 
ENDROOT
BRANCH   4   6
ATOM      6  C   UNL     1       2.410   7.653  18.536  0.00  0.00    +0.000 A 
ATOM      7  C   UNL     1       1.992   7.773  19.863  0.00  0.00    +0.000 A 
ATOM      8  C   UNL     1       1.173   8.832  20.261  0.00  0.00    +0.000 A 
ATOM      9  C   UNL     1       0.784   9.806  19.350  0.00  0.00    +0.000 A 
ATOM     10  C   UNL     1       1.201   9.710  18.023  0.00  0.00    +0.000 A 
ATOM     11  C   UNL     1       2.013   8.633  17.619  0.00  0.00    +0.000 A 
BRANCH   9  12
ATOM     12  O   UNL     1      -0.043  10.769  19.858  0.00  0.00    +0.000 OA
ATOM     13  C   UNL     1      -1.098  11.194  19.004  0.00  0.00    +0.000 C 
ENDBRANCH   9  12
ENDBRANCH   4   6
BRANCH   5  14
ATOM     14  C   UNL     1       2.287   4.275  19.045  0.00  0.00    +0.000 A 
ATOM     15  C   UNL     1       2.772   4.413  20.362  0.00  0.00    +0.000 A 
ATOM     16  C   UNL     1       2.300   3.621  21.415  0.00  0.00    +0.000 A 
ATOM     17  C   UNL     1       1.317   2.667  21.179  0.00  0.00    +0.000 A 
ATOM     18  C   UNL     1       0.802   2.513  19.897  0.00  0.00    +0.000 A 
ATOM     19  C   UNL     1       1.278   3.310  18.853  0.00  0.00    +0.000 A 
ENDBRANCH   5  14
BRANCH   1  20
ATOM     20  C   UNL     1       4.616   4.687  16.031  0.00  0.00    +0.000 C 
BRANCH  20  21
ATOM     21  N   UNL     1       5.940   4.136  15.686  0.00  0.00    +0.000 NA
BRANCH  21  23
ATOM     22  C   UNL     1       7.080   4.713  13.509  0.00  0.00    +0.000 C 
ATOM     23  C   UNL     1       6.090   3.821  14.257  0.00  0.00    +0.000 C 
ENDBRANCH  21  23
BRANCH  21  24
ATOM     24  C   UNL     1       7.015   4.987  16.232  0.00  0.00    +0.000 C 
ATOM     25  C   UNL     1       7.705   4.457  17.488  0.00  0.00    +0.000 C 
ENDBRANCH  21  24
ENDBRANCH  20  21
ENDBRANCH   1  20
TORSDOF 7
ENDMDL
MODEL 8
REMARK VINA RESULT:      -7.1      2.392      6.723
REMARK  Name = 
REMARK  10 active torsions:
REMARK  status: ('A' for Active; 'I' for Inactive)
REMARK    1  A    between atoms: C_1  and  C_2
REMARK    2  A    between atoms: C_2  and  N_3
REMARK    3  A    between atoms: N_3  and  C_4
REMARK    4  A    between atoms: N_3  and  C_6
REMARK    5  A    between atoms: C_4  and  C_5
REMARK    6  A    between atoms: C_6  and  C_7
REMARK    7  A    between atoms: N_10  and  C_11
REMARK    8  A    between atoms: C_14  and  O_15
REMARK    9  A    between atoms: O_15  and  C_16
REMARK   10  A    between atoms: C_19  and  C_20
REMARK                            x       y       z     vdW  Elec       q    Type
REMARK                         _______ _______ _______ _____ _____    ______ ____
ROOT
ATOM      1  C   UNL     1       3.431   3.717  18.343  0.00  0.00    +0.000 C 
ATOM      2  C   UNL     1       2.235   4.616  18.009  0.00  0.00    +0.000 C 
ATOM      3  O   UNL     1       1.284   4.544  17.264  0.00  0.00    +0.000 OA
ATOM      4  N   UNL     1       2.687   5.590  18.841  0.00  0.00    +0.000 N 
ATOM      5  C   UNL     1       3.966   4.949  19.153  0.00  0.00    +0.000 C 
ENDROOT
BRANCH   4   6
ATOM      6  C   UNL     1       2.157   6.831  19.199  0.00  0.00    +0.000 A 
ATOM      7  C   UNL     1       2.081   7.859  18.256  0.00  0.00    +0.000 A 
ATOM      8  C   UNL     1       1.588   9.117  18.610  0.00  0.00    +0.000 A 
ATOM      9  C   UNL     1       1.133   9.361  19.899  0.00  0.00    +0.000 A 
ATOM     10  C   UNL     1       1.190   8.343  20.851  0.00  0.00    +0.000 A 
ATOM     11  C   UNL     1       1.702   7.080  20.499  0.00  0.00    +0.000 A 
BRANCH   9  12
ATOM     12  O   UNL     1       0.707  10.641  20.125  0.00  0.00    +0.000 OA
ATOM     13  C   UNL     1       0.130  11.309  19.011  0.00  0.00    +0.000 C 
ENDBRANCH   9  12
ENDBRANCH   4   6
BRANCH   5  14
ATOM     14  C   UNL     1       5.304   5.629  18.618  0.00  0.00    +0.000 A 
ATOM     15  C   UNL     1       5.300   6.426  17.454  0.00  0.00    +0.000 A 
ATOM     16  C   UNL     1       6.465   7.015  16.952  0.00  0.00    +0.000 A 
ATOM     17  C   UNL     1       7.676   6.828  17.608  0.00  0.00    +0.000 A 
ATOM     18  C   UNL     1       7.718   6.064  18.769  0.00  0.00    +0.000 A 
ATOM     19  C   UNL     1       6.548   5.482  19.264  0.00  0.00    +0.000 A 
ENDBRANCH   5  14
BRANCH   1  20
ATOM     20  C   UNL     1       3.194   2.488  19.216  0.00  0.00    +0.000 C 
BRANCH  20  21
ATOM     21  N   UNL     1       3.575   2.620  20.635  0.00  0.00    +0.000 NA
BRANCH  21  23
ATOM     22  C   UNL     1       1.138   3.080  21.108  0.00  0.00    +0.000 C 
ATOM     23  C   UNL     1       2.449   2.439  21.563  0.00  0.00    +0.000 C 
ENDBRANCH  21  23
BRANCH  21  24
ATOM     24  C   UNL     1       4.748   1.775  20.937  0.00  0.00    +0.000 C 
ATOM     25  C   UNL     1       5.002   0.624  19.966  0.00  0.00    +0.000 C 
ENDBRANCH  21  24
ENDBRANCH  20  21
ENDBRANCH   1  20
TORSDOF 7
ENDMDL
MODEL 9
REMARK VINA RESULT:      -7.1      2.002      6.577
REMARK  Name = 
REMARK  10 active torsions:
REMARK  status: ('A' for Active; 'I' for Inactive)
REMARK    1  A    between atoms: C_1  and  C_2
REMARK    2  A    between atoms: C_2  and  N_3
REMARK    3  A    between atoms: N_3  and  C_4
REMARK    4  A    between atoms: N_3  and  C_6
REMARK    5  A    between atoms: C_4  and  C_5
REMARK    6  A    between atoms: C_6  and  C_7
REMARK    7  A    between atoms: N_10  and  C_11
REMARK    8  A    between atoms: C_14  and  O_15
REMARK    9  A    between atoms: O_15  and  C_16
REMARK   10  A    between atoms: C_19  and  C_20
REMARK                            x       y       z     vdW  Elec       q    Type
REMARK                         _______ _______ _______ _____ _____    ______ ____
ROOT
ATOM      1  C   UNL     1       4.307   4.830  17.546  0.00  0.00    +0.000 C 
ATOM      2  C   UNL     1       4.508   6.287  17.980  0.00  0.00    +0.000 C 
ATOM      3  O   UNL     1       5.462   7.013  18.147  0.00  0.00    +0.000 OA
ATOM      4  N   UNL     1       3.174   6.452  18.180  0.00  0.00    +0.000 N 
ATOM      5  C   UNL     1       2.809   5.051  17.955  0.00  0.00    +0.000 C 
ENDROOT
BRANCH   4   6
ATOM      6  C   UNL     1       2.418   7.559  18.568  0.00  0.00    +0.000 A 
ATOM      7  C   UNL     1       2.071   8.535  17.632  0.00  0.00    +0.000 A 
ATOM      8  C   UNL     1       1.347   9.666  18.014  0.00  0.00    +0.000 A 
ATOM      9  C   UNL     1       0.930   9.827  19.329  0.00  0.00    +0.000 A 
ATOM     10  C   UNL     1       1.257   8.858  20.277  0.00  0.00    +0.000 A 
ATOM     11  C   UNL     1       2.000   7.725  19.894  0.00  0.00    +0.000 A 
BRANCH   9  12
ATOM     12  O   UNL     1       0.259  10.992  19.580  0.00  0.00    +0.000 OA
ATOM     13  C   UNL     1       0.840  12.172  19.039  0.00  0.00    +0.000 C 
ENDBRANCH   9  12
ENDBRANCH   4   6
BRANCH   5  14
ATOM     14  C   UNL     1       2.272   4.202  19.191  0.00  0.00    +0.000 A 
ATOM     15  C   UNL     1       1.287   3.207  19.017  0.00  0.00    +0.000 A 
ATOM     16  C   UNL     1       0.783   2.464  20.090  0.00  0.00    +0.000 A 
ATOM     17  C   UNL     1       1.257   2.692  21.376  0.00  0.00    +0.000 A 
ATOM     18  C   UNL     1       2.241   3.652  21.586  0.00  0.00    +0.000 A 
ATOM     19  C   UNL     1       2.740   4.387  20.508  0.00  0.00    +0.000 A 
ENDBRANCH   5  14
BRANCH   1  20
ATOM     20  C   UNL     1       4.477   4.483  16.071  0.00  0.00    +0.000 C 
BRANCH  20  21
ATOM     21  N   UNL     1       5.782   4.821  15.473  0.00  0.00    +0.000 NA
BRANCH  21  23
ATOM     22  C   UNL     1       7.660   4.568  17.141  0.00  0.00    +0.000 C 
ATOM     23  C   UNL     1       6.886   3.980  15.961  0.00  0.00    +0.000 C 
ENDBRANCH  21  23
BRANCH  21  24
ATOM     24  C   UNL     1       5.679   4.884  14.002  0.00  0.00    +0.000 C 
ATOM     25  C   UNL     1       6.158   3.643  13.251  0.00  0.00    +0.000 C 
ENDBRANCH  21  24
ENDBRANCH  20  21
ENDBRANCH   1  20
TORSDOF 7
ENDMDL
