MODEL 1
REMARK VINA RESULT:      -8.5      0.000      0.000
REMARK  Name = 
REMARK  4 active torsions:
REMARK  status: ('A' for Active; 'I' for Inactive)
REMARK    1  A    between atoms: C_1  and  C_2
REMARK    2  A    between atoms: C_3  and  C_4
REMARK    3  A    between atoms: C_4  and  N_5
REMARK    4  A    between atoms: N_5  and  C_6
REMARK                            x       y       z     vdW  Elec       q    Type
REMARK                         _______ _______ _______ _____ _____    ______ ____
ROOT
ATOM      1  C   UNL     1       3.230   7.550  17.256  0.00  0.00    +0.000 C 
ATOM      2  C   UNL     1       2.513   7.591  18.556  0.00  0.00    +0.000 A 
ATOM      3  C   UNL     1       2.361   6.602  19.519  0.00  0.00    +0.000 A 
ATOM      4  O   UNL     1       1.630   7.089  20.591  0.00  0.00    +0.000 OA
ATOM      5  C   UNL     1       1.299   8.371  20.279  0.00  0.00    +0.000 A 
ATOM      6  C   UNL     1       1.809   8.712  19.049  0.00  0.00    +0.000 A 
ATOM      7  C   UNL     1       1.564  10.031  18.520  0.00  0.00    +0.000 C 
ATOM      8  O   UNL     1       2.225  10.528  17.620  0.00  0.00    +0.000 OA
ATOM      9  C   UNL     1       0.419  10.812  19.172  0.00  0.00    +0.000 C 
ATOM     10  O   UNL     1      -0.194  11.664  18.548  0.00  0.00    +0.000 OA
ATOM     11  C   UNL     1       0.070  10.461  20.580  0.00  0.00    +0.000 A 
ATOM     12  C   UNL     1      -0.685  11.377  21.320  0.00  0.00    +0.000 A 
ATOM     13  C   UNL     1      -0.973  11.100  22.651  0.00  0.00    +0.000 A 
ATOM     14  C   UNL     1      -0.523   9.909  23.229  0.00  0.00    +0.000 A 
ATOM     15  C   UNL     1       0.209   8.972  22.478  0.00  0.00    +0.000 A 
ATOM     16  C   UNL     1       0.516   9.243  21.143  0.00  0.00    +0.000 A 
ENDROOT
BRANCH   3  17
ATOM     17  C   UNL     1       2.858   5.179  19.594  0.00  0.00    +0.000 C 
BRANCH  17  18
ATOM     18  N   UNL     1       4.262   5.107  19.990  0.00  0.00    +0.000 N 
ATOM     19  H   UNL     1       4.387   4.389  20.701  0.00  0.00    +0.000 HD
BRANCH  18  20
ATOM     20  C   UNL     1       5.301   5.098  19.056  0.00  0.00    +0.000 A 
ATOM     21  C   UNL     1       6.621   5.474  19.337  0.00  0.00    +0.000 A 
ATOM     22  C   UNL     1       7.633   5.348  18.370  0.00  0.00    +0.000 A 
ATOM     23  C   UNL     1       7.344   4.827  17.110  0.00  0.00    +0.000 A 
ATOM     24  C   UNL     1       6.048   4.415  16.831  0.00  0.00    +0.000 A 
ATOM     25 CL   UNL     1       5.672   3.749  15.289  0.00  0.00    +0.000 Cl
ATOM     26  C   UNL     1       5.046   4.531  17.798  0.00  0.00    +0.000 A 
ENDBRANCH  18  20
ENDBRANCH  17  18
ENDBRANCH   3  17
TORSDOF 3
ENDMDL
MODEL 2
REMARK VINA RESULT:      -8.3      1.147      1.517
REMARK  Name = 
REMARK  4 active torsions:
REMARK  status: ('A' for Active; 'I' for Inactive)
REMARK    1  A    between atoms: C_1  and  C_2
REMARK    2  A    between atoms: C_3  and  C_4
REMARK    3  A    between atoms: C_4  and  N_5
REMARK    4  A    between atoms: N_5  and  C_6
REMARK                            x       y       z     vdW  Elec       q    Type
REMARK                         _______ _______ _______ _____ _____    ______ ____
ROOT
ATOM      1  C   UNL     1       3.193   7.644  17.425  0.00  0.00    +0.000 C 
ATOM      2  C   UNL     1       2.458   7.721  18.713  0.00  0.00    +0.000 A 
ATOM      3  C   UNL     1       2.335   6.777  19.724  0.00  0.00    +0.000 A 
ATOM      4  O   UNL     1       1.569   7.286  20.760  0.00  0.00    +0.000 OA
ATOM      5  C   UNL     1       1.188   8.534  20.379  0.00  0.00    +0.000 A 
ATOM      6  C   UNL     1       1.700   8.834  19.139  0.00  0.00    +0.000 A 
ATOM      7  C   UNL     1       1.406  10.112  18.540  0.00  0.00    +0.000 C 
ATOM      8  O   UNL     1       2.058  10.591  17.623  0.00  0.00    +0.000 OA
ATOM      9  C   UNL     1       0.220  10.875  19.138  0.00  0.00    +0.000 C 
ATOM     10  O   UNL     1      -0.421  11.668  18.463  0.00  0.00    +0.000 OA
ATOM     11  C   UNL     1      -0.133  10.583  20.558  0.00  0.00    +0.000 A 
ATOM     12  C   UNL     1      -0.936  11.501  21.241  0.00  0.00    +0.000 A 
ATOM     13  C   UNL     1      -1.231  11.281  22.581  0.00  0.00    +0.000 A 
ATOM     14  C   UNL     1      -0.738  10.142  23.224  0.00  0.00    +0.000 A 
ATOM     15  C   UNL     1       0.043   9.200  22.531  0.00  0.00    +0.000 A 
ATOM     16  C   UNL     1       0.357   9.416  21.188  0.00  0.00    +0.000 A 
ENDROOT
BRANCH   3  17
ATOM     17  C   UNL     1       2.891   5.383  19.878  0.00  0.00    +0.000 C 
BRANCH  17  18
ATOM     18  N   UNL     1       3.118   4.735  18.589  0.00  0.00    +0.000 N 
ATOM     19  H   UNL     1       2.442   5.070  17.906  0.00  0.00    +0.000 HD
BRANCH  18  20
ATOM     20  C   UNL     1       4.394   4.607  18.034  0.00  0.00    +0.000 A 
ATOM     21  C   UNL     1       4.650   4.152  16.733  0.00  0.00    +0.000 A 
ATOM     22  C   UNL     1       5.954   4.140  16.211  0.00  0.00    +0.000 A 
ATOM     23  C   UNL     1       7.025   4.599  16.977  0.00  0.00    +0.000 A 
ATOM     24  C   UNL     1       6.780   5.088  18.253  0.00  0.00    +0.000 A 
ATOM     25 CL   UNL     1       8.084   5.680  19.209  0.00  0.00    +0.000 Cl
ATOM     26  C   UNL     1       5.481   5.109  18.765  0.00  0.00    +0.000 A 
ENDBRANCH  18  20
ENDBRANCH  17  18
ENDBRANCH   3  17
TORSDOF 3
ENDMDL
MODEL 3
REMARK VINA RESULT:      -8.3      3.572      8.305
REMARK  Name = 
REMARK  4 active torsions:
REMARK  status: ('A' for Active; 'I' for Inactive)
REMARK    1  A    between atoms: C_1  and  C_2
REMARK    2  A    between atoms: C_3  and  C_4
REMARK    3  A    between atoms: C_4  and  N_5
REMARK    4  A    between atoms: N_5  and  C_6
REMARK                            x       y       z     vdW  Elec       q    Type
REMARK                         _______ _______ _______ _____ _____    ______ ____
ROOT
ATOM      1  C   UNL     1       1.150   7.811  20.870  0.00  0.00    +0.000 C 
ATOM      2  C   UNL     1       1.928   7.732  19.609  0.00  0.00    +0.000 A 
ATOM      3  C   UNL     1       2.099   8.679  18.608  0.00  0.00    +0.000 A 
ATOM      4  O   UNL     1       2.932   8.182  17.618  0.00  0.00    +0.000 OA
ATOM      5  C   UNL     1       3.251   6.913  17.987  0.00  0.00    +0.000 A 
ATOM      6  C   UNL     1       2.657   6.598  19.185  0.00  0.00    +0.000 A 
ATOM      7  C   UNL     1       2.858   5.288  19.755  0.00  0.00    +0.000 C 
ATOM      8  O   UNL     1       2.654   5.028  20.932  0.00  0.00    +0.000 OA
ATOM      9  C   UNL     1       3.376   4.213  18.795  0.00  0.00    +0.000 C 
ATOM     10  O   UNL     1       3.129   3.032  18.984  0.00  0.00    +0.000 OA
ATOM     11  C   UNL     1       4.160   4.676  17.613  0.00  0.00    +0.000 A 
ATOM     12  C   UNL     1       4.953   3.741  16.941  0.00  0.00    +0.000 A 
ATOM     13  C   UNL     1       5.738   4.158  15.872  0.00  0.00    +0.000 A 
ATOM     14  C   UNL     1       5.713   5.498  15.472  0.00  0.00    +0.000 A 
ATOM     15  C   UNL     1       4.892   6.434  16.126  0.00  0.00    +0.000 A 
ATOM     16  C   UNL     1       4.108   6.029  17.209  0.00  0.00    +0.000 A 
ENDROOT
BRANCH   3  17
ATOM     17  C   UNL     1       1.579  10.087  18.450  0.00  0.00    +0.000 C 
BRANCH  17  18
ATOM     18  N   UNL     1       0.290  10.124  17.765  0.00  0.00    +0.000 N 
ATOM     19  H   UNL     1       0.073   9.207  17.379  0.00  0.00    +0.000 HD
BRANCH  18  20
ATOM     20  C   UNL     1      -0.837  10.726  18.330  0.00  0.00    +0.000 A 
ATOM     21  C   UNL     1      -0.843  11.399  19.559  0.00  0.00    +0.000 A 
ATOM     22  C   UNL     1      -1.994  12.063  20.018  0.00  0.00    +0.000 A 
ATOM     23  C   UNL     1      -3.155  12.078  19.247  0.00  0.00    +0.000 A 
ATOM     24  C   UNL     1      -3.151  11.447  18.010  0.00  0.00    +0.000 A 
ATOM     25 CL   UNL     1      -4.566  11.470  17.030  0.00  0.00    +0.000 Cl
ATOM     26  C   UNL     1      -2.002  10.798  17.551  0.00  0.00    +0.000 A 
ENDBRANCH  18  20
ENDBRANCH  17  18
ENDBRANCH   3  17
TORSDOF 3
ENDMDL
MODEL 4
REMARK VINA RESULT:      -8.2      3.498      8.345
REMARK  Name = 
REMARK  4 active torsions:
REMARK  status: ('A' for Active; 'I' for Inactive)
REMARK    1  A    between atoms: C_1  and  C_2
REMARK    2  A    between atoms: C_3  and  C_4
REMARK    3  A    between atoms: C_4  and  N_5
REMARK    4  A    between atoms: N_5  and  C_6
REMARK                            x       y       z     vdW  Elec       q    Type
REMARK                         _______ _______ _______ _____ _____    ______ ____
ROOT
ATOM      1  C   UNL     1       1.367   7.708  20.636  0.00  0.00    +0.000 C 
ATOM      2  C   UNL     1       2.145   7.617  19.375  0.00  0.00    +0.000 A 
ATOM      3  C   UNL     1       2.325   8.559  18.371  0.00  0.00    +0.000 A 
ATOM      4  O   UNL     1       3.153   8.051  17.383  0.00  0.00    +0.000 OA
ATOM      5  C   UNL     1       3.460   6.780  17.755  0.00  0.00    +0.000 A 
ATOM      6  C   UNL     1       2.863   6.475  18.955  0.00  0.00    +0.000 A 
ATOM      7  C   UNL     1       3.051   5.165  19.529  0.00  0.00    +0.000 C 
ATOM      8  O   UNL     1       2.844   4.911  20.706  0.00  0.00    +0.000 OA
ATOM      9  C   UNL     1       3.559   4.082  18.572  0.00  0.00    +0.000 C 
ATOM     10  O   UNL     1       3.301   2.904  18.765  0.00  0.00    +0.000 OA
ATOM     11  C   UNL     1       4.348   4.534  17.388  0.00  0.00    +0.000 A 
ATOM     12  C   UNL     1       5.132   3.589  16.719  0.00  0.00    +0.000 A 
ATOM     13  C   UNL     1       5.921   3.996  15.650  0.00  0.00    +0.000 A 
ATOM     14  C   UNL     1       5.909   5.334  15.245  0.00  0.00    +0.000 A 
ATOM     15  C   UNL     1       5.097   6.280  15.896  0.00  0.00    +0.000 A 
ATOM     16  C   UNL     1       4.309   5.886  16.980  0.00  0.00    +0.000 A 
ENDROOT
BRANCH   3  17
ATOM     17  C   UNL     1       1.818   9.971  18.208  0.00  0.00    +0.000 C 
BRANCH  17  18
ATOM     18  N   UNL     1       0.395  10.011  17.880  0.00  0.00    +0.000 N 
ATOM     19  H   UNL     1       0.045   9.068  17.730  0.00  0.00    +0.000 HD
BRANCH  18  20
ATOM     20  C   UNL     1      -0.513  10.793  18.597  0.00  0.00    +0.000 A 
ATOM     21  C   UNL     1      -1.754  11.219  18.103  0.00  0.00    +0.000 A 
ATOM     22  C   UNL     1      -2.657  11.923  18.918  0.00  0.00    +0.000 A 
ATOM     23  C   UNL     1      -2.340  12.199  20.247  0.00  0.00    +0.000 A 
ATOM     24  C   UNL     1      -1.131  11.750  20.760  0.00  0.00    +0.000 A 
ATOM     25 CL   UNL     1      -0.728  12.061  22.405  0.00  0.00    +0.000 Cl
ATOM     26  C   UNL     1      -0.240  11.040  19.951  0.00  0.00    +0.000 A 
ENDBRANCH  18  20
ENDBRANCH  17  18
ENDBRANCH   3  17
TORSDOF 3
ENDMDL
MODEL 5
REMARK VINA RESULT:      -8.1      3.715      8.438
REMARK  Name = 
REMARK  4 active torsions:
REMARK  status: ('A' for Active; 'I' for Inactive)
REMARK    1  A    between atoms: C_1  and  C_2
REMARK    2  A    between atoms: C_3  and  C_4
REMARK    3  A    between atoms: C_4  and  N_5
REMARK    4  A    between atoms: N_5  and  C_6
REMARK                            x       y       z     vdW  Elec       q    Type
REMARK                         _______ _______ _______ _____ _____    ______ ____
ROOT
ATOM      1  C   UNL     1       1.542   6.120  20.841  0.00  0.00    +0.000 C 
ATOM      2  C   UNL     1       2.286   6.414  19.591  0.00  0.00    +0.000 A 
ATOM      3  C   UNL     1       2.365   7.591  18.858  0.00  0.00    +0.000 A 
ATOM      4  O   UNL     1       3.199   7.418  17.765  0.00  0.00    +0.000 OA
ATOM      5  C   UNL     1       3.612   6.123  17.799  0.00  0.00    +0.000 A 
ATOM      6  C   UNL     1       3.076   5.477  18.887  0.00  0.00    +0.000 A 
ATOM      7  C   UNL     1       3.380   4.084  19.108  0.00  0.00    +0.000 C 
ATOM      8  O   UNL     1       3.228   3.525  20.184  0.00  0.00    +0.000 OA
ATOM      9  C   UNL     1       3.940   3.323  17.903  0.00  0.00    +0.000 C 
ATOM     10  O   UNL     1       3.778   2.117  17.792  0.00  0.00    +0.000 OA
ATOM     11  C   UNL     1       4.657   4.121  16.865  0.00  0.00    +0.000 A 
ATOM     12  C   UNL     1       5.490   3.443  15.970  0.00  0.00    +0.000 A 
ATOM     13  C   UNL     1       6.213   4.169  15.032  0.00  0.00    +0.000 A 
ATOM     14  C   UNL     1       6.088   5.561  14.981  0.00  0.00    +0.000 A 
ATOM     15  C   UNL     1       5.226   6.242  15.858  0.00  0.00    +0.000 A 
ATOM     16  C   UNL     1       4.503   5.525  16.814  0.00  0.00    +0.000 A 
ENDROOT
BRANCH   3  17
ATOM     17  C   UNL     1       1.748   8.953  19.064  0.00  0.00    +0.000 C 
BRANCH  17  18
ATOM     18  N   UNL     1       0.900   9.349  17.942  0.00  0.00    +0.000 N 
ATOM     19  H   UNL     1       0.761   8.560  17.314  0.00  0.00    +0.000 HD
BRANCH  18  20
ATOM     20  C   UNL     1      -0.274  10.084  18.118  0.00  0.00    +0.000 A 
ATOM     21  C   UNL     1      -1.430   9.929  17.340  0.00  0.00    +0.000 A 
ATOM     22  C   UNL     1      -2.606  10.638  17.638  0.00  0.00    +0.000 A 
ATOM     23  C   UNL     1      -2.652  11.502  18.730  0.00  0.00    +0.000 A 
ATOM     24  C   UNL     1      -1.526  11.636  19.532  0.00  0.00    +0.000 A 
ATOM     25 CL   UNL     1      -1.566  12.682  20.899  0.00  0.00    +0.000 Cl
ATOM     26  C   UNL     1      -0.361  10.922  19.240  0.00  0.00    +0.000 A 
ENDBRANCH  18  20
ENDBRANCH  17  18
ENDBRANCH   3  17
TORSDOF 3
ENDMDL
MODEL 6
REMARK VINA RESULT:      -8.1      1.136      1.630
REMARK  Name = 
REMARK  4 active torsions:
REMARK  status: ('A' for Active; 'I' for Inactive)
REMARK    1  A    between atoms: C_1  and  C_2
REMARK    2  A    between atoms: C_3  and  C_4
REMARK    3  A    between atoms: C_4  and  N_5
REMARK    4  A    between atoms: N_5  and  C_6
REMARK                            x       y       z     vdW  Elec       q    Type
REMARK                         _______ _______ _______ _____ _____    ______ ____
ROOT
ATOM      1  C   UNL     1       2.908   7.779  17.898  0.00  0.00    +0.000 C 
ATOM      2  C   UNL     1       2.064   7.986  19.102  0.00  0.00    +0.000 A 
ATOM      3  C   UNL     1       1.715   7.094  20.107  0.00  0.00    +0.000 A 
ATOM      4  O   UNL     1       0.925   7.728  21.053  0.00  0.00    +0.000 OA
ATOM      5  C   UNL     1       0.754   9.005  20.617  0.00  0.00    +0.000 A 
ATOM      6  C   UNL     1       1.423   9.200  19.433  0.00  0.00    +0.000 A 
ATOM      7  C   UNL     1       1.365  10.490  18.789  0.00  0.00    +0.000 C 
ATOM      8  O   UNL     1       2.163  10.854  17.938  0.00  0.00    +0.000 OA
ATOM      9  C   UNL     1       0.237  11.418  19.252  0.00  0.00    +0.000 C 
ATOM     10  O   UNL     1      -0.220  12.270  18.505  0.00  0.00    +0.000 OA
ATOM     11  C   UNL     1      -0.291  11.213  20.632  0.00  0.00    +0.000 A 
ATOM     12  C   UNL     1      -1.029  12.248  21.216  0.00  0.00    +0.000 A 
ATOM     13  C   UNL     1      -1.484  12.105  22.522  0.00  0.00    +0.000 A 
ATOM     14  C   UNL     1      -1.215  10.928  23.228  0.00  0.00    +0.000 A 
ATOM     15  C   UNL     1      -0.501   9.873  22.632  0.00  0.00    +0.000 A 
ATOM     16  C   UNL     1      -0.029  10.009  21.324  0.00  0.00    +0.000 A 
ENDROOT
BRANCH   3  17
ATOM     17  C   UNL     1       2.061   5.644  20.336  0.00  0.00    +0.000 C 
BRANCH  17  18
ATOM     18  N   UNL     1       3.497   5.397  20.229  0.00  0.00    +0.000 N 
ATOM     19  H   UNL     1       3.841   4.960  21.082  0.00  0.00    +0.000 HD
BRANCH  18  20
ATOM     20  C   UNL     1       4.073   4.831  19.090  0.00  0.00    +0.000 A 
ATOM     21  C   UNL     1       3.346   4.303  18.014  0.00  0.00    +0.000 A 
ATOM     22  C   UNL     1       3.996   3.836  16.858  0.00  0.00    +0.000 A 
ATOM     23  C   UNL     1       5.384   3.904  16.752  0.00  0.00    +0.000 A 
ATOM     24  C   UNL     1       6.113   4.460  17.795  0.00  0.00    +0.000 A 
ATOM     25 CL   UNL     1       7.827   4.575  17.677  0.00  0.00    +0.000 Cl
ATOM     26  C   UNL     1       5.465   4.934  18.937  0.00  0.00    +0.000 A 
ENDBRANCH  18  20
ENDBRANCH  17  18
ENDBRANCH   3  17
TORSDOF 3
ENDMDL
MODEL 7
REMARK VINA RESULT:      -8.1      3.756      8.267
REMARK  Name = 
REMARK  4 active torsions:
REMARK  status: ('A' for Active; 'I' for Inactive)
REMARK    1  A    between atoms: C_1  and  C_2
REMARK    2  A    between atoms: C_3  and  C_4
REMARK    3  A    between atoms: C_4  and  N_5
REMARK    4  A    between atoms: N_5  and  C_6
REMARK                            x       y       z     vdW  Elec       q    Type
REMARK                         _______ _______ _______ _____ _____    ______ ____
ROOT
ATOM      1  C   UNL     1       1.059   7.862  20.946  0.00  0.00    +0.000 C 
ATOM      2  C   UNL     1       1.836   7.798  19.682  0.00  0.00    +0.000 A 
ATOM      3  C   UNL     1       2.004   8.757  18.692  0.00  0.00    +0.000 A 
ATOM      4  O   UNL     1       2.835   8.272  17.695  0.00  0.00    +0.000 OA
ATOM      5  C   UNL     1       3.158   6.999  18.049  0.00  0.00    +0.000 A 
ATOM      6  C   UNL     1       2.566   6.670  19.245  0.00  0.00    +0.000 A 
ATOM      7  C   UNL     1       2.770   5.355  19.800  0.00  0.00    +0.000 C 
ATOM      8  O   UNL     1       2.568   5.082  20.975  0.00  0.00    +0.000 OA
ATOM      9  C   UNL     1       3.289   4.291  18.828  0.00  0.00    +0.000 C 
ATOM     10  O   UNL     1       3.045   3.107  19.004  0.00  0.00    +0.000 OA
ATOM     11  C   UNL     1       4.071   4.768  17.649  0.00  0.00    +0.000 A 
ATOM     12  C   UNL     1       4.864   3.842  16.966  0.00  0.00    +0.000 A 
ATOM     13  C   UNL     1       5.646   4.273  15.901  0.00  0.00    +0.000 A 
ATOM     14  C   UNL     1       5.618   5.617  15.515  0.00  0.00    +0.000 A 
ATOM     15  C   UNL     1       4.797   6.543  16.180  0.00  0.00    +0.000 A 
ATOM     16  C   UNL     1       4.015   6.126  17.260  0.00  0.00    +0.000 A 
ENDROOT
BRANCH   3  17
ATOM     17  C   UNL     1       1.481  10.165  18.550  0.00  0.00    +0.000 C 
BRANCH  17  18
ATOM     18  N   UNL     1       0.187  10.341  19.204  0.00  0.00    +0.000 N 
ATOM     19  H   UNL     1       0.266  11.024  19.955  0.00  0.00    +0.000 HD
BRANCH  18  20
ATOM     20  C   UNL     1      -0.998  10.499  18.483  0.00  0.00    +0.000 A 
ATOM     21  C   UNL     1      -1.296   9.825  17.291  0.00  0.00    +0.000 A 
ATOM     22  C   UNL     1      -2.550   9.964  16.672  0.00  0.00    +0.000 A 
ATOM     23  C   UNL     1      -3.534  10.767  17.243  0.00  0.00    +0.000 A 
ATOM     24  C   UNL     1      -3.266  11.411  18.444  0.00  0.00    +0.000 A 
ATOM     25 CL   UNL     1      -4.474  12.391  19.181  0.00  0.00    +0.000 Cl
ATOM     26  C   UNL     1      -2.023  11.262  19.064  0.00  0.00    +0.000 A 
ENDBRANCH  18  20
ENDBRANCH  17  18
ENDBRANCH   3  17
TORSDOF 3
ENDMDL
MODEL 8
REMARK VINA RESULT:      -8.0      3.120      4.969
REMARK  Name = 
REMARK  4 active torsions:
REMARK  status: ('A' for Active; 'I' for Inactive)
REMARK    1  A    between atoms: C_1  and  C_2
REMARK    2  A    between atoms: C_3  and  C_4
REMARK    3  A    between atoms: C_4  and  N_5
REMARK    4  A    between atoms: N_5  and  C_6
REMARK                            x       y       z     vdW  Elec       q    Type
REMARK                         _______ _______ _______ _____ _____    ______ ____
ROOT
ATOM      1  C   UNL     1       4.103   2.045  17.163  0.00  0.00    +0.000 C 
ATOM      2  C   UNL     1       3.946   3.519  17.233  0.00  0.00    +0.000 A 
ATOM      3  C   UNL     1       4.465   4.509  16.409  0.00  0.00    +0.000 A 
ATOM      4  O   UNL     1       4.039   5.757  16.836  0.00  0.00    +0.000 OA
ATOM      5  C   UNL     1       3.285   5.545  17.947  0.00  0.00    +0.000 A 
ATOM      6  C   UNL     1       3.209   4.202  18.226  0.00  0.00    +0.000 A 
ATOM      7  C   UNL     1       2.460   3.756  19.376  0.00  0.00    +0.000 C 
ATOM      8  O   UNL     1       2.069   2.607  19.520  0.00  0.00    +0.000 OA
ATOM      9  C   UNL     1       2.149   4.826  20.427  0.00  0.00    +0.000 C 
ATOM     10  O   UNL     1       1.985   4.524  21.600  0.00  0.00    +0.000 OA
ATOM     11  C   UNL     1       2.090   6.243  19.962  0.00  0.00    +0.000 A 
ATOM     12  C   UNL     1       1.453   7.180  20.781  0.00  0.00    +0.000 A 
ATOM     13  C   UNL     1       1.334   8.494  20.344  0.00  0.00    +0.000 A 
ATOM     14  C   UNL     1       1.865   8.867  19.105  0.00  0.00    +0.000 A 
ATOM     15  C   UNL     1       2.534   7.933  18.294  0.00  0.00    +0.000 A 
ATOM     16  C   UNL     1       2.650   6.607  18.716  0.00  0.00    +0.000 A 
ENDROOT
BRANCH   3  17
ATOM     17  C   UNL     1       5.339   4.446  15.180  0.00  0.00    +0.000 C 
BRANCH  17  18
ATOM     18  N   UNL     1       6.543   5.262  15.319  0.00  0.00    +0.000 N 
ATOM     19  H   UNL     1       6.525   6.027  14.648  0.00  0.00    +0.000 HD
BRANCH  18  20
ATOM     20  C   UNL     1       7.023   5.676  16.563  0.00  0.00    +0.000 A 
ATOM     21  C   UNL     1       7.381   4.808  17.603  0.00  0.00    +0.000 A 
ATOM     22  C   UNL     1       7.947   5.296  18.793  0.00  0.00    +0.000 A 
ATOM     23  C   UNL     1       8.181   6.660  18.957  0.00  0.00    +0.000 A 
ATOM     24  C   UNL     1       7.866   7.527  17.920  0.00  0.00    +0.000 A 
ATOM     25 CL   UNL     1       8.164   9.214  18.091  0.00  0.00    +0.000 Cl
ATOM     26  C   UNL     1       7.314   7.039  16.733  0.00  0.00    +0.000 A 
ENDBRANCH  18  20
ENDBRANCH  17  18
ENDBRANCH   3  17
TORSDOF 3
ENDMDL
MODEL 9
REMARK VINA RESULT:      -7.9      3.410      8.360
REMARK  Name = 
REMARK  4 active torsions:
REMARK  status: ('A' for Active; 'I' for Inactive)
REMARK    1  A    between atoms: C_1  and  C_2
REMARK    2  A    between atoms: C_3  and  C_4
REMARK    3  A    between atoms: C_4  and  N_5
REMARK    4  A    between atoms: N_5  and  C_6
REMARK                            x       y       z     vdW  Elec       q    Type
REMARK                         _______ _______ _______ _____ _____    ______ ____
ROOT
ATOM      1  C   UNL     1       1.510   5.584  20.969  0.00  0.00    +0.000 C 
ATOM      2  C   UNL     1       2.241   6.003  19.747  0.00  0.00    +0.000 A 
ATOM      3  C   UNL     1       2.284   7.239  19.116  0.00  0.00    +0.000 A 
ATOM      4  O   UNL     1       3.119   7.182  18.012  0.00  0.00    +0.000 OA
ATOM      5  C   UNL     1       3.568   5.901  17.936  0.00  0.00    +0.000 A 
ATOM      6  C   UNL     1       3.054   5.151  18.966  0.00  0.00    +0.000 A 
ATOM      7  C   UNL     1       3.398   3.754  19.068  0.00  0.00    +0.000 C 
ATOM      8  O   UNL     1       3.265   3.102  20.094  0.00  0.00    +0.000 OA
ATOM      9  C   UNL     1       3.974   3.113  17.802  0.00  0.00    +0.000 C 
ATOM     10  O   UNL     1       3.845   1.916  17.590  0.00  0.00    +0.000 OA
ATOM     11  C   UNL     1       4.665   4.015  16.835  0.00  0.00    +0.000 A 
ATOM     12  C   UNL     1       5.513   3.438  15.885  0.00  0.00    +0.000 A 
ATOM     13  C   UNL     1       6.213   4.261  15.010  0.00  0.00    +0.000 A 
ATOM     14  C   UNL     1       6.048   5.648  15.077  0.00  0.00    +0.000 A 
ATOM     15  C   UNL     1       5.171   6.229  16.010  0.00  0.00    +0.000 A 
ATOM     16  C   UNL     1       4.472   5.414  16.903  0.00  0.00    +0.000 A 
ENDROOT
BRANCH   3  17
ATOM     17  C   UNL     1       1.630   8.561  19.438  0.00  0.00    +0.000 C 
BRANCH  17  18
ATOM     18  N   UNL     1       1.644   8.848  20.870  0.00  0.00    +0.000 N 
ATOM     19  H   UNL     1       2.592   9.055  21.175  0.00  0.00    +0.000 HD
BRANCH  18  20
ATOM     20  C   UNL     1       0.710   9.696  21.469  0.00  0.00    +0.000 A 
ATOM     21  C   UNL     1      -0.082   9.350  22.573  0.00  0.00    +0.000 A 
ATOM     22  C   UNL     1      -0.931  10.290  23.180  0.00  0.00    +0.000 A 
ATOM     23  C   UNL     1      -0.992  11.598  22.704  0.00  0.00    +0.000 A 
ATOM     24  C   UNL     1      -0.185  11.965  21.635  0.00  0.00    +0.000 A 
ATOM     25 CL   UNL     1      -0.227  13.581  21.044  0.00  0.00    +0.000 Cl
ATOM     26  C   UNL     1       0.667  11.032  21.040  0.00  0.00    +0.000 A 
ENDBRANCH  18  20
ENDBRANCH  17  18
ENDBRANCH   3  17
TORSDOF 3
ENDMDL
