MODEL 1
REMARK VINA RESULT:      -6.7      0.000      0.000
REMARK  Name = 
REMARK  11 active torsions:
REMARK  status: ('A' for Active; 'I' for Inactive)
REMARK    1  A    between atoms: C_1  and  N_2
REMARK    2  A    between atoms: C_4  and  C_5
REMARK    3  A    between atoms: C_5  and  C_6
REMARK    4  A    between atoms: C_6  and  N_7
REMARK    5  A    between atoms: C_6  and  C_8
REMARK    6  A    between atoms: C_8  and  O_10
REMARK    7  A    between atoms: O_10  and  C_11
REMARK    8  A    between atoms: C_11  and  C_12
REMARK    9  A    between atoms: C_12  and  O_13
REMARK   10  A    between atoms: C_12  and  C_14
REMARK   11  A    between atoms: C_14  and  O_15
REMARK                            x       y       z     vdW  Elec       q    Type
REMARK                         _______ _______ _______ _____ _____    ______ ____
ROOT
ATOM      1  C   UNL     1       5.488   3.964  16.434  0.00  0.00    +0.000 C 
ENDROOT
BRANCH   1   2
ATOM      2  N   UNL     1       5.888   2.923  15.484  0.00  0.00    +0.000 NA
ATOM      3  H   UNL     1       6.288   3.353  14.618  0.00  0.00    +0.000 HD
ATOM      4  H   UNL     1       5.062   2.337  15.224  0.00  0.00    +0.000 HD
ENDBRANCH   1   2
BRANCH   1   5
ATOM      5  C   UNL     1       6.401   5.151  16.237  0.00  0.00    +0.000 C 
ATOM      6  O   UNL     1       6.055   6.073  15.512  0.00  0.00    +0.000 OA
BRANCH   5   7
ATOM      7  O   UNL     1       7.638   5.138  16.805  0.00  0.00    +0.000 OA
BRANCH   7   8
ATOM      8  C   UNL     1       7.902   4.755  18.108  0.00  0.00    +0.000 C 
BRANCH   8   9
ATOM      9  C   UNL     1       7.567   5.871  19.106  0.00  0.00    +0.000 C 
BRANCH   9  10
ATOM     10  O   UNL     1       7.958   5.517  20.409  0.00  0.00    +0.000 OA
ATOM     11  H   UNL     1       8.651   4.809  20.334  0.00  0.00    +0.000 HD
ENDBRANCH   9  10
BRANCH   9  12
ATOM     12  C   UNL     1       8.234   7.191  18.673  0.00  0.00    +0.000 C 
BRANCH  12  13
ATOM     13  O   UNL     1       7.487   7.818  17.667  0.00  0.00    +0.000 OA
ATOM     14  H   UNL     1       7.247   8.718  18.013  0.00  0.00    +0.000 HD
ENDBRANCH  12  13
ENDBRANCH   9  12
ENDBRANCH   8   9
ENDBRANCH   7   8
ENDBRANCH   5   7
ENDBRANCH   1   5
BRANCH   1  15
ATOM     15  C   UNL     1       3.985   4.304  16.259  0.00  0.00    +0.000 C 
BRANCH  15  19
ATOM     16  C   UNL     1       2.164   7.368  19.869  0.00  0.00    +0.000 C 
ATOM     17  N   UNL     1       2.485   6.165  19.107  0.00  0.00    +0.000 N 
ATOM     18  C   UNL     1       3.225   6.120  17.977  0.00  0.00    +0.000 A 
ATOM     19  C   UNL     1       3.295   4.810  17.503  0.00  0.00    +0.000 A 
ATOM     20  C   UNL     1       2.579   4.045  18.414  0.00  0.00    +0.000 A 
ATOM     21  C   UNL     1       2.313   2.674  18.463  0.00  0.00    +0.000 A 
ATOM     22  C   UNL     1       1.530   2.193  19.531  0.00  0.00    +0.000 A 
ATOM     23  C   UNL     1       1.033   3.079  20.511  0.00  0.00    +0.000 A 
ATOM     24  C   UNL     1       1.318   4.453  20.437  0.00  0.00    +0.000 A 
ATOM     25  C   UNL     1       2.098   4.904  19.372  0.00  0.00    +0.000 A 
ENDBRANCH  15  19
ENDBRANCH   1  15
TORSDOF 10
ENDMDL
MODEL 2
REMARK VINA RESULT:      -6.6      2.986      4.592
REMARK  Name = 
REMARK  11 active torsions:
REMARK  status: ('A' for Active; 'I' for Inactive)
REMARK    1  A    between atoms: C_1  and  N_2
REMARK    2  A    between atoms: C_4  and  C_5
REMARK    3  A    between atoms: C_5  and  C_6
REMARK    4  A    between atoms: C_6  and  N_7
REMARK    5  A    between atoms: C_6  and  C_8
REMARK    6  A    between atoms: C_8  and  O_10
REMARK    7  A    between atoms: O_10  and  C_11
REMARK    8  A    between atoms: C_11  and  C_12
REMARK    9  A    between atoms: C_12  and  O_13
REMARK   10  A    between atoms: C_12  and  C_14
REMARK   11  A    between atoms: C_14  and  O_15
REMARK                            x       y       z     vdW  Elec       q    Type
REMARK                         _______ _______ _______ _____ _____    ______ ____
ROOT
ATOM      1  C   UNL     1       6.251   5.385  15.676  0.00  0.00    +0.000 C 
ENDROOT
BRANCH   1   2
ATOM      2  N   UNL     1       7.390   5.964  16.391  0.00  0.00    +0.000 NA
ATOM      3  H   UNL     1       7.129   6.887  16.810  0.00  0.00    +0.000 HD
ATOM      4  H   UNL     1       8.194   6.102  15.738  0.00  0.00    +0.000 HD
ENDBRANCH   1   2
BRANCH   1   5
ATOM      5  C   UNL     1       6.739   4.914  14.326  0.00  0.00    +0.000 C 
ATOM      6  O   UNL     1       7.757   5.392  13.845  0.00  0.00    +0.000 OA
BRANCH   5   7
ATOM      7  O   UNL     1       5.990   4.021  13.624  0.00  0.00    +0.000 OA
BRANCH   7   8
ATOM      8  C   UNL     1       6.343   3.492  12.395  0.00  0.00    +0.000 C 
BRANCH   8   9
ATOM      9  C   UNL     1       5.322   2.455  11.909  0.00  0.00    +0.000 C 
BRANCH   9  10
ATOM     10  O   UNL     1       4.311   3.063  11.144  0.00  0.00    +0.000 OA
ATOM     11  H   UNL     1       4.747   3.530  10.384  0.00  0.00    +0.000 HD
ENDBRANCH   9  10
BRANCH   9  12
ATOM     12  C   UNL     1       6.028   1.349  11.104  0.00  0.00    +0.000 C 
BRANCH  12  13
ATOM     13  O   UNL     1       7.419   1.433  11.258  0.00  0.00    +0.000 OA
ATOM     14  H   UNL     1       7.802   1.482  10.342  0.00  0.00    +0.000 HD
ENDBRANCH  12  13
ENDBRANCH   9  12
ENDBRANCH   8   9
ENDBRANCH   7   8
ENDBRANCH   5   7
ENDBRANCH   1   5
BRANCH   1  15
ATOM     15  C   UNL     1       5.598   4.263  16.524  0.00  0.00    +0.000 C 
BRANCH  15  19
ATOM     16  C   UNL     1       2.397   7.141  19.210  0.00  0.00    +0.000 C 
ATOM     17  N   UNL     1       3.020   5.980  18.583  0.00  0.00    +0.000 N 
ATOM     18  C   UNL     1       4.168   5.989  17.868  0.00  0.00    +0.000 A 
ATOM     19  C   UNL     1       4.443   4.708  17.391  0.00  0.00    +0.000 A 
ATOM     20  C   UNL     1       3.418   3.903  17.869  0.00  0.00    +0.000 A 
ATOM     21  C   UNL     1       3.169   2.536  17.720  0.00  0.00    +0.000 A 
ATOM     22  C   UNL     1       2.014   2.005  18.329  0.00  0.00    +0.000 A 
ATOM     23  C   UNL     1       1.143   2.842  19.060  0.00  0.00    +0.000 A 
ATOM     24  C   UNL     1       1.419   4.213  19.194  0.00  0.00    +0.000 A 
ATOM     25  C   UNL     1       2.570   4.712  18.585  0.00  0.00    +0.000 A 
ENDBRANCH  15  19
ENDBRANCH   1  15
TORSDOF 10
ENDMDL
MODEL 3
REMARK VINA RESULT:      -6.5      1.981      3.363
REMARK  Name = 
REMARK  11 active torsions:
REMARK  status: ('A' for Active; 'I' for Inactive)
REMARK    1  A    between atoms: C_1  and  N_2
REMARK    2  A    between atoms: C_4  and  C_5
REMARK    3  A    between atoms: C_5  and  C_6
REMARK    4  A    between atoms: C_6  and  N_7
REMARK    5  A    between atoms: C_6  and  C_8
REMARK    6  A    between atoms: C_8  and  O_10
REMARK    7  A    between atoms: O_10  and  C_11
REMARK    8  A    between atoms: C_11  and  C_12
REMARK    9  A    between atoms: C_12  and  O_13
REMARK   10  A    between atoms: C_12  and  C_14
REMARK   11  A    between atoms: C_14  and  O_15
REMARK                            x       y       z     vdW  Elec       q    Type
REMARK                         _______ _______ _______ _____ _____    ______ ____
ROOT
ATOM      1  C   UNL     1       6.055   5.370  17.682  0.00  0.00    +0.000 C 
ENDROOT
BRANCH   1   2
ATOM      2  N   UNL     1       6.364   4.100  18.342  0.00  0.00    +0.000 NA
ATOM      3  H   UNL     1       6.340   3.314  17.651  0.00  0.00    +0.000 HD
ATOM      4  H   UNL     1       5.670   3.910  19.100  0.00  0.00    +0.000 HD
ENDBRANCH   1   2
BRANCH   1   5
ATOM      5  C   UNL     1       7.048   5.567  16.560  0.00  0.00    +0.000 C 
ATOM      6  O   UNL     1       7.505   6.680  16.339  0.00  0.00    +0.000 OA
BRANCH   5   7
ATOM      7  O   UNL     1       7.357   4.515  15.755  0.00  0.00    +0.000 OA
BRANCH   7   8
ATOM      8  C   UNL     1       6.505   3.969  14.811  0.00  0.00    +0.000 C 
BRANCH   8   9
ATOM      9  C   UNL     1       6.650   4.660  13.449  0.00  0.00    +0.000 C 
BRANCH   9  10
ATOM     10  O   UNL     1       7.803   5.463  13.412  0.00  0.00    +0.000 OA
ATOM     11  H   UNL     1       7.655   6.174  12.735  0.00  0.00    +0.000 HD
ENDBRANCH   9  10
BRANCH   9  12
ATOM     12  C   UNL     1       6.675   3.613  12.320  0.00  0.00    +0.000 C 
BRANCH  12  13
ATOM     13  O   UNL     1       5.380   3.158  12.037  0.00  0.00    +0.000 OA
ATOM     14  H   UNL     1       5.176   3.446  11.108  0.00  0.00    +0.000 HD
ENDBRANCH  12  13
ENDBRANCH   9  12
ENDBRANCH   8   9
ENDBRANCH   7   8
ENDBRANCH   5   7
ENDBRANCH   1   5
BRANCH   1  15
ATOM     15  C   UNL     1       4.578   5.385  17.209  0.00  0.00    +0.000 C 
BRANCH  15  19
ATOM     16  C   UNL     1       1.513   7.336  20.751  0.00  0.00    +0.000 C 
ATOM     17  N   UNL     1       2.194   6.378  19.884  0.00  0.00    +0.000 N 
ATOM     18  C   UNL     1       3.160   6.673  18.987  0.00  0.00    +0.000 A 
ATOM     19  C   UNL     1       3.555   5.518  18.312  0.00  0.00    +0.000 A 
ATOM     20  C   UNL     1       2.797   4.490  18.858  0.00  0.00    +0.000 A 
ATOM     21  C   UNL     1       2.765   3.120  18.585  0.00  0.00    +0.000 A 
ATOM     22  C   UNL     1       1.861   2.324  19.316  0.00  0.00    +0.000 A 
ATOM     23  C   UNL     1       1.017   2.906  20.286  0.00  0.00    +0.000 A 
ATOM     24  C   UNL     1       1.072   4.287  20.541  0.00  0.00    +0.000 A 
ATOM     25  C   UNL     1       1.979   5.053  19.807  0.00  0.00    +0.000 A 
ENDBRANCH  15  19
ENDBRANCH   1  15
TORSDOF 10
ENDMDL
MODEL 4
REMARK VINA RESULT:      -6.5      1.468      2.835
REMARK  Name = 
REMARK  11 active torsions:
REMARK  status: ('A' for Active; 'I' for Inactive)
REMARK    1  A    between atoms: C_1  and  N_2
REMARK    2  A    between atoms: C_4  and  C_5
REMARK    3  A    between atoms: C_5  and  C_6
REMARK    4  A    between atoms: C_6  and  N_7
REMARK    5  A    between atoms: C_6  and  C_8
REMARK    6  A    between atoms: C_8  and  O_10
REMARK    7  A    between atoms: O_10  and  C_11
REMARK    8  A    between atoms: C_11  and  C_12
REMARK    9  A    between atoms: C_12  and  O_13
REMARK   10  A    between atoms: C_12  and  C_14
REMARK   11  A    between atoms: C_14  and  O_15
REMARK                            x       y       z     vdW  Elec       q    Type
REMARK                         _______ _______ _______ _____ _____    ______ ____
ROOT
ATOM      1  C   UNL     1       6.234   3.909  15.552  0.00  0.00    +0.000 C 
ENDROOT
BRANCH   1   2
ATOM      2  N   UNL     1       6.612   3.860  14.138  0.00  0.00    +0.000 NA
ATOM      3  H   UNL     1       5.826   4.203  13.537  0.00  0.00    +0.000 HD
ATOM      4  H   UNL     1       6.851   2.881  13.862  0.00  0.00    +0.000 HD
ENDBRANCH   1   2
BRANCH   1   5
ATOM      5  C   UNL     1       7.311   4.662  16.297  0.00  0.00    +0.000 C 
ATOM      6  O   UNL     1       8.104   4.053  17.002  0.00  0.00    +0.000 OA
BRANCH   5   7
ATOM      7  O   UNL     1       7.331   6.021  16.240  0.00  0.00    +0.000 OA
BRANCH   7   8
ATOM      8  C   UNL     1       7.017   6.858  17.297  0.00  0.00    +0.000 C 
BRANCH   8   9
ATOM      9  C   UNL     1       8.102   6.834  18.381  0.00  0.00    +0.000 C 
BRANCH   9  10
ATOM     10  O   UNL     1       8.494   8.138  18.731  0.00  0.00    +0.000 OA
ATOM     11  H   UNL     1       8.254   8.279  19.684  0.00  0.00    +0.000 HD
ENDBRANCH   9  10
BRANCH   9  12
ATOM     12  C   UNL     1       7.604   6.060  19.616  0.00  0.00    +0.000 C 
BRANCH  12  13
ATOM     13  O   UNL     1       8.550   5.109  20.022  0.00  0.00    +0.000 OA
ATOM     14  H   UNL     1       8.265   4.242  19.630  0.00  0.00    +0.000 HD
ENDBRANCH  12  13
ENDBRANCH   9  12
ENDBRANCH   8   9
ENDBRANCH   7   8
ENDBRANCH   5   7
ENDBRANCH   1   5
BRANCH   1  15
ATOM     15  C   UNL     1       4.822   4.532  15.709  0.00  0.00    +0.000 C 
BRANCH  15  19
ATOM     16  C   UNL     1       3.355   2.617  20.173  0.00  0.00    +0.000 C 
ATOM     17  N   UNL     1       3.559   3.545  19.064  0.00  0.00    +0.000 N 
ATOM     18  C   UNL     1       4.162   3.253  17.891  0.00  0.00    +0.000 A 
ATOM     19  C   UNL     1       4.211   4.389  17.083  0.00  0.00    +0.000 A 
ATOM     20  C   UNL     1       3.584   5.392  17.811  0.00  0.00    +0.000 A 
ATOM     21  C   UNL     1       3.331   6.733  17.510  0.00  0.00    +0.000 A 
ATOM     22  C   UNL     1       2.671   7.513  18.480  0.00  0.00    +0.000 A 
ATOM     23  C   UNL     1       2.287   6.945  19.715  0.00  0.00    +0.000 A 
ATOM     24  C   UNL     1       2.554   5.594  19.990  0.00  0.00    +0.000 A 
ATOM     25  C   UNL     1       3.205   4.842  19.012  0.00  0.00    +0.000 A 
ENDBRANCH  15  19
ENDBRANCH   1  15
TORSDOF 10
ENDMDL
MODEL 5
REMARK VINA RESULT:      -6.4      1.478      2.494
REMARK  Name = 
REMARK  11 active torsions:
REMARK  status: ('A' for Active; 'I' for Inactive)
REMARK    1  A    between atoms: C_1  and  N_2
REMARK    2  A    between atoms: C_4  and  C_5
REMARK    3  A    between atoms: C_5  and  C_6
REMARK    4  A    between atoms: C_6  and  N_7
REMARK    5  A    between atoms: C_6  and  C_8
REMARK    6  A    between atoms: C_8  and  O_10
REMARK    7  A    between atoms: O_10  and  C_11
REMARK    8  A    between atoms: C_11  and  C_12
REMARK    9  A    between atoms: C_12  and  O_13
REMARK   10  A    between atoms: C_12  and  C_14
REMARK   11  A    between atoms: C_14  and  O_15
REMARK                            x       y       z     vdW  Elec       q    Type
REMARK                         _______ _______ _______ _____ _____    ______ ____
ROOT
ATOM      1  C   UNL     1       6.062   3.946  15.330  0.00  0.00    +0.000 C 
ENDROOT
BRANCH   1   2
ATOM      2  N   UNL     1       5.992   3.234  14.053  0.00  0.00    +0.000 NA
ATOM      3  H   UNL     1       6.288   3.861  13.268  0.00  0.00    +0.000 HD
ATOM      4  H   UNL     1       5.017   2.904  13.876  0.00  0.00    +0.000 HD
ENDBRANCH   1   2
BRANCH   1   5
ATOM      5  C   UNL     1       7.227   4.905  15.267  0.00  0.00    +0.000 C 
ATOM      6  O   UNL     1       7.633   5.301  14.183  0.00  0.00    +0.000 OA
BRANCH   5   7
ATOM      7  O   UNL     1       7.866   5.251  16.418  0.00  0.00    +0.000 OA
BRANCH   7   8
ATOM      8  C   UNL     1       7.540   4.769  17.674  0.00  0.00    +0.000 C 
BRANCH   8   9
ATOM      9  C   UNL     1       7.200   5.906  18.646  0.00  0.00    +0.000 C 
BRANCH   9  10
ATOM     10  O   UNL     1       8.287   6.188  19.492  0.00  0.00    +0.000 OA
ATOM     11  H   UNL     1       8.291   5.508  20.216  0.00  0.00    +0.000 HD
ENDBRANCH   9  10
BRANCH   9  12
ATOM     12  C   UNL     1       6.770   7.163  17.867  0.00  0.00    +0.000 C 
BRANCH  12  13
ATOM     13  O   UNL     1       7.887   7.828  17.343  0.00  0.00    +0.000 OA
ATOM     14  H   UNL     1       8.499   7.999  18.106  0.00  0.00    +0.000 HD
ENDBRANCH  12  13
ENDBRANCH   9  12
ENDBRANCH   8   9
ENDBRANCH   7   8
ENDBRANCH   5   7
ENDBRANCH   1   5
BRANCH   1  15
ATOM     15  C   UNL     1       4.707   4.638  15.634  0.00  0.00    +0.000 C 
BRANCH  15  19
ATOM     16  C   UNL     1       3.502   2.410  20.030  0.00  0.00    +0.000 C 
ATOM     17  N   UNL     1       3.625   3.409  18.972  0.00  0.00    +0.000 N 
ATOM     18  C   UNL     1       4.188   3.209  17.760  0.00  0.00    +0.000 A 
ATOM     19  C   UNL     1       4.161   4.392  17.021  0.00  0.00    +0.000 A 
ATOM     20  C   UNL     1       3.531   5.325  17.833  0.00  0.00    +0.000 A 
ATOM     21  C   UNL     1       3.217   6.671  17.624  0.00  0.00    +0.000 A 
ATOM     22  C   UNL     1       2.572   7.367  18.666  0.00  0.00    +0.000 A 
ATOM     23  C   UNL     1       2.262   6.714  19.878  0.00  0.00    +0.000 A 
ATOM     24  C   UNL     1       2.589   5.359  20.060  0.00  0.00    +0.000 A 
ATOM     25  C   UNL     1       3.223   4.691  19.012  0.00  0.00    +0.000 A 
ENDBRANCH  15  19
ENDBRANCH   1  15
TORSDOF 10
ENDMDL
MODEL 6
REMARK VINA RESULT:      -6.4      1.547      2.418
REMARK  Name = 
REMARK  11 active torsions:
REMARK  status: ('A' for Active; 'I' for Inactive)
REMARK    1  A    between atoms: C_1  and  N_2
REMARK    2  A    between atoms: C_4  and  C_5
REMARK    3  A    between atoms: C_5  and  C_6
REMARK    4  A    between atoms: C_6  and  N_7
REMARK    5  A    between atoms: C_6  and  C_8
REMARK    6  A    between atoms: C_8  and  O_10
REMARK    7  A    between atoms: O_10  and  C_11
REMARK    8  A    between atoms: C_11  and  C_12
REMARK    9  A    between atoms: C_12  and  O_13
REMARK   10  A    between atoms: C_12  and  C_14
REMARK   11  A    between atoms: C_14  and  O_15
REMARK                            x       y       z     vdW  Elec       q    Type
REMARK                         _______ _______ _______ _____ _____    ______ ____
ROOT
ATOM      1  C   UNL     1       5.215   5.650  15.876  0.00  0.00    +0.000 C 
ENDROOT
BRANCH   1   2
ATOM      2  N   UNL     1       5.162   6.848  15.035  0.00  0.00    +0.000 NA
ATOM      3  H   UNL     1       4.800   6.611  14.082  0.00  0.00    +0.000 HD
ATOM      4  H   UNL     1       6.115   7.267  14.943  0.00  0.00    +0.000 HD
ENDBRANCH   1   2
BRANCH   1   5
ATOM      5  C   UNL     1       6.666   5.271  16.055  0.00  0.00    +0.000 C 
ATOM      6  O   UNL     1       7.499   5.643  15.239  0.00  0.00    +0.000 OA
BRANCH   5   7
ATOM      7  O   UNL     1       7.015   4.447  17.079  0.00  0.00    +0.000 OA
BRANCH   7   8
ATOM      8  C   UNL     1       7.993   4.728  18.018  0.00  0.00    +0.000 C 
BRANCH   8   9
ATOM      9  C   UNL     1       7.543   5.823  18.994  0.00  0.00    +0.000 C 
BRANCH   9  10
ATOM     10  O   UNL     1       7.794   5.446  20.325  0.00  0.00    +0.000 OA
ATOM     11  H   UNL     1       8.314   4.600  20.306  0.00  0.00    +0.000 HD
ENDBRANCH   9  10
BRANCH   9  12
ATOM     12  C   UNL     1       8.241   7.155  18.660  0.00  0.00    +0.000 C 
BRANCH  12  13
ATOM     13  O   UNL     1       7.567   7.823  17.629  0.00  0.00    +0.000 OA
ATOM     14  H   UNL     1       6.702   7.352  17.504  0.00  0.00    +0.000 HD
ENDBRANCH  12  13
ENDBRANCH   9  12
ENDBRANCH   8   9
ENDBRANCH   7   8
ENDBRANCH   5   7
ENDBRANCH   1   5
BRANCH   1  15
ATOM     15  C   UNL     1       4.471   5.899  17.214  0.00  0.00    +0.000 C 
BRANCH  15  19
ATOM     16  C   UNL     1       3.608   1.060  18.471  0.00  0.00    +0.000 C 
ATOM     17  N   UNL     1       3.521   2.517  18.432  0.00  0.00    +0.000 N 
ATOM     18  C   UNL     1       4.216   3.328  17.604  0.00  0.00    +0.000 A 
ATOM     19  C   UNL     1       3.908   4.661  17.871  0.00  0.00    +0.000 A 
ATOM     20  C   UNL     1       2.967   4.629  18.892  0.00  0.00    +0.000 A 
ATOM     21  C   UNL     1       2.293   5.655  19.561  0.00  0.00    +0.000 A 
ATOM     22  C   UNL     1       1.389   5.294  20.580  0.00  0.00    +0.000 A 
ATOM     23  C   UNL     1       1.184   3.936  20.907  0.00  0.00    +0.000 A 
ATOM     24  C   UNL     1       1.875   2.926  20.217  0.00  0.00    +0.000 A 
ATOM     25  C   UNL     1       2.761   3.309  19.209  0.00  0.00    +0.000 A 
ENDBRANCH  15  19
ENDBRANCH   1  15
TORSDOF 10
ENDMDL
MODEL 7
REMARK VINA RESULT:      -6.3      0.886      1.484
REMARK  Name = 
REMARK  11 active torsions:
REMARK  status: ('A' for Active; 'I' for Inactive)
REMARK    1  A    between atoms: C_1  and  N_2
REMARK    2  A    between atoms: C_4  and  C_5
REMARK    3  A    between atoms: C_5  and  C_6
REMARK    4  A    between atoms: C_6  and  N_7
REMARK    5  A    between atoms: C_6  and  C_8
REMARK    6  A    between atoms: C_8  and  O_10
REMARK    7  A    between atoms: O_10  and  C_11
REMARK    8  A    between atoms: C_11  and  C_12
REMARK    9  A    between atoms: C_12  and  O_13
REMARK   10  A    between atoms: C_12  and  C_14
REMARK   11  A    between atoms: C_14  and  O_15
REMARK                            x       y       z     vdW  Elec       q    Type
REMARK                         _______ _______ _______ _____ _____    ______ ____
ROOT
ATOM      1  C   UNL     1       5.685   4.433  16.685  0.00  0.00    +0.000 C 
ENDROOT
BRANCH   1   2
ATOM      2  N   UNL     1       5.786   3.093  16.104  0.00  0.00    +0.000 NA
ATOM      3  H   UNL     1       5.007   2.929  15.424  0.00  0.00    +0.000 HD
ATOM      4  H   UNL     1       5.740   2.369  16.856  0.00  0.00    +0.000 HD
ENDBRANCH   1   2
BRANCH   1   5
ATOM      5  C   UNL     1       6.817   5.267  16.133  0.00  0.00    +0.000 C 
ATOM      6  O   UNL     1       7.788   4.720  15.628  0.00  0.00    +0.000 OA
BRANCH   5   7
ATOM      7  O   UNL     1       6.780   6.619  16.283  0.00  0.00    +0.000 OA
BRANCH   7   8
ATOM      8  C   UNL     1       6.794   7.276  17.501  0.00  0.00    +0.000 C 
BRANCH   8   9
ATOM      9  C   UNL     1       8.084   6.995  18.282  0.00  0.00    +0.000 C 
BRANCH   9  10
ATOM     10  O   UNL     1       8.597   8.175  18.849  0.00  0.00    +0.000 OA
ATOM     11  H   UNL     1       9.577   8.185  18.690  0.00  0.00    +0.000 HD
ENDBRANCH   9  10
BRANCH   9  12
ATOM     12  C   UNL     1       7.829   5.931  19.366  0.00  0.00    +0.000 C 
BRANCH  12  13
ATOM     13  O   UNL     1       8.187   4.657  18.906  0.00  0.00    +0.000 OA
ATOM     14  H   UNL     1       9.115   4.493  19.221  0.00  0.00    +0.000 HD
ENDBRANCH  12  13
ENDBRANCH   9  12
ENDBRANCH   8   9
ENDBRANCH   7   8
ENDBRANCH   5   7
ENDBRANCH   1   5
BRANCH   1  15
ATOM     15  C   UNL     1       4.282   5.035  16.409  0.00  0.00    +0.000 C 
BRANCH  15  19
ATOM     16  C   UNL     1       1.982   7.292  20.327  0.00  0.00    +0.000 C 
ATOM     17  N   UNL     1       2.414   6.272  19.376  0.00  0.00    +0.000 N 
ATOM     18  C   UNL     1       3.287   6.459  18.361  0.00  0.00    +0.000 A 
ATOM     19  C   UNL     1       3.437   5.276  17.637  0.00  0.00    +0.000 A 
ATOM     20  C   UNL     1       2.630   4.343  18.275  0.00  0.00    +0.000 A 
ATOM     21  C   UNL     1       2.385   2.994  18.005  0.00  0.00    +0.000 A 
ATOM     22  C   UNL     1       1.488   2.306  18.846  0.00  0.00    +0.000 A 
ATOM     23  C   UNL     1       0.860   2.973  19.920  0.00  0.00    +0.000 A 
ATOM     24  C   UNL     1       1.126   4.330  20.169  0.00  0.00    +0.000 A 
ATOM     25  C   UNL     1       2.021   4.987  19.325  0.00  0.00    +0.000 A 
ENDBRANCH  15  19
ENDBRANCH   1  15
TORSDOF 10
ENDMDL
MODEL 8
REMARK VINA RESULT:      -6.3      2.578      4.514
REMARK  Name = 
REMARK  11 active torsions:
REMARK  status: ('A' for Active; 'I' for Inactive)
REMARK    1  A    between atoms: C_1  and  N_2
REMARK    2  A    between atoms: C_4  and  C_5
REMARK    3  A    between atoms: C_5  and  C_6
REMARK    4  A    between atoms: C_6  and  N_7
REMARK    5  A    between atoms: C_6  and  C_8
REMARK    6  A    between atoms: C_8  and  O_10
REMARK    7  A    between atoms: O_10  and  C_11
REMARK    8  A    between atoms: C_11  and  C_12
REMARK    9  A    between atoms: C_12  and  O_13
REMARK   10  A    between atoms: C_12  and  C_14
REMARK   11  A    between atoms: C_14  and  O_15
REMARK                            x       y       z     vdW  Elec       q    Type
REMARK                         _______ _______ _______ _____ _____    ______ ____
ROOT
ATOM      1  C   UNL     1       6.381   6.226  16.684  0.00  0.00    +0.000 C 
ENDROOT
BRANCH   1   2
ATOM      2  N   UNL     1       6.764   6.172  18.096  0.00  0.00    +0.000 NA
ATOM      3  H   UNL     1       6.042   5.656  18.651  0.00  0.00    +0.000 HD
ATOM      4  H   UNL     1       6.863   7.139  18.480  0.00  0.00    +0.000 HD
ENDBRANCH   1   2
BRANCH   1   5
ATOM      5  C   UNL     1       7.091   5.104  15.964  0.00  0.00    +0.000 C 
ATOM      6  O   UNL     1       7.892   4.402  16.569  0.00  0.00    +0.000 OA
BRANCH   5   7
ATOM      7  O   UNL     1       6.893   4.940  14.628  0.00  0.00    +0.000 OA
BRANCH   7   8
ATOM      8  C   UNL     1       6.277   3.843  14.053  0.00  0.00    +0.000 C 
BRANCH   8   9
ATOM      9  C   UNL     1       6.171   3.987  12.529  0.00  0.00    +0.000 C 
BRANCH   9  10
ATOM     10  O   UNL     1       7.426   4.265  11.960  0.00  0.00    +0.000 OA
ATOM     11  H   UNL     1       7.928   3.410  11.905  0.00  0.00    +0.000 HD
ENDBRANCH   9  10
BRANCH   9  12
ATOM     12  C   UNL     1       5.560   2.713  11.915  0.00  0.00    +0.000 C 
BRANCH  12  13
ATOM     13  O   UNL     1       4.287   2.975  11.391  0.00  0.00    +0.000 OA
ATOM     14  H   UNL     1       3.815   3.536  12.061  0.00  0.00    +0.000 HD
ENDBRANCH  12  13
ENDBRANCH   9  12
ENDBRANCH   8   9
ENDBRANCH   7   8
ENDBRANCH   5   7
ENDBRANCH   1   5
BRANCH   1  15
ATOM     15  C   UNL     1       4.838   6.173  16.542  0.00  0.00    +0.000 C 
BRANCH  15  19
ATOM     16  C   UNL     1       3.390   1.633  18.284  0.00  0.00    +0.000 C 
ATOM     17  N   UNL     1       3.515   3.079  18.125  0.00  0.00    +0.000 N 
ATOM     18  C   UNL     1       4.244   3.708  17.176  0.00  0.00    +0.000 A 
ATOM     19  C   UNL     1       4.160   5.090  17.348  0.00  0.00    +0.000 A 
ATOM     20  C   UNL     1       3.321   5.280  18.438  0.00  0.00    +0.000 A 
ATOM     21  C   UNL     1       2.868   6.444  19.064  0.00  0.00    +0.000 A 
ATOM     22  C   UNL     1       2.016   6.305  20.178  0.00  0.00    +0.000 A 
ATOM     23  C   UNL     1       1.644   5.023  20.638  0.00  0.00    +0.000 A 
ATOM     24  C   UNL     1       2.114   3.870  19.988  0.00  0.00    +0.000 A 
ATOM     25  C   UNL     1       2.952   4.034  18.885  0.00  0.00    +0.000 A 
ENDBRANCH  15  19
ENDBRANCH   1  15
TORSDOF 10
ENDMDL
MODEL 9
REMARK VINA RESULT:      -6.3      0.765      1.331
REMARK  Name = 
REMARK  11 active torsions:
REMARK  status: ('A' for Active; 'I' for Inactive)
REMARK    1  A    between atoms: C_1  and  N_2
REMARK    2  A    between atoms: C_4  and  C_5
REMARK    3  A    between atoms: C_5  and  C_6
REMARK    4  A    between atoms: C_6  and  N_7
REMARK    5  A    between atoms: C_6  and  C_8
REMARK    6  A    between atoms: C_8  and  O_10
REMARK    7  A    between atoms: O_10  and  C_11
REMARK    8  A    between atoms: C_11  and  C_12
REMARK    9  A    between atoms: C_12  and  O_13
REMARK   10  A    between atoms: C_12  and  C_14
REMARK   11  A    between atoms: C_14  and  O_15
REMARK                            x       y       z     vdW  Elec       q    Type
REMARK                         _______ _______ _______ _____ _____    ______ ____
ROOT
ATOM      1  C   UNL     1       5.454   4.253  16.356  0.00  0.00    +0.000 C 
ENDROOT
BRANCH   1   2
ATOM      2  N   UNL     1       6.034   3.223  15.491  0.00  0.00    +0.000 NA
ATOM      3  H   UNL     1       5.354   2.440  15.348  0.00  0.00    +0.000 HD
ATOM      4  H   UNL     1       6.908   2.843  15.920  0.00  0.00    +0.000 HD
ENDBRANCH   1   2
BRANCH   1   5
ATOM      5  C   UNL     1       5.929   5.599  15.861  0.00  0.00    +0.000 C 
ATOM      6  O   UNL     1       5.368   6.134  14.915  0.00  0.00    +0.000 OA
BRANCH   5   7
ATOM      7  O   UNL     1       7.033   6.161  16.424  0.00  0.00    +0.000 OA
BRANCH   7   8
ATOM      8  C   UNL     1       7.141   6.518  17.757  0.00  0.00    +0.000 C 
BRANCH   8   9
ATOM      9  C   UNL     1       7.533   5.322  18.635  0.00  0.00    +0.000 C 
BRANCH   9  10
ATOM     10  O   UNL     1       8.141   4.312  17.868  0.00  0.00    +0.000 OA
ATOM     11  H   UNL     1       7.491   4.027  17.174  0.00  0.00    +0.000 HD
ENDBRANCH   9  10
BRANCH   9  12
ATOM     12  C   UNL     1       8.461   5.779  19.775  0.00  0.00    +0.000 C 
BRANCH  12  13
ATOM     13  O   UNL     1       8.046   5.239  21.000  0.00  0.00    +0.000 OA
ATOM     14  H   UNL     1       7.080   5.451  21.090  0.00  0.00    +0.000 HD
ENDBRANCH  12  13
ENDBRANCH   9  12
ENDBRANCH   8   9
ENDBRANCH   7   8
ENDBRANCH   5   7
ENDBRANCH   1   5
BRANCH   1  15
ATOM     15  C   UNL     1       3.909   4.117  16.391  0.00  0.00    +0.000 C 
BRANCH  15  19
ATOM     16  C   UNL     1       2.146   7.401  19.833  0.00  0.00    +0.000 C 
ATOM     17  N   UNL     1       2.460   6.152  19.145  0.00  0.00    +0.000 N 
ATOM     18  C   UNL     1       3.173   6.038  18.002  0.00  0.00    +0.000 A 
ATOM     19  C   UNL     1       3.245   4.700  17.615  0.00  0.00    +0.000 A 
ATOM     20  C   UNL     1       2.559   3.992  18.594  0.00  0.00    +0.000 A 
ATOM     21  C   UNL     1       2.309   2.625  18.741  0.00  0.00    +0.000 A 
ATOM     22  C   UNL     1       1.557   2.209  19.858  0.00  0.00    +0.000 A 
ATOM     23  C   UNL     1       1.076   3.155  20.789  0.00  0.00    +0.000 A 
ATOM     24  C   UNL     1       1.344   4.524  20.616  0.00  0.00    +0.000 A 
ATOM     25  C   UNL     1       2.093   4.909  19.504  0.00  0.00    +0.000 A 
ENDBRANCH  15  19
ENDBRANCH   1  15
TORSDOF 10
ENDMDL
