MODEL 1
REMARK VINA RESULT:      -8.6      0.000      0.000
REMARK  Name = 
REMARK  4 active torsions:
REMARK  status: ('A' for Active; 'I' for Inactive)
REMARK    1  A    between atoms: C_2  and  C_3
REMARK    2  A    between atoms: C_3  and  C_4
REMARK    3  A    between atoms: N_14  and  C_15
REMARK    4  A    between atoms: C_17  and  C_18
REMARK                            x       y       z     vdW  Elec       q    Type
REMARK                         _______ _______ _______ _____ _____    ______ ____
ROOT
ATOM      1  O   UNL     1       6.408   5.410  19.828  0.00  0.00    +0.000 OA
ATOM      2  C   UNL     1       6.094   5.363  18.632  0.00  0.00    +0.000 C 
ATOM      3  N   UNL     1       6.963   4.740  17.781  0.00  0.00    +0.000 N 
ATOM      4  H   UNL     1       7.773   4.334  18.231  0.00  0.00    +0.000 HD
ENDROOT
BRANCH   3   5
ATOM      5  C   UNL     1       6.851   4.616  16.422  0.00  0.00    +0.000 A 
ATOM      6  C   UNL     1       6.144   3.726  15.653  0.00  0.00    +0.000 A 
ATOM      7  C   UNL     1       6.439   4.097  14.310  0.00  0.00    +0.000 A 
ATOM      8  N   UNL     1       7.299   5.128  14.294  0.00  0.00    +0.000 NA
ATOM      9  O   UNL     1       7.533   5.448  15.604  0.00  0.00    +0.000 OA
BRANCH   7  10
ATOM     10  C   UNL     1       5.925   3.516  13.074  0.00  0.00    +0.000 A 
ATOM     11  C   UNL     1       6.711   2.650  12.314  0.00  0.00    +0.000 A 
ATOM     12  C   UNL     1       6.203   2.154  11.120  0.00  0.00    +0.000 A 
ATOM     13  C   UNL     1       4.928   2.535  10.719  0.00  0.00    +0.000 A 
ATOM     14  C   UNL     1       4.208   3.389  11.539  0.00  0.00    +0.000 A 
ATOM     15  N   UNL     1       4.671   3.886  12.707  0.00  0.00    +0.000 NA
ENDBRANCH   7  10
ENDBRANCH   3   5
BRANCH   2  16
ATOM     16  C   UNL     1       4.767   5.959  18.165  0.00  0.00    +0.000 C 
BRANCH  16  17
ATOM     17  C   UNL     1       3.555   5.511  18.974  0.00  0.00    +0.000 A 
ATOM     18  C   UNL     1       2.952   6.455  19.830  0.00  0.00    +0.000 A 
ATOM     19  C   UNL     1       1.822   6.136  20.574  0.00  0.00    +0.000 A 
ATOM     20  C   UNL     1       1.259   4.871  20.468  0.00  0.00    +0.000 A 
ATOM     21  C   UNL     1       1.809   3.909  19.613  0.00  0.00    +0.000 A 
ATOM     22  C   UNL     1       1.203   2.645  19.522  0.00  0.00    +0.000 A 
ATOM     23  C   UNL     1       1.710   1.661  18.679  0.00  0.00    +0.000 A 
ATOM     24  C   UNL     1       2.833   1.935  17.913  0.00  0.00    +0.000 A 
ATOM     25  C   UNL     1       3.448   3.189  17.990  0.00  0.00    +0.000 A 
ATOM     26  C   UNL     1       2.965   4.215  18.843  0.00  0.00    +0.000 A 
ENDBRANCH  16  17
ENDBRANCH   2  16
TORSDOF 4
ENDMDL
MODEL 2
REMARK VINA RESULT:      -8.4      1.264      1.803
REMARK  Name = 
REMARK  4 active torsions:
REMARK  status: ('A' for Active; 'I' for Inactive)
REMARK    1  A    between atoms: C_2  and  C_3
REMARK    2  A    between atoms: C_3  and  C_4
REMARK    3  A    between atoms: N_14  and  C_15
REMARK    4  A    between atoms: C_17  and  C_18
REMARK                            x       y       z     vdW  Elec       q    Type
REMARK                         _______ _______ _______ _____ _____    ______ ____
ROOT
ATOM      1  O   UNL     1       7.279   5.221  19.340  0.00  0.00    +0.000 OA
ATOM      2  C   UNL     1       6.845   4.861  18.238  0.00  0.00    +0.000 C 
ATOM      3  N   UNL     1       7.590   5.180  17.137  0.00  0.00    +0.000 N 
ATOM      4  H   UNL     1       8.462   5.651  17.343  0.00  0.00    +0.000 HD
ENDROOT
BRANCH   3   5
ATOM      5  C   UNL     1       7.284   4.933  15.826  0.00  0.00    +0.000 A 
ATOM      6  C   UNL     1       6.486   3.977  15.251  0.00  0.00    +0.000 A 
ATOM      7  C   UNL     1       6.578   4.225  13.851  0.00  0.00    +0.000 A 
ATOM      8  N   UNL     1       7.414   5.249  13.618  0.00  0.00    +0.000 NA
ATOM      9  O   UNL     1       7.830   5.687  14.846  0.00  0.00    +0.000 OA
BRANCH   7  10
ATOM     10  C   UNL     1       5.898   3.534  12.760  0.00  0.00    +0.000 A 
ATOM     11  C   UNL     1       4.630   3.941  12.342  0.00  0.00    +0.000 A 
ATOM     12  C   UNL     1       3.996   3.228  11.332  0.00  0.00    +0.000 A 
ATOM     13  C   UNL     1       4.643   2.135  10.768  0.00  0.00    +0.000 A 
ATOM     14  C   UNL     1       5.907   1.806  11.233  0.00  0.00    +0.000 A 
ATOM     15  N   UNL     1       6.552   2.479  12.210  0.00  0.00    +0.000 NA
ENDBRANCH   7  10
ENDBRANCH   3   5
BRANCH   2  16
ATOM     16  C   UNL     1       5.543   4.067  18.150  0.00  0.00    +0.000 C 
BRANCH  16  17
ATOM     17  C   UNL     1       4.303   4.840  18.582  0.00  0.00    +0.000 A 
ATOM     18  C   UNL     1       4.090   6.111  18.013  0.00  0.00    +0.000 A 
ATOM     19  C   UNL     1       2.965   6.863  18.329  0.00  0.00    +0.000 A 
ATOM     20  C   UNL     1       2.017   6.355  19.207  0.00  0.00    +0.000 A 
ATOM     21  C   UNL     1       2.173   5.087  19.777  0.00  0.00    +0.000 A 
ATOM     22  C   UNL     1       1.186   4.600  20.651  0.00  0.00    +0.000 A 
ATOM     23  C   UNL     1       1.296   3.342  21.234  0.00  0.00    +0.000 A 
ATOM     24  C   UNL     1       2.399   2.553  20.945  0.00  0.00    +0.000 A 
ATOM     25  C   UNL     1       3.390   3.020  20.077  0.00  0.00    +0.000 A 
ATOM     26  C   UNL     1       3.318   4.301  19.469  0.00  0.00    +0.000 A 
ENDBRANCH  16  17
ENDBRANCH   2  16
TORSDOF 4
ENDMDL
MODEL 3
REMARK VINA RESULT:      -7.9      1.280      2.524
REMARK  Name = 
REMARK  4 active torsions:
REMARK  status: ('A' for Active; 'I' for Inactive)
REMARK    1  A    between atoms: C_2  and  C_3
REMARK    2  A    between atoms: C_3  and  C_4
REMARK    3  A    between atoms: N_14  and  C_15
REMARK    4  A    between atoms: C_17  and  C_18
REMARK                            x       y       z     vdW  Elec       q    Type
REMARK                         _______ _______ _______ _____ _____    ______ ____
ROOT
ATOM      1  O   UNL     1       6.476   4.886  19.546  0.00  0.00    +0.000 OA
ATOM      2  C   UNL     1       6.166   4.588  18.386  0.00  0.00    +0.000 C 
ATOM      3  N   UNL     1       7.058   4.900  17.398  0.00  0.00    +0.000 N 
ATOM      4  H   UNL     1       7.921   5.312  17.729  0.00  0.00    +0.000 HD
ENDROOT
BRANCH   3   5
ATOM      5  C   UNL     1       6.906   4.715  16.050  0.00  0.00    +0.000 A 
ATOM      6  C   UNL     1       6.197   3.777  15.343  0.00  0.00    +0.000 A 
ATOM      7  C   UNL     1       6.440   4.098  13.977  0.00  0.00    +0.000 A 
ATOM      8  N   UNL     1       7.274   5.146  13.890  0.00  0.00    +0.000 NA
ATOM      9  O   UNL     1       7.542   5.527  15.176  0.00  0.00    +0.000 OA
BRANCH   7  10
ATOM     10  C   UNL     1       5.901   3.453  12.783  0.00  0.00    +0.000 A 
ATOM     11  C   UNL     1       4.627   3.775  12.316  0.00  0.00    +0.000 A 
ATOM     12  C   UNL     1       4.131   3.106  11.203  0.00  0.00    +0.000 A 
ATOM     13  C   UNL     1       4.918   2.138  10.592  0.00  0.00    +0.000 A 
ATOM     14  C   UNL     1       6.178   1.887  11.113  0.00  0.00    +0.000 A 
ATOM     15  N   UNL     1       6.690   2.522  12.189  0.00  0.00    +0.000 NA
ENDBRANCH   7  10
ENDBRANCH   3   5
BRANCH   2  16
ATOM     16  C   UNL     1       4.844   3.874  18.106  0.00  0.00    +0.000 C 
BRANCH  16  17
ATOM     17  C   UNL     1       3.825   3.968  19.236  0.00  0.00    +0.000 A 
ATOM     18  C   UNL     1       3.670   2.847  20.075  0.00  0.00    +0.000 A 
ATOM     19  C   UNL     1       2.787   2.867  21.149  0.00  0.00    +0.000 A 
ATOM     20  C   UNL     1       2.053   4.014  21.419  0.00  0.00    +0.000 A 
ATOM     21  C   UNL     1       2.192   5.159  20.628  0.00  0.00    +0.000 A 
ATOM     22  C   UNL     1       1.442   6.305  20.941  0.00  0.00    +0.000 A 
ATOM     23  C   UNL     1       1.555   7.469  20.188  0.00  0.00    +0.000 A 
ATOM     24  C   UNL     1       2.426   7.499  19.110  0.00  0.00    +0.000 A 
ATOM     25  C   UNL     1       3.182   6.368  18.785  0.00  0.00    +0.000 A 
ATOM     26  C   UNL     1       3.088   5.160  19.524  0.00  0.00    +0.000 A 
ENDBRANCH  16  17
ENDBRANCH   2  16
TORSDOF 4
ENDMDL
MODEL 4
REMARK VINA RESULT:      -7.9      1.954      2.797
REMARK  Name = 
REMARK  4 active torsions:
REMARK  status: ('A' for Active; 'I' for Inactive)
REMARK    1  A    between atoms: C_2  and  C_3
REMARK    2  A    between atoms: C_3  and  C_4
REMARK    3  A    between atoms: N_14  and  C_15
REMARK    4  A    between atoms: C_17  and  C_18
REMARK                            x       y       z     vdW  Elec       q    Type
REMARK                         _______ _______ _______ _____ _____    ______ ____
ROOT
ATOM      1  O   UNL     1       2.159   8.533  19.020  0.00  0.00    +0.000 OA
ATOM      2  C   UNL     1       2.657   7.589  18.393  0.00  0.00    +0.000 C 
ATOM      3  N   UNL     1       3.946   7.734  17.962  0.00  0.00    +0.000 N 
ATOM      4  H   UNL     1       4.387   8.600  18.242  0.00  0.00    +0.000 HD
ENDROOT
BRANCH   3   5
ATOM      5  C   UNL     1       4.676   6.851  17.212  0.00  0.00    +0.000 A 
ATOM      6  C   UNL     1       4.769   6.684  15.853  0.00  0.00    +0.000 A 
ATOM      7  C   UNL     1       5.676   5.599  15.686  0.00  0.00    +0.000 A 
ATOM      8  N   UNL     1       6.066   5.134  16.883  0.00  0.00    +0.000 NA
ATOM      9  O   UNL     1       5.453   5.925  17.816  0.00  0.00    +0.000 OA
BRANCH   7  10
ATOM     10  C   UNL     1       6.177   5.018  14.444  0.00  0.00    +0.000 A 
ATOM     11  C   UNL     1       5.454   4.025  13.782  0.00  0.00    +0.000 A 
ATOM     12  C   UNL     1       5.986   3.464  12.627  0.00  0.00    +0.000 A 
ATOM     13  C   UNL     1       7.219   3.908  12.168  0.00  0.00    +0.000 A 
ATOM     14  C   UNL     1       7.866   4.908  12.878  0.00  0.00    +0.000 A 
ATOM     15  N   UNL     1       7.375   5.476  14.001  0.00  0.00    +0.000 NA
ENDBRANCH   7  10
ENDBRANCH   3   5
BRANCH   2  16
ATOM     16  C   UNL     1       1.846   6.316  18.155  0.00  0.00    +0.000 C 
BRANCH  16  17
ATOM     17  C   UNL     1       2.149   5.185  19.131  0.00  0.00    +0.000 A 
ATOM     18  C   UNL     1       1.847   5.392  20.491  0.00  0.00    +0.000 A 
ATOM     19  C   UNL     1       2.061   4.396  21.437  0.00  0.00    +0.000 A 
ATOM     20  C   UNL     1       2.564   3.164  21.042  0.00  0.00    +0.000 A 
ATOM     21  C   UNL     1       2.855   2.904  19.699  0.00  0.00    +0.000 A 
ATOM     22  C   UNL     1       3.351   1.640  19.336  0.00  0.00    +0.000 A 
ATOM     23  C   UNL     1       3.645   1.335  18.011  0.00  0.00    +0.000 A 
ATOM     24  C   UNL     1       3.444   2.295  17.031  0.00  0.00    +0.000 A 
ATOM     25  C   UNL     1       2.950   3.557  17.374  0.00  0.00    +0.000 A 
ATOM     26  C   UNL     1       2.645   3.909  18.715  0.00  0.00    +0.000 A 
ENDBRANCH  16  17
ENDBRANCH   2  16
TORSDOF 4
ENDMDL
MODEL 5
REMARK VINA RESULT:      -7.8      2.757      4.826
REMARK  Name = 
REMARK  4 active torsions:
REMARK  status: ('A' for Active; 'I' for Inactive)
REMARK    1  A    between atoms: C_2  and  C_3
REMARK    2  A    between atoms: C_3  and  C_4
REMARK    3  A    between atoms: N_14  and  C_15
REMARK    4  A    between atoms: C_17  and  C_18
REMARK                            x       y       z     vdW  Elec       q    Type
REMARK                         _______ _______ _______ _____ _____    ______ ____
ROOT
ATOM      1  O   UNL     1       1.068   4.609  20.464  0.00  0.00    +0.000 OA
ATOM      2  C   UNL     1       2.098   4.890  19.839  0.00  0.00    +0.000 C 
ATOM      3  N   UNL     1       2.487   4.028  18.853  0.00  0.00    +0.000 N 
ATOM      4  H   UNL     1       1.856   3.252  18.701  0.00  0.00    +0.000 HD
ENDROOT
BRANCH   3   5
ATOM      5  C   UNL     1       3.611   4.107  18.075  0.00  0.00    +0.000 A 
ATOM      6  C   UNL     1       3.761   4.248  16.718  0.00  0.00    +0.000 A 
ATOM      7  C   UNL     1       5.170   4.253  16.510  0.00  0.00    +0.000 A 
ATOM      8  N   UNL     1       5.809   4.089  17.678  0.00  0.00    +0.000 NA
ATOM      9  O   UNL     1       4.836   4.016  18.638  0.00  0.00    +0.000 OA
BRANCH   7  10
ATOM     10  C   UNL     1       5.902   4.418  15.258  0.00  0.00    +0.000 A 
ATOM     11  C   UNL     1       5.562   3.667  14.132  0.00  0.00    +0.000 A 
ATOM     12  C   UNL     1       6.313   3.819  12.973  0.00  0.00    +0.000 A 
ATOM     13  C   UNL     1       7.376   4.714  12.969  0.00  0.00    +0.000 A 
ATOM     14  C   UNL     1       7.638   5.430  14.127  0.00  0.00    +0.000 A 
ATOM     15  N   UNL     1       6.926   5.308  15.268  0.00  0.00    +0.000 NA
ENDBRANCH   7  10
ENDBRANCH   3   5
BRANCH   2  16
ATOM     16  C   UNL     1       2.863   6.173  20.162  0.00  0.00    +0.000 C 
BRANCH  16  17
ATOM     17  C   UNL     1       2.264   7.434  19.551  0.00  0.00    +0.000 A 
ATOM     18  C   UNL     1       2.492   7.672  18.180  0.00  0.00    +0.000 A 
ATOM     19  C   UNL     1       1.950   8.781  17.541  0.00  0.00    +0.000 A 
ATOM     20  C   UNL     1       1.154   9.669  18.253  0.00  0.00    +0.000 A 
ATOM     21  C   UNL     1       0.880   9.461  19.609  0.00  0.00    +0.000 A 
ATOM     22  C   UNL     1       0.060  10.374  20.292  0.00  0.00    +0.000 A 
ATOM     23  C   UNL     1      -0.246  10.202  21.638  0.00  0.00    +0.000 A 
ATOM     24  C   UNL     1       0.267   9.107  22.317  0.00  0.00    +0.000 A 
ATOM     25  C   UNL     1       1.085   8.187  21.652  0.00  0.00    +0.000 A 
ATOM     26  C   UNL     1       1.425   8.333  20.282  0.00  0.00    +0.000 A 
ENDBRANCH  16  17
ENDBRANCH   2  16
TORSDOF 4
ENDMDL
MODEL 6
REMARK VINA RESULT:      -7.7      1.844      3.216
REMARK  Name = 
REMARK  4 active torsions:
REMARK  status: ('A' for Active; 'I' for Inactive)
REMARK    1  A    between atoms: C_2  and  C_3
REMARK    2  A    between atoms: C_3  and  C_4
REMARK    3  A    between atoms: N_14  and  C_15
REMARK    4  A    between atoms: C_17  and  C_18
REMARK                            x       y       z     vdW  Elec       q    Type
REMARK                         _______ _______ _______ _____ _____    ______ ____
ROOT
ATOM      1  O   UNL     1       2.385   7.714  19.368  0.00  0.00    +0.000 OA
ATOM      2  C   UNL     1       2.847   6.920  18.539  0.00  0.00    +0.000 C 
ATOM      3  N   UNL     1       4.200   6.931  18.347  0.00  0.00    +0.000 N 
ATOM      4  H   UNL     1       4.703   7.572  18.947  0.00  0.00    +0.000 HD
ENDROOT
BRANCH   3   5
ATOM      5  C   UNL     1       4.920   6.186  17.452  0.00  0.00    +0.000 A 
ATOM      6  C   UNL     1       5.014   6.261  16.085  0.00  0.00    +0.000 A 
ATOM      7  C   UNL     1       5.906   5.210  15.728  0.00  0.00    +0.000 A 
ATOM      8  N   UNL     1       6.286   4.535  16.823  0.00  0.00    +0.000 NA
ATOM      9  O   UNL     1       5.682   5.156  17.882  0.00  0.00    +0.000 OA
BRANCH   7  10
ATOM     10  C   UNL     1       6.402   4.852  14.402  0.00  0.00    +0.000 A 
ATOM     11  C   UNL     1       5.751   3.882  13.638  0.00  0.00    +0.000 A 
ATOM     12  C   UNL     1       6.280   3.536  12.401  0.00  0.00    +0.000 A 
ATOM     13  C   UNL     1       7.439   4.165  11.962  0.00  0.00    +0.000 A 
ATOM     14  C   UNL     1       8.015   5.127  12.777  0.00  0.00    +0.000 A 
ATOM     15  N   UNL     1       7.525   5.489  13.983  0.00  0.00    +0.000 NA
ENDBRANCH   7  10
ENDBRANCH   3   5
BRANCH   2  16
ATOM     16  C   UNL     1       1.918   5.958  17.800  0.00  0.00    +0.000 C 
BRANCH  16  17
ATOM     17  C   UNL     1       2.209   4.483  18.051  0.00  0.00    +0.000 A 
ATOM     18  C   UNL     1       2.548   3.682  16.942  0.00  0.00    +0.000 A 
ATOM     19  C   UNL     1       2.862   2.337  17.093  0.00  0.00    +0.000 A 
ATOM     20  C   UNL     1       2.861   1.764  18.358  0.00  0.00    +0.000 A 
ATOM     21  C   UNL     1       2.554   2.526  19.491  0.00  0.00    +0.000 A 
ATOM     22  C   UNL     1       2.576   1.914  20.757  0.00  0.00    +0.000 A 
ATOM     23  C   UNL     1       2.287   2.634  21.911  0.00  0.00    +0.000 A 
ATOM     24  C   UNL     1       1.973   3.981  21.811  0.00  0.00    +0.000 A 
ATOM     25  C   UNL     1       1.948   4.606  20.560  0.00  0.00    +0.000 A 
ATOM     26  C   UNL     1       2.229   3.903  19.359  0.00  0.00    +0.000 A 
ENDBRANCH  16  17
ENDBRANCH   2  16
TORSDOF 4
ENDMDL
MODEL 7
REMARK VINA RESULT:      -7.7      3.635      7.309
REMARK  Name = 
REMARK  4 active torsions:
REMARK  status: ('A' for Active; 'I' for Inactive)
REMARK    1  A    between atoms: C_2  and  C_3
REMARK    2  A    between atoms: C_3  and  C_4
REMARK    3  A    between atoms: N_14  and  C_15
REMARK    4  A    between atoms: C_17  and  C_18
REMARK                            x       y       z     vdW  Elec       q    Type
REMARK                         _______ _______ _______ _____ _____    ______ ____
ROOT
ATOM      1  O   UNL     1       3.172   1.322  18.647  0.00  0.00    +0.000 OA
ATOM      2  C   UNL     1       3.289   2.513  18.964  0.00  0.00    +0.000 C 
ATOM      3  N   UNL     1       2.140   3.220  19.180  0.00  0.00    +0.000 N 
ATOM      4  H   UNL     1       1.291   2.675  19.100  0.00  0.00    +0.000 HD
ENDROOT
BRANCH   3   5
ATOM      5  C   UNL     1       2.026   4.550  19.485  0.00  0.00    +0.000 A 
ATOM      6  C   UNL     1       1.935   5.656  18.677  0.00  0.00    +0.000 A 
ATOM      7  C   UNL     1       1.853   6.755  19.580  0.00  0.00    +0.000 A 
ATOM      8  N   UNL     1       1.928   6.318  20.846  0.00  0.00    +0.000 NA
ATOM      9  O   UNL     1       2.019   4.955  20.774  0.00  0.00    +0.000 OA
BRANCH   7  10
ATOM     10  C   UNL     1       1.698   8.173  19.271  0.00  0.00    +0.000 A 
ATOM     11  C   UNL     1       2.175   8.694  18.068  0.00  0.00    +0.000 A 
ATOM     12  C   UNL     1       2.050  10.058  17.831  0.00  0.00    +0.000 A 
ATOM     13  C   UNL     1       1.454  10.859  18.798  0.00  0.00    +0.000 A 
ATOM     14  C   UNL     1       0.996  10.259  19.960  0.00  0.00    +0.000 A 
ATOM     15  N   UNL     1       1.099   8.937  20.219  0.00  0.00    +0.000 NA
ENDBRANCH   7  10
ENDBRANCH   3   5
BRANCH   2  16
ATOM     16  C   UNL     1       4.678   3.128  19.127  0.00  0.00    +0.000 C 
BRANCH  16  17
ATOM     17  C   UNL     1       5.122   4.003  17.960  0.00  0.00    +0.000 A 
ATOM     18  C   UNL     1       4.474   3.823  16.722  0.00  0.00    +0.000 A 
ATOM     19  C   UNL     1       4.796   4.606  15.620  0.00  0.00    +0.000 A 
ATOM     20  C   UNL     1       5.761   5.598  15.734  0.00  0.00    +0.000 A 
ATOM     21  C   UNL     1       6.413   5.830  16.950  0.00  0.00    +0.000 A 
ATOM     22  C   UNL     1       7.374   6.852  17.031  0.00  0.00    +0.000 A 
ATOM     23  C   UNL     1       8.040   7.123  18.222  0.00  0.00    +0.000 A 
ATOM     24  C   UNL     1       7.749   6.371  19.350  0.00  0.00    +0.000 A 
ATOM     25  C   UNL     1       6.794   5.351  19.288  0.00  0.00    +0.000 A 
ATOM     26  C   UNL     1       6.099   5.040  18.090  0.00  0.00    +0.000 A 
ENDBRANCH  16  17
ENDBRANCH   2  16
TORSDOF 4
ENDMDL
MODEL 8
REMARK VINA RESULT:      -7.5      6.199      8.701
REMARK  Name = 
REMARK  4 active torsions:
REMARK  status: ('A' for Active; 'I' for Inactive)
REMARK    1  A    between atoms: C_2  and  C_3
REMARK    2  A    between atoms: C_3  and  C_4
REMARK    3  A    between atoms: N_14  and  C_15
REMARK    4  A    between atoms: C_17  and  C_18
REMARK                            x       y       z     vdW  Elec       q    Type
REMARK                         _______ _______ _______ _____ _____    ______ ____
ROOT
ATOM      1  O   UNL     1       2.197   9.327  22.648  0.00  0.00    +0.000 OA
ATOM      2  C   UNL     1       1.282   9.342  21.815  0.00  0.00    +0.000 C 
ATOM      3  N   UNL     1       0.778  10.561  21.459  0.00  0.00    +0.000 N 
ATOM      4  H   UNL     1       1.244  11.349  21.891  0.00  0.00    +0.000 HD
ENDROOT
BRANCH   3   5
ATOM      5  C   UNL     1      -0.261  10.815  20.605  0.00  0.00    +0.000 A 
ATOM      6  C   UNL     1      -0.525  10.348  19.342  0.00  0.00    +0.000 A 
ATOM      7  C   UNL     1      -1.744  10.984  18.971  0.00  0.00    +0.000 A 
ATOM      8  N   UNL     1      -2.153  11.805  19.950  0.00  0.00    +0.000 NA
ATOM      9  O   UNL     1      -1.238  11.680  20.959  0.00  0.00    +0.000 OA
BRANCH   7  10
ATOM     10  C   UNL     1      -2.514  10.823  17.741  0.00  0.00    +0.000 A 
ATOM     11  C   UNL     1      -2.075   9.961  16.736  0.00  0.00    +0.000 A 
ATOM     12  C   UNL     1      -2.811   9.870  15.560  0.00  0.00    +0.000 A 
ATOM     13  C   UNL     1      -3.960  10.638  15.423  0.00  0.00    +0.000 A 
ATOM     14  C   UNL     1      -4.333  11.460  16.475  0.00  0.00    +0.000 A 
ATOM     15  N   UNL     1      -3.642  11.569  17.631  0.00  0.00    +0.000 NA
ENDBRANCH   7  10
ENDBRANCH   3   5
BRANCH   2  16
ATOM     16  C   UNL     1       0.781   8.034  21.206  0.00  0.00    +0.000 C 
BRANCH  16  17
ATOM     17  C   UNL     1       1.649   7.491  20.076  0.00  0.00    +0.000 A 
ATOM     18  C   UNL     1       2.044   8.388  19.064  0.00  0.00    +0.000 A 
ATOM     19  C   UNL     1       2.865   7.979  18.019  0.00  0.00    +0.000 A 
ATOM     20  C   UNL     1       3.323   6.669  17.971  0.00  0.00    +0.000 A 
ATOM     21  C   UNL     1       2.977   5.750  18.967  0.00  0.00    +0.000 A 
ATOM     22  C   UNL     1       3.471   4.437  18.892  0.00  0.00    +0.000 A 
ATOM     23  C   UNL     1       3.160   3.493  19.864  0.00  0.00    +0.000 A 
ATOM     24  C   UNL     1       2.348   3.855  20.929  0.00  0.00    +0.000 A 
ATOM     25  C   UNL     1       1.849   5.158  21.021  0.00  0.00    +0.000 A 
ATOM     26  C   UNL     1       2.138   6.147  20.044  0.00  0.00    +0.000 A 
ENDBRANCH  16  17
ENDBRANCH   2  16
TORSDOF 4
ENDMDL
MODEL 9
REMARK VINA RESULT:      -7.4      4.648      6.785
REMARK  Name = 
REMARK  4 active torsions:
REMARK  status: ('A' for Active; 'I' for Inactive)
REMARK    1  A    between atoms: C_2  and  C_3
REMARK    2  A    between atoms: C_3  and  C_4
REMARK    3  A    between atoms: N_14  and  C_15
REMARK    4  A    between atoms: C_17  and  C_18
REMARK                            x       y       z     vdW  Elec       q    Type
REMARK                         _______ _______ _______ _____ _____    ______ ____
ROOT
ATOM      1  O   UNL     1       7.240   4.515  18.857  0.00  0.00    +0.000 OA
ATOM      2  C   UNL     1       7.240   5.634  18.330  0.00  0.00    +0.000 C 
ATOM      3  N   UNL     1       8.103   6.566  18.836  0.00  0.00    +0.000 N 
ATOM      4  H   UNL     1       8.699   6.224  19.579  0.00  0.00    +0.000 HD
ENDROOT
BRANCH   3   5
ATOM      5  C   UNL     1       8.236   7.873  18.451  0.00  0.00    +0.000 A 
ATOM      6  C   UNL     1       8.934   8.912  19.012  0.00  0.00    +0.000 A 
ATOM      7  C   UNL     1       8.672  10.023  18.160  0.00  0.00    +0.000 A 
ATOM      8  N   UNL     1       7.838   9.661  17.173  0.00  0.00    +0.000 NA
ATOM      9  O   UNL     1       7.588   8.328  17.355  0.00  0.00    +0.000 OA
BRANCH   7  10
ATOM     10  C   UNL     1       9.195  11.383  18.256  0.00  0.00    +0.000 A 
ATOM     11  C   UNL     1      10.403  11.636  18.905  0.00  0.00    +0.000 A 
ATOM     12  C   UNL     1      10.844  12.949  19.016  0.00  0.00    +0.000 A 
ATOM     13  C   UNL     1      10.068  13.968  18.477  0.00  0.00    +0.000 A 
ATOM     14  C   UNL     1       8.886  13.629  17.837  0.00  0.00    +0.000 A 
ATOM     15  N   UNL     1       8.432  12.364  17.710  0.00  0.00    +0.000 NA
ENDBRANCH   7  10
ENDBRANCH   3   5
BRANCH   2  16
ATOM     16  C   UNL     1       6.320   5.922  17.144  0.00  0.00    +0.000 C 
BRANCH  16  17
ATOM     17  C   UNL     1       4.845   6.049  17.506  0.00  0.00    +0.000 A 
ATOM     18  C   UNL     1       4.318   7.346  17.665  0.00  0.00    +0.000 A 
ATOM     19  C   UNL     1       2.974   7.547  17.959  0.00  0.00    +0.000 A 
ATOM     20  C   UNL     1       2.123   6.457  18.085  0.00  0.00    +0.000 A 
ATOM     21  C   UNL     1       2.597   5.152  17.912  0.00  0.00    +0.000 A 
ATOM     22  C   UNL     1       1.703   4.075  18.034  0.00  0.00    +0.000 A 
ATOM     23  C   UNL     1       2.128   2.762  17.861  0.00  0.00    +0.000 A 
ATOM     24  C   UNL     1       3.458   2.512  17.561  0.00  0.00    +0.000 A 
ATOM     25  C   UNL     1       4.362   3.572  17.434  0.00  0.00    +0.000 A 
ATOM     26  C   UNL     1       3.968   4.924  17.611  0.00  0.00    +0.000 A 
ENDBRANCH  16  17
ENDBRANCH   2  16
TORSDOF 4
ENDMDL
