MODEL 1
REMARK VINA RESULT:      -8.6      0.000      0.000
REMARK  Name = 
REMARK  10 active torsions:
REMARK  status: ('A' for Active; 'I' for Inactive)
REMARK    1  A    between atoms: C_1  and  C_2
REMARK    2  A    between atoms: C_2  and  C_3
REMARK    3  A    between atoms: C_3  and  C_4
REMARK    4  A    between atoms: C_4  and  C_5
REMARK    5  A    between atoms: C_8  and  S_9
REMARK    6  A    between atoms: S_9  and  C_10
REMARK    7  A    between atoms: N_11  and  C_12
REMARK    8  A    between atoms: C_12  and  C_13
REMARK    9  A    between atoms: C_16  and  C_17
REMARK   10  A    between atoms: C_22  and  C_23
REMARK                            x       y       z     vdW  Elec       q    Type
REMARK                         _______ _______ _______ _____ _____    ______ ____
ROOT
ATOM      1  C   UNL     1       1.274   9.087  19.576  0.00  0.00    +0.000 A 
ATOM      2  C   UNL     1       1.590   9.225  18.219  0.00  0.00    +0.000 A 
ATOM      3  C   UNL     1       2.360   8.255  17.558  0.00  0.00    +0.000 A 
ATOM      4  C   UNL     1       2.810   7.097  18.211  0.00  0.00    +0.000 A 
ATOM      5  C   UNL     1       2.433   6.960  19.565  0.00  0.00    +0.000 A 
ATOM      6  C   UNL     1       1.698   7.937  20.243  0.00  0.00    +0.000 A 
ENDROOT
BRANCH   4   7
ATOM      7  C   UNL     1       3.741   6.112  17.576  0.00  0.00    +0.000 A 
ATOM      8  C   UNL     1       4.901   6.643  16.941  0.00  0.00    +0.000 A 
ATOM      9  C   UNL     1       5.836   5.851  16.266  0.00  0.00    +0.000 A 
ATOM     10  C   UNL     1       5.628   4.493  16.165  0.00  0.00    +0.000 A 
ATOM     11  C   UNL     1       4.507   3.928  16.769  0.00  0.00    +0.000 A 
ATOM     12  C   UNL     1       3.576   4.705  17.508  0.00  0.00    +0.000 A 
BRANCH  12  13
ATOM     13  C   UNL     1       2.530   3.945  18.199  0.00  0.00    +0.000 A 
ATOM     14  N   UNL     1       2.704   3.317  19.410  0.00  0.00    +0.000 NA
ATOM     15  N   UNL     1       1.586   2.642  19.663  0.00  0.00    +0.000 NA
ATOM     16  N   UNL     1       0.818   2.855  18.594  0.00  0.00    +0.000 N 
ATOM     17  N   UNL     1       1.318   3.671  17.662  0.00  0.00    +0.000 NA
ATOM     18  H   UNL     1      -0.087   2.403  18.487  0.00  0.00    +0.000 HD
ENDBRANCH  12  13
ENDBRANCH   4   7
BRANCH   1  19
ATOM     19  C   UNL     1       0.554  10.183  20.318  0.00  0.00    +0.000 C 
BRANCH  19  24
ATOM     20  C   UNL     1      -1.162  11.318  18.731  0.00  0.00    +0.000 A 
ATOM     21  N   UNL     1      -1.325  12.570  18.326  0.00  0.00    +0.000 NA
ATOM     22  N   UNL     1      -0.300  13.331  18.818  0.00  0.00    +0.000 NA
ATOM     23  C   UNL     1       0.455  12.549  19.547  0.00  0.00    +0.000 A 
ATOM     24  N   UNL     1      -0.058  11.264  19.554  0.00  0.00    +0.000 N 
BRANCH  23  25
ATOM     25  S   UNL     1       1.882  13.032  20.410  0.00  0.00    +0.000 S 
ATOM     26  C   UNL     1       2.862  13.798  19.098  0.00  0.00    +0.000 C 
ENDBRANCH  23  25
BRANCH  20  27
ATOM     27  C   UNL     1      -2.070  10.206  18.315  0.00  0.00    +0.000 C 
BRANCH  27  28
ATOM     28  C   UNL     1      -1.972   9.899  16.811  0.00  0.00    +0.000 C 
BRANCH  28  30
ATOM     29  C   UNL     1      -3.065  10.053  14.510  0.00  0.00    +0.000 C 
ATOM     30  C   UNL     1      -3.108  10.490  15.967  0.00  0.00    +0.000 C 
ENDBRANCH  28  30
ENDBRANCH  27  28
ENDBRANCH  20  27
ENDBRANCH  19  24
ENDBRANCH   1  19
TORSDOF 8
ENDMDL
MODEL 2
REMARK VINA RESULT:      -8.5      2.539      8.135
REMARK  Name = 
REMARK  10 active torsions:
REMARK  status: ('A' for Active; 'I' for Inactive)
REMARK    1  A    between atoms: C_1  and  C_2
REMARK    2  A    between atoms: C_2  and  C_3
REMARK    3  A    between atoms: C_3  and  C_4
REMARK    4  A    between atoms: C_4  and  C_5
REMARK    5  A    between atoms: C_8  and  S_9
REMARK    6  A    between atoms: S_9  and  C_10
REMARK    7  A    between atoms: N_11  and  C_12
REMARK    8  A    between atoms: C_12  and  C_13
REMARK    9  A    between atoms: C_16  and  C_17
REMARK   10  A    between atoms: C_22  and  C_23
REMARK                            x       y       z     vdW  Elec       q    Type
REMARK                         _______ _______ _______ _____ _____    ______ ____
ROOT
ATOM      1  C   UNL     1       2.808   7.004  19.318  0.00  0.00    +0.000 A 
ATOM      2  C   UNL     1       2.787   7.660  18.080  0.00  0.00    +0.000 A 
ATOM      3  C   UNL     1       1.883   8.707  17.837  0.00  0.00    +0.000 A 
ATOM      4  C   UNL     1       0.996   9.162  18.823  0.00  0.00    +0.000 A 
ATOM      5  C   UNL     1       1.075   8.517  20.077  0.00  0.00    +0.000 A 
ATOM      6  C   UNL     1       1.945   7.450  20.320  0.00  0.00    +0.000 A 
ENDROOT
BRANCH   4   7
ATOM      7  C   UNL     1      -0.068  10.181  18.556  0.00  0.00    +0.000 A 
ATOM      8  C   UNL     1      -1.269   9.710  17.951  0.00  0.00    +0.000 A 
ATOM      9  C   UNL     1      -2.331  10.550  17.600  0.00  0.00    +0.000 A 
ATOM     10  C   UNL     1      -2.218  11.908  17.805  0.00  0.00    +0.000 A 
ATOM     11  C   UNL     1      -1.062  12.416  18.393  0.00  0.00    +0.000 A 
ATOM     12  C   UNL     1       0.004  11.574  18.810  0.00  0.00    +0.000 A 
BRANCH  12  13
ATOM     13  C   UNL     1       1.086  12.244  19.537  0.00  0.00    +0.000 A 
ATOM     14  N   UNL     1       1.211  12.244  20.908  0.00  0.00    +0.000 NA
ATOM     15  N   UNL     1       2.235  13.039  21.205  0.00  0.00    +0.000 NA
ATOM     16  N   UNL     1       2.647  13.508  20.027  0.00  0.00    +0.000 N 
ATOM     17  N   UNL     1       2.009  13.041  18.950  0.00  0.00    +0.000 NA
ATOM     18  H   UNL     1       3.392  14.197  19.956  0.00  0.00    +0.000 HD
ENDBRANCH  12  13
ENDBRANCH   4   7
BRANCH   1  19
ATOM     19  C   UNL     1       3.689   5.804  19.542  0.00  0.00    +0.000 C 
BRANCH  19  24
ATOM     20  C   UNL     1       2.945   4.061  17.765  0.00  0.00    +0.000 A 
ATOM     21  N   UNL     1       3.604   3.387  16.833  0.00  0.00    +0.000 NA
ATOM     22  N   UNL     1       4.940   3.655  16.952  0.00  0.00    +0.000 NA
ATOM     23  C   UNL     1       5.081   4.516  17.928  0.00  0.00    +0.000 A 
ATOM     24  N   UNL     1       3.846   4.835  18.463  0.00  0.00    +0.000 N 
BRANCH  23  25
ATOM     25  S   UNL     1       6.583   5.196  18.473  0.00  0.00    +0.000 S 
ATOM     26  C   UNL     1       6.734   6.651  17.410  0.00  0.00    +0.000 C 
ENDBRANCH  23  25
BRANCH  20  27
ATOM     27  C   UNL     1       1.468   3.942  17.961  0.00  0.00    +0.000 C 
BRANCH  27  28
ATOM     28  C   UNL     1       1.102   2.955  19.082  0.00  0.00    +0.000 C 
BRANCH  28  30
ATOM     29  C   UNL     1       1.978   3.013  21.478  0.00  0.00    +0.000 C 
ATOM     30  C   UNL     1       0.989   3.588  20.474  0.00  0.00    +0.000 C 
ENDBRANCH  28  30
ENDBRANCH  27  28
ENDBRANCH  20  27
ENDBRANCH  19  24
ENDBRANCH   1  19
TORSDOF 8
ENDMDL
MODEL 3
REMARK VINA RESULT:      -8.5      2.888      8.436
REMARK  Name = 
REMARK  10 active torsions:
REMARK  status: ('A' for Active; 'I' for Inactive)
REMARK    1  A    between atoms: C_1  and  C_2
REMARK    2  A    between atoms: C_2  and  C_3
REMARK    3  A    between atoms: C_3  and  C_4
REMARK    4  A    between atoms: C_4  and  C_5
REMARK    5  A    between atoms: C_8  and  S_9
REMARK    6  A    between atoms: S_9  and  C_10
REMARK    7  A    between atoms: N_11  and  C_12
REMARK    8  A    between atoms: C_12  and  C_13
REMARK    9  A    between atoms: C_16  and  C_17
REMARK   10  A    between atoms: C_22  and  C_23
REMARK                            x       y       z     vdW  Elec       q    Type
REMARK                         _______ _______ _______ _____ _____    ______ ____
ROOT
ATOM      1  C   UNL     1       2.590   7.227  18.633  0.00  0.00    +0.000 A 
ATOM      2  C   UNL     1       2.359   6.938  19.983  0.00  0.00    +0.000 A 
ATOM      3  C   UNL     1       1.612   7.813  20.788  0.00  0.00    +0.000 A 
ATOM      4  C   UNL     1       1.040   8.986  20.272  0.00  0.00    +0.000 A 
ATOM      5  C   UNL     1       1.247   9.225  18.895  0.00  0.00    +0.000 A 
ATOM      6  C   UNL     1       2.018   8.380  18.093  0.00  0.00    +0.000 A 
ENDROOT
BRANCH   4   7
ATOM      7  C   UNL     1       0.354  10.005  21.128  0.00  0.00    +0.000 A 
ATOM      8  C   UNL     1      -0.256   9.530  22.325  0.00  0.00    +0.000 A 
ATOM      9  C   UNL     1      -0.971  10.355  23.199  0.00  0.00    +0.000 A 
ATOM     10  C   UNL     1      -1.140  11.687  22.891  0.00  0.00    +0.000 A 
ATOM     11  C   UNL     1      -0.562  12.197  21.730  0.00  0.00    +0.000 A 
ATOM     12  C   UNL     1       0.217  11.390  20.858  0.00  0.00    +0.000 A 
BRANCH  12  13
ATOM     13  C   UNL     1       0.870  12.103  19.757  0.00  0.00    +0.000 A 
ATOM     14  N   UNL     1       2.152  12.601  19.813  0.00  0.00    +0.000 NA
ATOM     15  N   UNL     1       2.357  13.277  18.686  0.00  0.00    +0.000 NA
ATOM     16  N   UNL     1       1.198  13.193  18.031  0.00  0.00    +0.000 N 
ATOM     17  N   UNL     1       0.243  12.462  18.613  0.00  0.00    +0.000 NA
ATOM     18  H   UNL     1       1.046  13.677  17.149  0.00  0.00    +0.000 HD
ENDBRANCH  12  13
ENDBRANCH   4   7
BRANCH   1  19
ATOM     19  C   UNL     1       3.491   6.354  17.799  0.00  0.00    +0.000 C 
BRANCH  19  24
ATOM     20  C   UNL     1       2.985   3.876  18.390  0.00  0.00    +0.000 A 
ATOM     21  N   UNL     1       3.750   2.870  18.789  0.00  0.00    +0.000 NA
ATOM     22  N   UNL     1       5.023   3.332  18.984  0.00  0.00    +0.000 NA
ATOM     23  C   UNL     1       5.032   4.602  18.666  0.00  0.00    +0.000 A 
ATOM     24  N   UNL     1       3.773   4.998  18.253  0.00  0.00    +0.000 N 
BRANCH  23  25
ATOM     25  S   UNL     1       6.413   5.652  18.721  0.00  0.00    +0.000 S 
ATOM     26  C   UNL     1       7.636   4.699  17.790  0.00  0.00    +0.000 C 
ENDBRANCH  23  25
BRANCH  20  27
ATOM     27  C   UNL     1       1.516   3.733  18.152  0.00  0.00    +0.000 C 
BRANCH  27  28
ATOM     28  C   UNL     1       0.795   3.050  19.325  0.00  0.00    +0.000 C 
BRANCH  28  30
ATOM     29  C   UNL     1       1.534   2.570  21.721  0.00  0.00    +0.000 C 
ATOM     30  C   UNL     1       1.133   3.629  20.704  0.00  0.00    +0.000 C 
ENDBRANCH  28  30
ENDBRANCH  27  28
ENDBRANCH  20  27
ENDBRANCH  19  24
ENDBRANCH   1  19
TORSDOF 8
ENDMDL
MODEL 4
REMARK VINA RESULT:      -8.4      2.167      2.987
REMARK  Name = 
REMARK  10 active torsions:
REMARK  status: ('A' for Active; 'I' for Inactive)
REMARK    1  A    between atoms: C_1  and  C_2
REMARK    2  A    between atoms: C_2  and  C_3
REMARK    3  A    between atoms: C_3  and  C_4
REMARK    4  A    between atoms: C_4  and  C_5
REMARK    5  A    between atoms: C_8  and  S_9
REMARK    6  A    between atoms: S_9  and  C_10
REMARK    7  A    between atoms: N_11  and  C_12
REMARK    8  A    between atoms: C_12  and  C_13
REMARK    9  A    between atoms: C_16  and  C_17
REMARK   10  A    between atoms: C_22  and  C_23
REMARK                            x       y       z     vdW  Elec       q    Type
REMARK                         _______ _______ _______ _____ _____    ______ ____
ROOT
ATOM      1  C   UNL     1       1.402   9.321  19.784  0.00  0.00    +0.000 A 
ATOM      2  C   UNL     1       1.584   8.218  20.627  0.00  0.00    +0.000 A 
ATOM      3  C   UNL     1       2.056   6.997  20.121  0.00  0.00    +0.000 A 
ATOM      4  C   UNL     1       2.397   6.838  18.769  0.00  0.00    +0.000 A 
ATOM      5  C   UNL     1       2.251   7.982  17.953  0.00  0.00    +0.000 A 
ATOM      6  C   UNL     1       1.749   9.193  18.438  0.00  0.00    +0.000 A 
ENDROOT
BRANCH   4   7
ATOM      7  C   UNL     1       2.773   5.518  18.171  0.00  0.00    +0.000 A 
ATOM      8  C   UNL     1       1.725   4.569  18.003  0.00  0.00    +0.000 A 
ATOM      9  C   UNL     1       1.931   3.279  17.502  0.00  0.00    +0.000 A 
ATOM     10  C   UNL     1       3.209   2.872  17.183  0.00  0.00    +0.000 A 
ATOM     11  C   UNL     1       4.267   3.766  17.332  0.00  0.00    +0.000 A 
ATOM     12  C   UNL     1       4.071   5.098  17.784  0.00  0.00    +0.000 A 
BRANCH  12  13
ATOM     13  C   UNL     1       5.260   5.954  17.753  0.00  0.00    +0.000 A 
ATOM     14  N   UNL     1       5.504   6.902  16.786  0.00  0.00    +0.000 NA
ATOM     15  N   UNL     1       6.718   7.393  17.019  0.00  0.00    +0.000 NA
ATOM     16  N   UNL     1       7.160   6.704  18.072  0.00  0.00    +0.000 N 
ATOM     17  N   UNL     1       6.308   5.820  18.599  0.00  0.00    +0.000 NA
ATOM     18  H   UNL     1       8.101   6.832  18.438  0.00  0.00    +0.000 HD
ENDBRANCH  12  13
ENDBRANCH   4   7
BRANCH   1  19
ATOM     19  C   UNL     1       0.782  10.594  20.299  0.00  0.00    +0.000 C 
BRANCH  19  24
ATOM     20  C   UNL     1      -0.961  11.382  18.541  0.00  0.00    +0.000 A 
ATOM     21  N   UNL     1      -1.146  12.532  17.908  0.00  0.00    +0.000 NA
ATOM     22  N   UNL     1      -0.131  13.388  18.237  0.00  0.00    +0.000 NA
ATOM     23  C   UNL     1       0.641  12.769  19.094  0.00  0.00    +0.000 A 
ATOM     24  N   UNL     1       0.148  11.501  19.350  0.00  0.00    +0.000 N 
BRANCH  23  25
ATOM     25  S   UNL     1       2.065  13.427  19.839  0.00  0.00    +0.000 S 
ATOM     26  C   UNL     1       3.166  13.619  18.417  0.00  0.00    +0.000 C 
ENDBRANCH  23  25
BRANCH  20  27
ATOM     27  C   UNL     1      -1.853  10.198  18.350  0.00  0.00    +0.000 C 
BRANCH  27  28
ATOM     28  C   UNL     1      -1.927   9.748  16.882  0.00  0.00    +0.000 C 
BRANCH  28  30
ATOM     29  C   UNL     1      -3.078  10.182  14.645  0.00  0.00    +0.000 C 
ATOM     30  C   UNL     1      -3.221  10.146  16.160  0.00  0.00    +0.000 C 
ENDBRANCH  28  30
ENDBRANCH  27  28
ENDBRANCH  20  27
ENDBRANCH  19  24
ENDBRANCH   1  19
TORSDOF 8
ENDMDL
MODEL 5
REMARK VINA RESULT:      -8.4      0.469      1.212
REMARK  Name = 
REMARK  10 active torsions:
REMARK  status: ('A' for Active; 'I' for Inactive)
REMARK    1  A    between atoms: C_1  and  C_2
REMARK    2  A    between atoms: C_2  and  C_3
REMARK    3  A    between atoms: C_3  and  C_4
REMARK    4  A    between atoms: C_4  and  C_5
REMARK    5  A    between atoms: C_8  and  S_9
REMARK    6  A    between atoms: S_9  and  C_10
REMARK    7  A    between atoms: N_11  and  C_12
REMARK    8  A    between atoms: C_12  and  C_13
REMARK    9  A    between atoms: C_16  and  C_17
REMARK   10  A    between atoms: C_22  and  C_23
REMARK                            x       y       z     vdW  Elec       q    Type
REMARK                         _______ _______ _______ _____ _____    ______ ____
ROOT
ATOM      1  C   UNL     1       1.153   9.072  19.589  0.00  0.00    +0.000 A 
ATOM      2  C   UNL     1       1.670   7.983  20.302  0.00  0.00    +0.000 A 
ATOM      3  C   UNL     1       2.512   7.049  19.677  0.00  0.00    +0.000 A 
ATOM      4  C   UNL     1       2.900   7.183  18.335  0.00  0.00    +0.000 A 
ATOM      5  C   UNL     1       2.405   8.318  17.656  0.00  0.00    +0.000 A 
ATOM      6  C   UNL     1       1.537   9.235  18.257  0.00  0.00    +0.000 A 
ENDROOT
BRANCH   4   7
ATOM      7  C   UNL     1       3.684   6.139  17.603  0.00  0.00    +0.000 A 
ATOM      8  C   UNL     1       4.675   6.605  16.692  0.00  0.00    +0.000 A 
ATOM      9  C   UNL     1       5.453   5.750  15.903  0.00  0.00    +0.000 A 
ATOM     10  C   UNL     1       5.243   4.389  15.967  0.00  0.00    +0.000 A 
ATOM     11  C   UNL     1       4.283   3.887  16.843  0.00  0.00    +0.000 A 
ATOM     12  C   UNL     1       3.523   4.733  17.695  0.00  0.00    +0.000 A 
BRANCH  12  13
ATOM     13  C   UNL     1       2.658   4.045  18.656  0.00  0.00    +0.000 A 
ATOM     14  N   UNL     1       1.301   3.882  18.496  0.00  0.00    +0.000 NA
ATOM     15  N   UNL     1       0.842   3.319  19.610  0.00  0.00    +0.000 NA
ATOM     16  N   UNL     1       1.915   3.207  20.394  0.00  0.00    +0.000 N 
ATOM     17  N   UNL     1       3.076   3.605  19.866  0.00  0.00    +0.000 NA
ATOM     18  H   UNL     1       1.846   2.857  21.347  0.00  0.00    +0.000 HD
ENDBRANCH  12  13
ENDBRANCH   4   7
BRANCH   1  19
ATOM     19  C   UNL     1       0.154  10.005  20.220  0.00  0.00    +0.000 C 
BRANCH  19  24
ATOM     20  C   UNL     1      -1.372  11.278  18.547  0.00  0.00    +0.000 A 
ATOM     21  N   UNL     1      -1.431  12.547  18.166  0.00  0.00    +0.000 NA
ATOM     22  N   UNL     1      -0.402  13.234  18.750  0.00  0.00    +0.000 NA
ATOM     23  C   UNL     1       0.251  12.390  19.509  0.00  0.00    +0.000 A 
ATOM     24  N   UNL     1      -0.336  11.139  19.445  0.00  0.00    +0.000 N 
BRANCH  23  25
ATOM     25  S   UNL     1       1.637  12.765  20.485  0.00  0.00    +0.000 S 
ATOM     26  C   UNL     1       2.327  14.189  19.609  0.00  0.00    +0.000 C 
ENDBRANCH  23  25
BRANCH  20  27
ATOM     27  C   UNL     1      -2.311  10.234  18.037  0.00  0.00    +0.000 C 
BRANCH  27  28
ATOM     28  C   UNL     1      -2.110   9.942  16.541  0.00  0.00    +0.000 C 
BRANCH  28  30
ATOM     29  C   UNL     1      -3.391  10.053  14.336  0.00  0.00    +0.000 C 
ATOM     30  C   UNL     1      -2.983  10.788  15.606  0.00  0.00    +0.000 C 
ENDBRANCH  28  30
ENDBRANCH  27  28
ENDBRANCH  20  27
ENDBRANCH  19  24
ENDBRANCH   1  19
TORSDOF 8
ENDMDL
MODEL 6
REMARK VINA RESULT:      -8.3      2.776      8.309
REMARK  Name = 
REMARK  10 active torsions:
REMARK  status: ('A' for Active; 'I' for Inactive)
REMARK    1  A    between atoms: C_1  and  C_2
REMARK    2  A    between atoms: C_2  and  C_3
REMARK    3  A    between atoms: C_3  and  C_4
REMARK    4  A    between atoms: C_4  and  C_5
REMARK    5  A    between atoms: C_8  and  S_9
REMARK    6  A    between atoms: S_9  and  C_10
REMARK    7  A    between atoms: N_11  and  C_12
REMARK    8  A    between atoms: C_12  and  C_13
REMARK    9  A    between atoms: C_16  and  C_17
REMARK   10  A    between atoms: C_22  and  C_23
REMARK                            x       y       z     vdW  Elec       q    Type
REMARK                         _______ _______ _______ _____ _____    ______ ____
ROOT
ATOM      1  C   UNL     1       2.636   7.322  18.434  0.00  0.00    +0.000 A 
ATOM      2  C   UNL     1       2.128   8.546  17.981  0.00  0.00    +0.000 A 
ATOM      3  C   UNL     1       1.406   9.388  18.842  0.00  0.00    +0.000 A 
ATOM      4  C   UNL     1       1.195   9.062  20.190  0.00  0.00    +0.000 A 
ATOM      5  C   UNL     1       1.761   7.846  20.632  0.00  0.00    +0.000 A 
ATOM      6  C   UNL     1       2.451   6.983  19.775  0.00  0.00    +0.000 A 
ENDROOT
BRANCH   4   7
ATOM      7  C   UNL     1       0.319   9.868  21.098  0.00  0.00    +0.000 A 
ATOM      8  C   UNL     1       0.050   9.318  22.384  0.00  0.00    +0.000 A 
ATOM      9  C   UNL     1      -0.787   9.933  23.321  0.00  0.00    +0.000 A 
ATOM     10  C   UNL     1      -1.424  11.110  22.993  0.00  0.00    +0.000 A 
ATOM     11  C   UNL     1      -1.193  11.686  21.745  0.00  0.00    +0.000 A 
ATOM     12  C   UNL     1      -0.302  11.108  20.802  0.00  0.00    +0.000 A 
BRANCH  12  13
ATOM     13  C   UNL     1      -0.059  11.905  19.596  0.00  0.00    +0.000 A 
ATOM     14  N   UNL     1       1.003  12.765  19.439  0.00  0.00    +0.000 NA
ATOM     15  N   UNL     1       0.831  13.391  18.278  0.00  0.00    +0.000 NA
ATOM     16  N   UNL     1      -0.328  12.920  17.815  0.00  0.00    +0.000 N 
ATOM     17  N   UNL     1      -0.922  11.980  18.555  0.00  0.00    +0.000 NA
ATOM     18  H   UNL     1      -0.743  13.274  16.956  0.00  0.00    +0.000 HD
ENDBRANCH  12  13
ENDBRANCH   4   7
BRANCH   1  19
ATOM     19  C   UNL     1       3.303   6.363  17.484  0.00  0.00    +0.000 C 
BRANCH  19  24
ATOM     20  C   UNL     1       3.108   3.889  18.253  0.00  0.00    +0.000 A 
ATOM     21  N   UNL     1       4.003   2.995  18.649  0.00  0.00    +0.000 NA
ATOM     22  N   UNL     1       5.230   3.596  18.718  0.00  0.00    +0.000 NA
ATOM     23  C   UNL     1       5.080   4.837  18.329  0.00  0.00    +0.000 A 
ATOM     24  N   UNL     1       3.760   5.075  17.992  0.00  0.00    +0.000 N 
BRANCH  23  25
ATOM     25  S   UNL     1       6.342   6.024  18.217  0.00  0.00    +0.000 S 
ATOM     26  C   UNL     1       7.047   5.659  16.592  0.00  0.00    +0.000 C 
ENDBRANCH  23  25
BRANCH  20  27
ATOM     27  C   UNL     1       1.650   3.582  18.138  0.00  0.00    +0.000 C 
BRANCH  27  28
ATOM     28  C   UNL     1       1.114   2.810  19.355  0.00  0.00    +0.000 C 
BRANCH  28  30
ATOM     29  C   UNL     1       2.077   3.325  21.662  0.00  0.00    +0.000 C 
ATOM     30  C   UNL     1       0.999   3.645  20.636  0.00  0.00    +0.000 C 
ENDBRANCH  28  30
ENDBRANCH  27  28
ENDBRANCH  20  27
ENDBRANCH  19  24
ENDBRANCH   1  19
TORSDOF 8
ENDMDL
MODEL 7
REMARK VINA RESULT:      -8.2      0.693      1.233
REMARK  Name = 
REMARK  10 active torsions:
REMARK  status: ('A' for Active; 'I' for Inactive)
REMARK    1  A    between atoms: C_1  and  C_2
REMARK    2  A    between atoms: C_2  and  C_3
REMARK    3  A    between atoms: C_3  and  C_4
REMARK    4  A    between atoms: C_4  and  C_5
REMARK    5  A    between atoms: C_8  and  S_9
REMARK    6  A    between atoms: S_9  and  C_10
REMARK    7  A    between atoms: N_11  and  C_12
REMARK    8  A    between atoms: C_12  and  C_13
REMARK    9  A    between atoms: C_16  and  C_17
REMARK   10  A    between atoms: C_22  and  C_23
REMARK                            x       y       z     vdW  Elec       q    Type
REMARK                         _______ _______ _______ _____ _____    ______ ____
ROOT
ATOM      1  C   UNL     1       1.211   8.977  19.497  0.00  0.00    +0.000 A 
ATOM      2  C   UNL     1       1.688   7.856  20.187  0.00  0.00    +0.000 A 
ATOM      3  C   UNL     1       2.557   6.945  19.566  0.00  0.00    +0.000 A 
ATOM      4  C   UNL     1       3.010   7.134  18.252  0.00  0.00    +0.000 A 
ATOM      5  C   UNL     1       2.553   8.300  17.598  0.00  0.00    +0.000 A 
ATOM      6  C   UNL     1       1.660   9.195  18.194  0.00  0.00    +0.000 A 
ENDROOT
BRANCH   4   7
ATOM      7  C   UNL     1       3.827   6.118  17.515  0.00  0.00    +0.000 A 
ATOM      8  C   UNL     1       4.943   6.606  16.778  0.00  0.00    +0.000 A 
ATOM      9  C   UNL     1       5.769   5.784  16.004  0.00  0.00    +0.000 A 
ATOM     10  C   UNL     1       5.486   4.439  15.904  0.00  0.00    +0.000 A 
ATOM     11  C   UNL     1       4.403   3.916  16.607  0.00  0.00    +0.000 A 
ATOM     12  C   UNL     1       3.586   4.722  17.444  0.00  0.00    +0.000 A 
BRANCH  12  13
ATOM     13  C   UNL     1       2.577   4.000  18.223  0.00  0.00    +0.000 A 
ATOM     14  N   UNL     1       2.820   3.402  19.438  0.00  0.00    +0.000 NA
ATOM     15  N   UNL     1       1.712   2.754  19.783  0.00  0.00    +0.000 NA
ATOM     16  N   UNL     1       0.878   2.951  18.760  0.00  0.00    +0.000 N 
ATOM     17  N   UNL     1       1.328   3.732  17.775  0.00  0.00    +0.000 NA
ATOM     18  H   UNL     1      -0.039   2.512  18.726  0.00  0.00    +0.000 HD
ENDBRANCH  12  13
ENDBRANCH   4   7
BRANCH   1  19
ATOM     19  C   UNL     1       0.185   9.889  20.118  0.00  0.00    +0.000 C 
BRANCH  19  24
ATOM     20  C   UNL     1      -1.293  11.165  18.404  0.00  0.00    +0.000 A 
ATOM     21  N   UNL     1      -1.370  12.442  18.055  0.00  0.00    +0.000 NA
ATOM     22  N   UNL     1      -0.391  13.140  18.708  0.00  0.00    +0.000 NA
ATOM     23  C   UNL     1       0.247  12.294  19.476  0.00  0.00    +0.000 A 
ATOM     24  N   UNL     1      -0.299  11.029  19.349  0.00  0.00    +0.000 N 
BRANCH  23  25
ATOM     25  S   UNL     1       1.572  12.680  20.530  0.00  0.00    +0.000 S 
ATOM     26  C   UNL     1       1.070  14.294  21.173  0.00  0.00    +0.000 C 
ENDBRANCH  23  25
BRANCH  20  27
ATOM     27  C   UNL     1      -2.175  10.110  17.820  0.00  0.00    +0.000 C 
BRANCH  27  28
ATOM     28  C   UNL     1      -2.381  10.288  16.307  0.00  0.00    +0.000 C 
BRANCH  28  30
ATOM     29  C   UNL     1      -4.655  11.130  17.106  0.00  0.00    +0.000 C 
ATOM     30  C   UNL     1      -3.727  10.914  15.919  0.00  0.00    +0.000 C 
ENDBRANCH  28  30
ENDBRANCH  27  28
ENDBRANCH  20  27
ENDBRANCH  19  24
ENDBRANCH   1  19
TORSDOF 8
ENDMDL
MODEL 8
REMARK VINA RESULT:      -8.2      2.592      8.106
REMARK  Name = 
REMARK  10 active torsions:
REMARK  status: ('A' for Active; 'I' for Inactive)
REMARK    1  A    between atoms: C_1  and  C_2
REMARK    2  A    between atoms: C_2  and  C_3
REMARK    3  A    between atoms: C_3  and  C_4
REMARK    4  A    between atoms: C_4  and  C_5
REMARK    5  A    between atoms: C_8  and  S_9
REMARK    6  A    between atoms: S_9  and  C_10
REMARK    7  A    between atoms: N_11  and  C_12
REMARK    8  A    between atoms: C_12  and  C_13
REMARK    9  A    between atoms: C_16  and  C_17
REMARK   10  A    between atoms: C_22  and  C_23
REMARK                            x       y       z     vdW  Elec       q    Type
REMARK                         _______ _______ _______ _____ _____    ______ ____
ROOT
ATOM      1  C   UNL     1       2.760   7.443  18.301  0.00  0.00    +0.000 A 
ATOM      2  C   UNL     1       2.319   7.271  19.619  0.00  0.00    +0.000 A 
ATOM      3  C   UNL     1       1.432   8.188  20.205  0.00  0.00    +0.000 A 
ATOM      4  C   UNL     1       0.925   9.285  19.493  0.00  0.00    +0.000 A 
ATOM      5  C   UNL     1       1.348   9.405  18.151  0.00  0.00    +0.000 A 
ATOM      6  C   UNL     1       2.258   8.519  17.568  0.00  0.00    +0.000 A 
ENDROOT
BRANCH   4   7
ATOM      7  C   UNL     1       0.087  10.353  20.126  0.00  0.00    +0.000 A 
ATOM      8  C   UNL     1       0.516  10.836  21.395  0.00  0.00    +0.000 A 
ATOM      9  C   UNL     1      -0.189  11.797  22.128  0.00  0.00    +0.000 A 
ATOM     10  C   UNL     1      -1.379  12.287  21.637  0.00  0.00    +0.000 A 
ATOM     11  C   UNL     1      -1.840  11.843  20.399  0.00  0.00    +0.000 A 
ATOM     12  C   UNL     1      -1.111  10.912  19.612  0.00  0.00    +0.000 A 
BRANCH  12  13
ATOM     13  C   UNL     1      -1.657  10.652  18.277  0.00  0.00    +0.000 A 
ATOM     14  N   UNL     1      -1.714  11.589  17.271  0.00  0.00    +0.000 NA
ATOM     15  N   UNL     1      -2.370  11.032  16.257  0.00  0.00    +0.000 NA
ATOM     16  N   UNL     1      -2.709   9.822  16.703  0.00  0.00    +0.000 N 
ATOM     17  N   UNL     1      -2.280   9.503  17.928  0.00  0.00    +0.000 NA
ATOM     18  H   UNL     1      -3.279   9.188  16.148  0.00  0.00    +0.000 HD
ENDBRANCH  12  13
ENDBRANCH   4   7
BRANCH   1  19
ATOM     19  C   UNL     1       3.804   6.531  17.710  0.00  0.00    +0.000 C 
BRANCH  19  24
ATOM     20  C   UNL     1       3.067   4.127  18.363  0.00  0.00    +0.000 A 
ATOM     21  N   UNL     1       3.719   3.091  18.872  0.00  0.00    +0.000 NA
ATOM     22  N   UNL     1       5.001   3.472  19.159  0.00  0.00    +0.000 NA
ATOM     23  C   UNL     1       5.131   4.721  18.787  0.00  0.00    +0.000 A 
ATOM     24  N   UNL     1       3.944   5.183  18.247  0.00  0.00    +0.000 N 
BRANCH  23  25
ATOM     25  S   UNL     1       6.577   5.674  18.918  0.00  0.00    +0.000 S 
ATOM     26  C   UNL     1       7.698   4.793  17.805  0.00  0.00    +0.000 C 
ENDBRANCH  23  25
BRANCH  20  27
ATOM     27  C   UNL     1       1.617   4.076  18.002  0.00  0.00    +0.000 C 
BRANCH  27  28
ATOM     28  C   UNL     1       0.788   3.267  19.014  0.00  0.00    +0.000 C 
BRANCH  28  30
ATOM     29  C   UNL     1       1.349   2.818  21.463  0.00  0.00    +0.000 C 
ATOM     30  C   UNL     1       0.819   3.817  20.445  0.00  0.00    +0.000 C 
ENDBRANCH  28  30
ENDBRANCH  27  28
ENDBRANCH  20  27
ENDBRANCH  19  24
ENDBRANCH   1  19
TORSDOF 8
ENDMDL
MODEL 9
REMARK VINA RESULT:      -8.2      3.176      8.746
REMARK  Name = 
REMARK  10 active torsions:
REMARK  status: ('A' for Active; 'I' for Inactive)
REMARK    1  A    between atoms: C_1  and  C_2
REMARK    2  A    between atoms: C_2  and  C_3
REMARK    3  A    between atoms: C_3  and  C_4
REMARK    4  A    between atoms: C_4  and  C_5
REMARK    5  A    between atoms: C_8  and  S_9
REMARK    6  A    between atoms: S_9  and  C_10
REMARK    7  A    between atoms: N_11  and  C_12
REMARK    8  A    between atoms: C_12  and  C_13
REMARK    9  A    between atoms: C_16  and  C_17
REMARK   10  A    between atoms: C_22  and  C_23
REMARK                            x       y       z     vdW  Elec       q    Type
REMARK                         _______ _______ _______ _____ _____    ______ ____
ROOT
ATOM      1  C   UNL     1       2.299   6.892  18.831  0.00  0.00    +0.000 A 
ATOM      2  C   UNL     1       1.973   8.120  18.241  0.00  0.00    +0.000 A 
ATOM      3  C   UNL     1       1.389   9.148  18.998  0.00  0.00    +0.000 A 
ATOM      4  C   UNL     1       1.142   9.007  20.372  0.00  0.00    +0.000 A 
ATOM      5  C   UNL     1       1.528   7.778  20.950  0.00  0.00    +0.000 A 
ATOM      6  C   UNL     1       2.077   6.734  20.200  0.00  0.00    +0.000 A 
ENDROOT
BRANCH   4   7
ATOM      7  C   UNL     1       0.401  10.029  21.178  0.00  0.00    +0.000 A 
ATOM      8  C   UNL     1      -0.214   9.574  22.379  0.00  0.00    +0.000 A 
ATOM      9  C   UNL     1      -0.978  10.401  23.210  0.00  0.00    +0.000 A 
ATOM     10  C   UNL     1      -1.191  11.714  22.850  0.00  0.00    +0.000 A 
ATOM     11  C   UNL     1      -0.610  12.204  21.682  0.00  0.00    +0.000 A 
ATOM     12  C   UNL     1       0.216  11.397  20.855  0.00  0.00    +0.000 A 
BRANCH  12  13
ATOM     13  C   UNL     1       0.864  12.096  19.741  0.00  0.00    +0.000 A 
ATOM     14  N   UNL     1       2.139  12.612  19.790  0.00  0.00    +0.000 NA
ATOM     15  N   UNL     1       2.338  13.266  18.649  0.00  0.00    +0.000 NA
ATOM     16  N   UNL     1       1.183  13.153  17.993  0.00  0.00    +0.000 N 
ATOM     17  N   UNL     1       0.236  12.421  18.587  0.00  0.00    +0.000 NA
ATOM     18  H   UNL     1       1.027  13.615  17.100  0.00  0.00    +0.000 HD
ENDBRANCH  12  13
ENDBRANCH   4   7
BRANCH   1  19
ATOM     19  C   UNL     1       2.811   5.747  17.999  0.00  0.00    +0.000 C 
BRANCH  19  24
ATOM     20  C   UNL     1       5.361   5.361  18.312  0.00  0.00    +0.000 A 
ATOM     21  N   UNL     1       6.061   4.417  18.925  0.00  0.00    +0.000 NA
ATOM     22  N   UNL     1       5.203   3.454  19.382  0.00  0.00    +0.000 NA
ATOM     23  C   UNL     1       3.989   3.837  19.078  0.00  0.00    +0.000 A 
ATOM     24  N   UNL     1       4.022   5.055  18.424  0.00  0.00    +0.000 N 
BRANCH  23  25
ATOM     25  S   UNL     1       2.529   2.973  19.453  0.00  0.00    +0.000 S 
ATOM     26  C   UNL     1       2.426   3.188  21.246  0.00  0.00    +0.000 C 
ENDBRANCH  23  25
BRANCH  20  27
ATOM     27  C   UNL     1       5.997   6.530  17.633  0.00  0.00    +0.000 C 
BRANCH  27  28
ATOM     28  C   UNL     1       7.532   6.440  17.622  0.00  0.00    +0.000 C 
BRANCH  28  30
ATOM     29  C   UNL     1       8.036   8.930  17.873  0.00  0.00    +0.000 C 
ATOM     30  C   UNL     1       8.238   7.531  18.437  0.00  0.00    +0.000 C 
ENDBRANCH  28  30
ENDBRANCH  27  28
ENDBRANCH  20  27
ENDBRANCH  19  24
ENDBRANCH   1  19
TORSDOF 8
ENDMDL
