MODEL 1
REMARK VINA RESULT:      -8.4      0.000      0.000
REMARK  Name = 
REMARK  5 active torsions:
REMARK  status: ('A' for Active; 'I' for Inactive)
REMARK    1  A    between atoms: C_1  and  C_2
REMARK    2  A    between atoms: C_5  and  C_6
REMARK    3  A    between atoms: C_6  and  O_8
REMARK    4  A    between atoms: O_8  and  N_9
REMARK    5  A    between atoms: C_15  and  C_16
REMARK                            x       y       z     vdW  Elec       q    Type
REMARK                         _______ _______ _______ _____ _____    ______ ____
ROOT
ATOM      1  N   UNL     1       4.865   3.169  19.248  0.00  0.00    +0.000 NA
ATOM      2  C   UNL     1       3.657   3.524  18.991  0.00  0.00    +0.000 C 
ATOM      3  C   UNL     1       2.652   2.403  18.836  0.00  0.00    +0.000 C 
ATOM      4  C   UNL     1       1.671   3.000  17.845  0.00  0.00    +0.000 C 
ATOM      5  C   UNL     1       1.614   4.497  18.155  0.00  0.00    +0.000 C 
ATOM      6  C   UNL     1       2.940   4.838  18.790  0.00  0.00    +0.000 C 
ATOM      7  C   UNL     1       3.325   6.036  19.265  0.00  0.00    +0.000 C 
ENDROOT
BRANCH   7   8
ATOM      8  C   UNL     1       2.515   7.276  19.230  0.00  0.00    +0.000 A 
ATOM      9  C   UNL     1       2.429   8.017  18.040  0.00  0.00    +0.000 A 
ATOM     10  C   UNL     1       1.646   9.179  17.968  0.00  0.00    +0.000 A 
ATOM     11  C   UNL     1       0.936   9.618  19.082  0.00  0.00    +0.000 A 
ATOM     12  C   UNL     1       1.006   8.887  20.268  0.00  0.00    +0.000 A 
ATOM     13  C   UNL     1       1.789   7.724  20.341  0.00  0.00    +0.000 A 
ENDBRANCH   7   8
BRANCH   1  14
ATOM     14  O   UNL     1       5.811   4.203  19.332  0.00  0.00    +0.000 OA
BRANCH  14  15
ATOM     15  C   UNL     1       6.179   4.558  18.056  0.00  0.00    +0.000 C 
ATOM     16  O   UNL     1       6.059   3.885  17.033  0.00  0.00    +0.000 OA
BRANCH  15  21
ATOM     17  C   UNL     1       8.704   9.801  18.058  0.00  0.00    +0.000 C 
ATOM     18  C   UNL     1       8.050   8.448  18.056  0.00  0.00    +0.000 A 
ATOM     19  C   UNL     1       8.481   7.438  18.921  0.00  0.00    +0.000 A 
ATOM     20  C   UNL     1       7.862   6.182  18.904  0.00  0.00    +0.000 A 
ATOM     21  C   UNL     1       6.802   5.915  18.022  0.00  0.00    +0.000 A 
ATOM     22  C   UNL     1       6.375   6.925  17.153  0.00  0.00    +0.000 A 
ATOM     23  C   UNL     1       6.995   8.181  17.174  0.00  0.00    +0.000 A 
ENDBRANCH  15  21
ENDBRANCH  14  15
ENDBRANCH   1  14
TORSDOF 4
ENDMDL
MODEL 2
REMARK VINA RESULT:      -8.4      0.158      1.015
REMARK  Name = 
REMARK  5 active torsions:
REMARK  status: ('A' for Active; 'I' for Inactive)
REMARK    1  A    between atoms: C_1  and  C_2
REMARK    2  A    between atoms: C_5  and  C_6
REMARK    3  A    between atoms: C_6  and  O_8
REMARK    4  A    between atoms: O_8  and  N_9
REMARK    5  A    between atoms: C_15  and  C_16
REMARK                            x       y       z     vdW  Elec       q    Type
REMARK                         _______ _______ _______ _____ _____    ______ ____
ROOT
ATOM      1  N   UNL     1       4.830   3.093  19.403  0.00  0.00    +0.000 NA
ATOM      2  C   UNL     1       3.617   3.440  19.154  0.00  0.00    +0.000 C 
ATOM      3  C   UNL     1       2.608   2.316  19.063  0.00  0.00    +0.000 C 
ATOM      4  C   UNL     1       1.611   2.874  18.067  0.00  0.00    +0.000 C 
ATOM      5  C   UNL     1       1.562   4.383  18.315  0.00  0.00    +0.000 C 
ATOM      6  C   UNL     1       2.900   4.747  18.911  0.00  0.00    +0.000 C 
ATOM      7  C   UNL     1       3.295   5.962  19.330  0.00  0.00    +0.000 C 
ENDROOT
BRANCH   7   8
ATOM      8  C   UNL     1       2.487   7.202  19.258  0.00  0.00    +0.000 A 
ATOM      9  C   UNL     1       1.829   7.670  20.407  0.00  0.00    +0.000 A 
ATOM     10  C   UNL     1       1.081   8.857  20.377  0.00  0.00    +0.000 A 
ATOM     11  C   UNL     1       0.980   9.595  19.201  0.00  0.00    +0.000 A 
ATOM     12  C   UNL     1       1.635   9.145  18.055  0.00  0.00    +0.000 A 
ATOM     13  C   UNL     1       2.385   7.958  18.083  0.00  0.00    +0.000 A 
ENDBRANCH   7   8
BRANCH   1  14
ATOM     14  O   UNL     1       5.778   4.127  19.426  0.00  0.00    +0.000 OA
BRANCH  14  15
ATOM     15  C   UNL     1       6.077   4.472  18.129  0.00  0.00    +0.000 C 
ATOM     16  O   UNL     1       5.901   3.791  17.121  0.00  0.00    +0.000 OA
BRANCH  15  21
ATOM     17  C   UNL     1       8.602   9.711  17.953  0.00  0.00    +0.000 C 
ATOM     18  C   UNL     1       7.948   8.359  17.997  0.00  0.00    +0.000 A 
ATOM     19  C   UNL     1       8.421   7.358  18.851  0.00  0.00    +0.000 A 
ATOM     20  C   UNL     1       7.801   6.103  18.878  0.00  0.00    +0.000 A 
ATOM     21  C   UNL     1       6.699   5.828  18.051  0.00  0.00    +0.000 A 
ATOM     22  C   UNL     1       6.231   6.829  17.193  0.00  0.00    +0.000 A 
ATOM     23  C   UNL     1       6.852   8.084  17.170  0.00  0.00    +0.000 A 
ENDBRANCH  15  21
ENDBRANCH  14  15
ENDBRANCH   1  14
TORSDOF 4
ENDMDL
MODEL 3
REMARK VINA RESULT:      -8.4      1.219      1.790
REMARK  Name = 
REMARK  5 active torsions:
REMARK  status: ('A' for Active; 'I' for Inactive)
REMARK    1  A    between atoms: C_1  and  C_2
REMARK    2  A    between atoms: C_5  and  C_6
REMARK    3  A    between atoms: C_6  and  O_8
REMARK    4  A    between atoms: O_8  and  N_9
REMARK    5  A    between atoms: C_15  and  C_16
REMARK                            x       y       z     vdW  Elec       q    Type
REMARK                         _______ _______ _______ _____ _____    ______ ____
ROOT
ATOM      1  N   UNL     1       3.962   3.273  18.011  0.00  0.00    +0.000 NA
ATOM      2  C   UNL     1       3.290   3.803  18.970  0.00  0.00    +0.000 C 
ATOM      3  C   UNL     1       3.167   2.977  20.233  0.00  0.00    +0.000 C 
ATOM      4  C   UNL     1       1.818   3.422  20.764  0.00  0.00    +0.000 C 
ATOM      5  C   UNL     1       1.684   4.902  20.395  0.00  0.00    +0.000 C 
ATOM      6  C   UNL     1       2.549   5.103  19.175  0.00  0.00    +0.000 C 
ATOM      7  C   UNL     1       2.773   6.259  18.525  0.00  0.00    +0.000 C 
ENDROOT
BRANCH   7   8
ATOM      8  C   UNL     1       2.179   7.571  18.872  0.00  0.00    +0.000 A 
ATOM      9  C   UNL     1       1.967   8.526  17.865  0.00  0.00    +0.000 A 
ATOM     10  C   UNL     1       1.379   9.766  18.159  0.00  0.00    +0.000 A 
ATOM     11  C   UNL     1       0.992  10.069  19.461  0.00  0.00    +0.000 A 
ATOM     12  C   UNL     1       1.189   9.126  20.469  0.00  0.00    +0.000 A 
ATOM     13  C   UNL     1       1.777   7.885  20.177  0.00  0.00    +0.000 A 
ENDBRANCH   7   8
BRANCH   1  14
ATOM     14  O   UNL     1       4.026   4.009  16.818  0.00  0.00    +0.000 OA
BRANCH  14  15
ATOM     15  C   UNL     1       5.323   3.987  16.363  0.00  0.00    +0.000 C 
ATOM     16  O   UNL     1       5.824   3.176  15.586  0.00  0.00    +0.000 OA
BRANCH  15  21
ATOM     17  C   UNL     1       8.399   8.413  18.554  0.00  0.00    +0.000 C 
ATOM     18  C   UNL     1       7.606   7.269  17.989  0.00  0.00    +0.000 A 
ATOM     19  C   UNL     1       6.641   7.480  17.001  0.00  0.00    +0.000 A 
ATOM     20  C   UNL     1       5.910   6.402  16.488  0.00  0.00    +0.000 A 
ATOM     21  C   UNL     1       6.131   5.095  16.954  0.00  0.00    +0.000 A 
ATOM     22  C   UNL     1       7.094   4.886  17.947  0.00  0.00    +0.000 A 
ATOM     23  C   UNL     1       7.826   5.967  18.458  0.00  0.00    +0.000 A 
ENDBRANCH  15  21
ENDBRANCH  14  15
ENDBRANCH   1  14
TORSDOF 4
ENDMDL
MODEL 4
REMARK VINA RESULT:      -8.3      0.217      1.029
REMARK  Name = 
REMARK  5 active torsions:
REMARK  status: ('A' for Active; 'I' for Inactive)
REMARK    1  A    between atoms: C_1  and  C_2
REMARK    2  A    between atoms: C_5  and  C_6
REMARK    3  A    between atoms: C_6  and  O_8
REMARK    4  A    between atoms: O_8  and  N_9
REMARK    5  A    between atoms: C_15  and  C_16
REMARK                            x       y       z     vdW  Elec       q    Type
REMARK                         _______ _______ _______ _____ _____    ______ ____
ROOT
ATOM      1  N   UNL     1       4.966   3.286  19.142  0.00  0.00    +0.000 NA
ATOM      2  C   UNL     1       3.767   3.630  18.830  0.00  0.00    +0.000 C 
ATOM      3  C   UNL     1       2.793   2.500  18.579  0.00  0.00    +0.000 C 
ATOM      4  C   UNL     1       1.858   3.116  17.557  0.00  0.00    +0.000 C 
ATOM      5  C   UNL     1       1.757   4.601  17.915  0.00  0.00    +0.000 C 
ATOM      6  C   UNL     1       3.040   4.940  18.635  0.00  0.00    +0.000 C 
ATOM      7  C   UNL     1       3.375   6.125  19.173  0.00  0.00    +0.000 C 
ENDROOT
BRANCH   7   8
ATOM      8  C   UNL     1       2.547   7.353  19.136  0.00  0.00    +0.000 A 
ATOM      9  C   UNL     1       2.432   8.079  17.939  0.00  0.00    +0.000 A 
ATOM     10  C   UNL     1       1.631   9.229  17.866  0.00  0.00    +0.000 A 
ATOM     11  C   UNL     1       0.931   9.669  18.985  0.00  0.00    +0.000 A 
ATOM     12  C   UNL     1       1.029   8.953  20.178  0.00  0.00    +0.000 A 
ATOM     13  C   UNL     1       1.831   7.802  20.253  0.00  0.00    +0.000 A 
ENDBRANCH   7   8
BRANCH   1  14
ATOM     14  O   UNL     1       5.886   4.331  19.314  0.00  0.00    +0.000 OA
BRANCH  14  15
ATOM     15  C   UNL     1       6.381   4.681  18.081  0.00  0.00    +0.000 C 
ATOM     16  O   UNL     1       6.370   4.002  17.055  0.00  0.00    +0.000 OA
BRANCH  15  21
ATOM     17  C   UNL     1       8.680  10.026  18.031  0.00  0.00    +0.000 C 
ATOM     18  C   UNL     1       8.088   8.645  18.045  0.00  0.00    +0.000 A 
ATOM     19  C   UNL     1       7.034   8.305  17.193  0.00  0.00    +0.000 A 
ATOM     20  C   UNL     1       6.493   7.014  17.221  0.00  0.00    +0.000 A 
ATOM     21  C   UNL     1       6.997   6.042  18.102  0.00  0.00    +0.000 A 
ATOM     22  C   UNL     1       8.049   6.386  18.957  0.00  0.00    +0.000 A 
ATOM     23  C   UNL     1       8.590   7.678  18.925  0.00  0.00    +0.000 A 
ENDBRANCH  15  21
ENDBRANCH  14  15
ENDBRANCH   1  14
TORSDOF 4
ENDMDL
MODEL 5
REMARK VINA RESULT:      -8.3      1.229      1.538
REMARK  Name = 
REMARK  5 active torsions:
REMARK  status: ('A' for Active; 'I' for Inactive)
REMARK    1  A    between atoms: C_1  and  C_2
REMARK    2  A    between atoms: C_5  and  C_6
REMARK    3  A    between atoms: C_6  and  O_8
REMARK    4  A    between atoms: O_8  and  N_9
REMARK    5  A    between atoms: C_15  and  C_16
REMARK                            x       y       z     vdW  Elec       q    Type
REMARK                         _______ _______ _______ _____ _____    ______ ____
ROOT
ATOM      1  N   UNL     1       4.006   3.206  17.987  0.00  0.00    +0.000 NA
ATOM      2  C   UNL     1       3.364   3.741  18.964  0.00  0.00    +0.000 C 
ATOM      3  C   UNL     1       3.296   2.930  20.240  0.00  0.00    +0.000 C 
ATOM      4  C   UNL     1       1.963   3.367  20.815  0.00  0.00    +0.000 C 
ATOM      5  C   UNL     1       1.798   4.839  20.433  0.00  0.00    +0.000 C 
ATOM      6  C   UNL     1       2.616   5.035  19.180  0.00  0.00    +0.000 C 
ATOM      7  C   UNL     1       2.802   6.184  18.507  0.00  0.00    +0.000 C 
ENDROOT
BRANCH   7   8
ATOM      8  C   UNL     1       2.205   7.494  18.860  0.00  0.00    +0.000 A 
ATOM      9  C   UNL     1       2.014   8.462  17.861  0.00  0.00    +0.000 A 
ATOM     10  C   UNL     1       1.425   9.701  18.159  0.00  0.00    +0.000 A 
ATOM     11  C   UNL     1       1.016   9.989  19.458  0.00  0.00    +0.000 A 
ATOM     12  C   UNL     1       1.192   9.033  20.458  0.00  0.00    +0.000 A 
ATOM     13  C   UNL     1       1.782   7.794  20.161  0.00  0.00    +0.000 A 
ENDBRANCH   7   8
BRANCH   1  14
ATOM     14  O   UNL     1       4.018   3.927  16.783  0.00  0.00    +0.000 OA
BRANCH  14  15
ATOM     15  C   UNL     1       5.305   3.946  16.301  0.00  0.00    +0.000 C 
ATOM     16  O   UNL     1       5.822   3.138  15.531  0.00  0.00    +0.000 OA
BRANCH  15  21
ATOM     17  C   UNL     1       8.412   8.327  18.541  0.00  0.00    +0.000 C 
ATOM     18  C   UNL     1       7.608   7.197  17.962  0.00  0.00    +0.000 A 
ATOM     19  C   UNL     1       7.891   5.869  18.292  0.00  0.00    +0.000 A 
ATOM     20  C   UNL     1       7.134   4.828  17.741  0.00  0.00    +0.000 A 
ATOM     21  C   UNL     1       6.080   5.099  16.850  0.00  0.00    +0.000 A 
ATOM     22  C   UNL     1       5.802   6.429  16.518  0.00  0.00    +0.000 A 
ATOM     23  C   UNL     1       6.560   7.468  17.072  0.00  0.00    +0.000 A 
ENDBRANCH  15  21
ENDBRANCH  14  15
ENDBRANCH   1  14
TORSDOF 4
ENDMDL
MODEL 6
REMARK VINA RESULT:      -8.2      1.224      1.809
REMARK  Name = 
REMARK  5 active torsions:
REMARK  status: ('A' for Active; 'I' for Inactive)
REMARK    1  A    between atoms: C_1  and  C_2
REMARK    2  A    between atoms: C_5  and  C_6
REMARK    3  A    between atoms: C_6  and  O_8
REMARK    4  A    between atoms: O_8  and  N_9
REMARK    5  A    between atoms: C_15  and  C_16
REMARK                            x       y       z     vdW  Elec       q    Type
REMARK                         _______ _______ _______ _____ _____    ______ ____
ROOT
ATOM      1  N   UNL     1       4.114   3.151  17.959  0.00  0.00    +0.000 NA
ATOM      2  C   UNL     1       3.453   3.672  18.931  0.00  0.00    +0.000 C 
ATOM      3  C   UNL     1       3.402   2.865  20.210  0.00  0.00    +0.000 C 
ATOM      4  C   UNL     1       2.054   3.267  20.778  0.00  0.00    +0.000 C 
ATOM      5  C   UNL     1       1.852   4.733  20.390  0.00  0.00    +0.000 C 
ATOM      6  C   UNL     1       2.669   4.946  19.139  0.00  0.00    +0.000 C 
ATOM      7  C   UNL     1       2.826   6.098  18.463  0.00  0.00    +0.000 C 
ENDROOT
BRANCH   7   8
ATOM      8  C   UNL     1       2.193   7.392  18.808  0.00  0.00    +0.000 A 
ATOM      9  C   UNL     1       1.833   7.657  20.139  0.00  0.00    +0.000 A 
ATOM     10  C   UNL     1       1.259   8.886  20.501  0.00  0.00    +0.000 A 
ATOM     11  C   UNL     1       1.039   9.868  19.539  0.00  0.00    +0.000 A 
ATOM     12  C   UNL     1       1.399   9.621  18.215  0.00  0.00    +0.000 A 
ATOM     13  C   UNL     1       1.974   8.392  17.852  0.00  0.00    +0.000 A 
ENDBRANCH   7   8
BRANCH   1  14
ATOM     14  O   UNL     1       4.111   3.868  16.753  0.00  0.00    +0.000 OA
BRANCH  14  15
ATOM     15  C   UNL     1       5.399   3.923  16.277  0.00  0.00    +0.000 C 
ATOM     16  O   UNL     1       5.941   3.130  15.508  0.00  0.00    +0.000 OA
BRANCH  15  21
ATOM     17  C   UNL     1       8.375   8.382  18.539  0.00  0.00    +0.000 C 
ATOM     18  C   UNL     1       7.605   7.232  17.954  0.00  0.00    +0.000 A 
ATOM     19  C   UNL     1       7.909   5.912  18.299  0.00  0.00    +0.000 A 
ATOM     20  C   UNL     1       7.183   4.853  17.742  0.00  0.00    +0.000 A 
ATOM     21  C   UNL     1       6.141   5.095  16.831  0.00  0.00    +0.000 A 
ATOM     22  C   UNL     1       5.841   6.416  16.484  0.00  0.00    +0.000 A 
ATOM     23  C   UNL     1       6.568   7.475  17.044  0.00  0.00    +0.000 A 
ENDBRANCH  15  21
ENDBRANCH  14  15
ENDBRANCH   1  14
TORSDOF 4
ENDMDL
MODEL 7
REMARK VINA RESULT:      -8.1      1.244      2.036
REMARK  Name = 
REMARK  5 active torsions:
REMARK  status: ('A' for Active; 'I' for Inactive)
REMARK    1  A    between atoms: C_1  and  C_2
REMARK    2  A    between atoms: C_5  and  C_6
REMARK    3  A    between atoms: C_6  and  O_8
REMARK    4  A    between atoms: O_8  and  N_9
REMARK    5  A    between atoms: C_15  and  C_16
REMARK                            x       y       z     vdW  Elec       q    Type
REMARK                         _______ _______ _______ _____ _____    ______ ____
ROOT
ATOM      1  N   UNL     1       3.773   3.108  17.495  0.00  0.00    +0.000 NA
ATOM      2  C   UNL     1       2.993   3.539  18.422  0.00  0.00    +0.000 C 
ATOM      3  C   UNL     1       2.643   2.549  19.512  0.00  0.00    +0.000 C 
ATOM      4  C   UNL     1       1.254   3.007  19.913  0.00  0.00    +0.000 C 
ATOM      5  C   UNL     1       1.250   4.530  19.763  0.00  0.00    +0.000 C 
ATOM      6  C   UNL     1       2.296   4.846  18.722  0.00  0.00    +0.000 C 
ATOM      7  C   UNL     1       2.671   6.065  18.296  0.00  0.00    +0.000 C 
ENDROOT
BRANCH   7   8
ATOM      8  C   UNL     1       2.098   7.351  18.756  0.00  0.00    +0.000 A 
ATOM      9  C   UNL     1       1.898   7.572  20.128  0.00  0.00    +0.000 A 
ATOM     10  C   UNL     1       1.385   8.791  20.596  0.00  0.00    +0.000 A 
ATOM     11  C   UNL     1       1.066   9.809  19.701  0.00  0.00    +0.000 A 
ATOM     12  C   UNL     1       1.268   9.606  18.336  0.00  0.00    +0.000 A 
ATOM     13  C   UNL     1       1.781   8.386  17.867  0.00  0.00    +0.000 A 
ENDBRANCH   7   8
BRANCH   1  14
ATOM     14  O   UNL     1       4.049   4.005  16.451  0.00  0.00    +0.000 OA
BRANCH  14  15
ATOM     15  C   UNL     1       5.387   3.915  16.145  0.00  0.00    +0.000 C 
ATOM     16  O   UNL     1       5.933   3.065  15.444  0.00  0.00    +0.000 OA
BRANCH  15  21
ATOM     17  C   UNL     1       8.371   8.260  18.611  0.00  0.00    +0.000 C 
ATOM     18  C   UNL     1       7.602   7.136  17.975  0.00  0.00    +0.000 A 
ATOM     19  C   UNL     1       6.566   7.393  17.072  0.00  0.00    +0.000 A 
ATOM     20  C   UNL     1       5.858   6.334  16.491  0.00  0.00    +0.000 A 
ATOM     21  C   UNL     1       6.174   5.001  16.803  0.00  0.00    +0.000 A 
ATOM     22  C   UNL     1       7.208   4.746  17.710  0.00  0.00    +0.000 A 
ATOM     23  C   UNL     1       7.916   5.808  18.289  0.00  0.00    +0.000 A 
ENDBRANCH  15  21
ENDBRANCH  14  15
ENDBRANCH   1  14
TORSDOF 4
ENDMDL
MODEL 8
REMARK VINA RESULT:      -8.1      2.679      6.247
REMARK  Name = 
REMARK  5 active torsions:
REMARK  status: ('A' for Active; 'I' for Inactive)
REMARK    1  A    between atoms: C_1  and  C_2
REMARK    2  A    between atoms: C_5  and  C_6
REMARK    3  A    between atoms: C_6  and  O_8
REMARK    4  A    between atoms: O_8  and  N_9
REMARK    5  A    between atoms: C_15  and  C_16
REMARK                            x       y       z     vdW  Elec       q    Type
REMARK                         _______ _______ _______ _____ _____    ______ ____
ROOT
ATOM      1  N   UNL     1       5.747   4.398  19.369  0.00  0.00    +0.000 NA
ATOM      2  C   UNL     1       6.530   5.024  18.564  0.00  0.00    +0.000 C 
ATOM      3  C   UNL     1       7.607   5.870  19.206  0.00  0.00    +0.000 C 
ATOM      4  C   UNL     1       7.781   6.979  18.186  0.00  0.00    +0.000 C 
ATOM      5  C   UNL     1       7.554   6.334  16.817  0.00  0.00    +0.000 C 
ATOM      6  C   UNL     1       6.658   5.145  17.064  0.00  0.00    +0.000 C 
ATOM      7  C   UNL     1       6.228   4.254  16.153  0.00  0.00    +0.000 C 
ENDROOT
BRANCH   7   8
ATOM      8  C   UNL     1       6.535   4.288  14.704  0.00  0.00    +0.000 A 
ATOM      9  C   UNL     1       5.784   3.503  13.816  0.00  0.00    +0.000 A 
ATOM     10  C   UNL     1       6.032   3.536  12.434  0.00  0.00    +0.000 A 
ATOM     11  C   UNL     1       7.032   4.357  11.920  0.00  0.00    +0.000 A 
ATOM     12  C   UNL     1       7.781   5.149  12.791  0.00  0.00    +0.000 A 
ATOM     13  C   UNL     1       7.533   5.115  14.173  0.00  0.00    +0.000 A 
ENDBRANCH   7   8
BRANCH   1  14
ATOM     14  O   UNL     1       4.709   3.662  18.777  0.00  0.00    +0.000 OA
BRANCH  14  15
ATOM     15  C   UNL     1       3.529   3.999  19.398  0.00  0.00    +0.000 C 
ATOM     16  O   UNL     1       2.853   3.291  20.142  0.00  0.00    +0.000 OA
BRANCH  15  21
ATOM     17  C   UNL     1       1.789   9.417  18.182  0.00  0.00    +0.000 C 
ATOM     18  C   UNL     1       2.239   8.018  18.494  0.00  0.00    +0.000 A 
ATOM     19  C   UNL     1       2.074   7.476  19.772  0.00  0.00    +0.000 A 
ATOM     20  C   UNL     1       2.501   6.171  20.045  0.00  0.00    +0.000 A 
ATOM     21  C   UNL     1       3.100   5.386  19.045  0.00  0.00    +0.000 A 
ATOM     22  C   UNL     1       3.269   5.932  17.768  0.00  0.00    +0.000 A 
ATOM     23  C   UNL     1       2.839   7.237  17.497  0.00  0.00    +0.000 A 
ENDBRANCH  15  21
ENDBRANCH  14  15
ENDBRANCH   1  14
TORSDOF 4
ENDMDL
MODEL 9
REMARK VINA RESULT:      -8.1      0.936      1.026
REMARK  Name = 
REMARK  5 active torsions:
REMARK  status: ('A' for Active; 'I' for Inactive)
REMARK    1  A    between atoms: C_1  and  C_2
REMARK    2  A    between atoms: C_5  and  C_6
REMARK    3  A    between atoms: C_6  and  O_8
REMARK    4  A    between atoms: O_8  and  N_9
REMARK    5  A    between atoms: C_15  and  C_16
REMARK                            x       y       z     vdW  Elec       q    Type
REMARK                         _______ _______ _______ _____ _____    ______ ____
ROOT
ATOM      1  N   UNL     1       4.220   2.588  19.904  0.00  0.00    +0.000 NA
ATOM      2  C   UNL     1       3.029   3.056  19.782  0.00  0.00    +0.000 C 
ATOM      3  C   UNL     1       1.902   2.052  19.896  0.00  0.00    +0.000 C 
ATOM      4  C   UNL     1       0.849   2.663  18.993  0.00  0.00    +0.000 C 
ATOM      5  C   UNL     1       0.993   4.180  19.138  0.00  0.00    +0.000 C 
ATOM      6  C   UNL     1       2.429   4.421  19.538  0.00  0.00    +0.000 C 
ATOM      7  C   UNL     1       3.001   5.605  19.818  0.00  0.00    +0.000 C 
ENDROOT
BRANCH   7   8
ATOM      8  C   UNL     1       2.327   6.923  19.759  0.00  0.00    +0.000 A 
ATOM      9  C   UNL     1       2.337   7.656  18.562  0.00  0.00    +0.000 A 
ATOM     10  C   UNL     1       1.681   8.893  18.467  0.00  0.00    +0.000 A 
ATOM     11  C   UNL     1       1.005   9.416  19.566  0.00  0.00    +0.000 A 
ATOM     12  C   UNL     1       0.981   8.694  20.760  0.00  0.00    +0.000 A 
ATOM     13  C   UNL     1       1.636   7.455  20.855  0.00  0.00    +0.000 A 
ENDBRANCH   7   8
BRANCH   1  14
ATOM     14  O   UNL     1       5.267   3.506  19.738  0.00  0.00    +0.000 OA
BRANCH  14  15
ATOM     15  C   UNL     1       5.379   3.799  18.399  0.00  0.00    +0.000 C 
ATOM     16  O   UNL     1       4.993   3.114  17.454  0.00  0.00    +0.000 OA
BRANCH  15  21
ATOM     17  C   UNL     1       8.219   8.825  17.662  0.00  0.00    +0.000 C 
ATOM     18  C   UNL     1       7.483   7.528  17.851  0.00  0.00    +0.000 A 
ATOM     19  C   UNL     1       7.969   6.545  18.718  0.00  0.00    +0.000 A 
ATOM     20  C   UNL     1       7.273   5.341  18.880  0.00  0.00    +0.000 A 
ATOM     21  C   UNL     1       6.079   5.100  18.178  0.00  0.00    +0.000 A 
ATOM     22  C   UNL     1       5.597   6.084  17.308  0.00  0.00    +0.000 A 
ATOM     23  C   UNL     1       6.295   7.288  17.149  0.00  0.00    +0.000 A 
ENDBRANCH  15  21
ENDBRANCH  14  15
ENDBRANCH   1  14
TORSDOF 4
ENDMDL
