MODEL 1
REMARK VINA RESULT:      -8.0      0.000      0.000
REMARK  Name = 
REMARK  9 active torsions:
REMARK  status: ('A' for Active; 'I' for Inactive)
REMARK    1  A    between atoms: C_1  and  N_2
REMARK    2  A    between atoms: N_2  and  C_3
REMARK    3  A    between atoms: C_3  and  C_4
REMARK    4  A    between atoms: C_4  and  C_5
REMARK    5  A    between atoms: C_8  and  N_9
REMARK    6  A    between atoms: C_13  and  C_14
REMARK    7  A    between atoms: N_18  and  C_19
REMARK    8  A    between atoms: C_22  and  O_23
REMARK    9  A    between atoms: O_23  and  C_24
REMARK                            x       y       z     vdW  Elec       q    Type
REMARK                         _______ _______ _______ _____ _____    ______ ____
ROOT
ATOM      1  N   UNL     1       5.265   5.255  17.751  0.00  0.00    +0.000 N 
ATOM      2  C   UNL     1       5.660   4.234  18.739  0.00  0.00    +0.000 C 
ATOM      3  C   UNL     1       4.459   3.546  19.371  0.00  0.00    +0.000 C 
ATOM      4  C   UNL     1       3.475   4.589  19.754  0.00  0.00    +0.000 A 
ATOM      5  C   UNL     1       2.346   4.492  20.582  0.00  0.00    +0.000 A 
ATOM      6  N   UNL     1       1.655   5.647  20.575  0.00  0.00    +0.000 NA
ATOM      7  N   UNL     1       2.363   6.503  19.756  0.00  0.00    +0.000 N 
ATOM      8  C   UNL     1       3.451   5.856  19.190  0.00  0.00    +0.000 A 
ATOM      9  C   UNL     1       4.298   6.233  18.071  0.00  0.00    +0.000 C 
ATOM     10  O   UNL     1       4.105   7.223  17.371  0.00  0.00    +0.000 OA
ENDROOT
BRANCH   1  14
ATOM     11  C   UNL     1       6.212   4.397  13.713  0.00  0.00    +0.000 A 
ATOM     12  C   UNL     1       7.160   4.997  14.560  0.00  0.00    +0.000 A 
ATOM     13  C   UNL     1       6.849   5.314  15.885  0.00  0.00    +0.000 A 
ATOM     14  C   UNL     1       5.581   5.028  16.389  0.00  0.00    +0.000 A 
ATOM     15  C   UNL     1       4.603   4.515  15.535  0.00  0.00    +0.000 A 
ATOM     16  C   UNL     1       4.912   4.226  14.211  0.00  0.00    +0.000 A 
BRANCH  11  17
ATOM     17  C   UNL     1       6.627   3.734  12.403  0.00  0.00    +0.000 C 
ATOM     18  C   UNL     1       8.074   3.806  11.952  0.00  0.00    +0.000 C 
ATOM     19  C   UNL     1       7.037   4.608  11.226  0.00  0.00    +0.000 C 
BRANCH  17  20
ATOM     20  C   UNL     1       5.824   2.469  12.088  0.00  0.00    +0.000 C 
BRANCH  20  22
ATOM     21  C   UNL     1       6.034   0.232  11.186  0.00  0.00    +0.000 C 
ATOM     22  N   UNL     1       6.713   1.493  11.445  0.00  0.00    +0.000 NA
ATOM     23  H   UNL     1       7.016   1.879  10.550  0.00  0.00    +0.000 HD
ENDBRANCH  20  22
ENDBRANCH  17  20
ENDBRANCH  11  17
ENDBRANCH   1  14
BRANCH   7  24
ATOM     24  C   UNL     1       1.904   7.852  19.593  0.00  0.00    +0.000 A 
ATOM     25  C   UNL     1       1.944   8.503  18.358  0.00  0.00    +0.000 A 
ATOM     26  C   UNL     1       1.457   9.810  18.224  0.00  0.00    +0.000 A 
ATOM     27  C   UNL     1       0.939  10.498  19.318  0.00  0.00    +0.000 A 
ATOM     28  C   UNL     1       0.928   9.874  20.565  0.00  0.00    +0.000 A 
ATOM     29  C   UNL     1       1.417   8.562  20.705  0.00  0.00    +0.000 A 
BRANCH  27  30
ATOM     30  O   UNL     1       0.546  11.779  19.051  0.00  0.00    +0.000 OA
ATOM     31  C   UNL     1       1.567  12.698  18.688  0.00  0.00    +0.000 C 
ENDBRANCH  27  30
ENDBRANCH   7  24
BRANCH   5  32
ATOM     32  C   UNL     1       1.934   3.280  21.314  0.00  0.00    +0.000 C 
ATOM     33  N   UNL     1       0.746   2.734  20.930  0.00  0.00    +0.000 N 
ATOM     34  O   UNL     1       2.591   2.770  22.213  0.00  0.00    +0.000 OA
ATOM     35  H   UNL     1       0.224   3.159  20.176  0.00  0.00    +0.000 HD
ATOM     36  H   UNL     1       0.430   1.893  21.384  0.00  0.00    +0.000 HD
ENDBRANCH   5  32
TORSDOF 7
ENDMDL
MODEL 2
REMARK VINA RESULT:      -7.9      0.719      1.112
REMARK  Name = 
REMARK  9 active torsions:
REMARK  status: ('A' for Active; 'I' for Inactive)
REMARK    1  A    between atoms: C_1  and  N_2
REMARK    2  A    between atoms: N_2  and  C_3
REMARK    3  A    between atoms: C_3  and  C_4
REMARK    4  A    between atoms: C_4  and  C_5
REMARK    5  A    between atoms: C_8  and  N_9
REMARK    6  A    between atoms: C_13  and  C_14
REMARK    7  A    between atoms: N_18  and  C_19
REMARK    8  A    between atoms: C_22  and  O_23
REMARK    9  A    between atoms: O_23  and  C_24
REMARK                            x       y       z     vdW  Elec       q    Type
REMARK                         _______ _______ _______ _____ _____    ______ ____
ROOT
ATOM      1  N   UNL     1       5.318   5.096  18.098  0.00  0.00    +0.000 N 
ATOM      2  C   UNL     1       5.565   4.109  19.166  0.00  0.00    +0.000 C 
ATOM      3  C   UNL     1       4.277   3.485  19.685  0.00  0.00    +0.000 C 
ATOM      4  C   UNL     1       3.293   4.574  19.909  0.00  0.00    +0.000 A 
ATOM      5  C   UNL     1       2.075   4.547  20.607  0.00  0.00    +0.000 A 
ATOM      6  N   UNL     1       1.429   5.721  20.474  0.00  0.00    +0.000 NA
ATOM      7  N   UNL     1       2.254   6.519  19.706  0.00  0.00    +0.000 N 
ATOM      8  C   UNL     1       3.377   5.814  19.296  0.00  0.00    +0.000 A 
ATOM      9  C   UNL     1       4.356   6.116  18.266  0.00  0.00    +0.000 C 
ATOM     10  O   UNL     1       4.278   7.079  17.508  0.00  0.00    +0.000 OA
ENDROOT
BRANCH   1  14
ATOM     11  C   UNL     1       6.678   4.384  14.150  0.00  0.00    +0.000 A 
ATOM     12  C   UNL     1       5.405   3.951  14.560  0.00  0.00    +0.000 A 
ATOM     13  C   UNL     1       4.958   4.151  15.869  0.00  0.00    +0.000 A 
ATOM     14  C   UNL     1       5.778   4.799  16.792  0.00  0.00    +0.000 A 
ATOM     15  C   UNL     1       7.077   5.155  16.424  0.00  0.00    +0.000 A 
ATOM     16  C   UNL     1       7.524   4.929  15.127  0.00  0.00    +0.000 A 
BRANCH  11  17
ATOM     17  C   UNL     1       7.041   4.492  12.673  0.00  0.00    +0.000 C 
ATOM     18  C   UNL     1       8.446   4.904  12.274  0.00  0.00    +0.000 C 
ATOM     19  C   UNL     1       7.315   5.865  12.075  0.00  0.00    +0.000 C 
BRANCH  17  20
ATOM     20  C   UNL     1       6.296   3.484  11.793  0.00  0.00    +0.000 C 
BRANCH  20  22
ATOM     21  C   UNL     1       6.383   1.162  11.116  0.00  0.00    +0.000 C 
ATOM     22  N   UNL     1       7.144   2.299  11.612  0.00  0.00    +0.000 NA
ATOM     23  H   UNL     1       7.863   2.524  10.923  0.00  0.00    +0.000 HD
ENDBRANCH  20  22
ENDBRANCH  17  20
ENDBRANCH  11  17
ENDBRANCH   1  14
BRANCH   7  24
ATOM     24  C   UNL     1       1.864   7.872  19.437  0.00  0.00    +0.000 A 
ATOM     25  C   UNL     1       1.977   8.435  18.164  0.00  0.00    +0.000 A 
ATOM     26  C   UNL     1       1.556   9.750  17.925  0.00  0.00    +0.000 A 
ATOM     27  C   UNL     1       1.032  10.533  18.950  0.00  0.00    +0.000 A 
ATOM     28  C   UNL     1       0.947   9.996  20.234  0.00  0.00    +0.000 A 
ATOM     29  C   UNL     1       1.370   8.676  20.480  0.00  0.00    +0.000 A 
BRANCH  27  30
ATOM     30  O   UNL     1       0.707  11.809  18.584  0.00  0.00    +0.000 OA
ATOM     31  C   UNL     1      -0.678  12.114  18.498  0.00  0.00    +0.000 C 
ENDBRANCH  27  30
ENDBRANCH   7  24
BRANCH   5  32
ATOM     32  C   UNL     1       1.541   3.383  21.336  0.00  0.00    +0.000 C 
ATOM     33  N   UNL     1       0.500   2.738  20.739  0.00  0.00    +0.000 N 
ATOM     34  O   UNL     1       1.981   2.992  22.410  0.00  0.00    +0.000 OA
ATOM     35  H   UNL     1       0.160   3.065  19.844  0.00  0.00    +0.000 HD
ATOM     36  H   UNL     1       0.114   1.923  21.185  0.00  0.00    +0.000 HD
ENDBRANCH   5  32
TORSDOF 7
ENDMDL
MODEL 3
REMARK VINA RESULT:      -7.8      4.588      8.447
REMARK  Name = 
REMARK  9 active torsions:
REMARK  status: ('A' for Active; 'I' for Inactive)
REMARK    1  A    between atoms: C_1  and  N_2
REMARK    2  A    between atoms: N_2  and  C_3
REMARK    3  A    between atoms: C_3  and  C_4
REMARK    4  A    between atoms: C_4  and  C_5
REMARK    5  A    between atoms: C_8  and  N_9
REMARK    6  A    between atoms: C_13  and  C_14
REMARK    7  A    between atoms: N_18  and  C_19
REMARK    8  A    between atoms: C_22  and  O_23
REMARK    9  A    between atoms: O_23  and  C_24
REMARK                            x       y       z     vdW  Elec       q    Type
REMARK                         _______ _______ _______ _____ _____    ______ ____
ROOT
ATOM      1  N   UNL     1       1.012  11.253  19.104  0.00  0.00    +0.000 N 
ATOM      2  C   UNL     1       1.982  12.268  18.654  0.00  0.00    +0.000 C 
ATOM      3  C   UNL     1       2.560  13.068  19.813  0.00  0.00    +0.000 C 
ATOM      4  C   UNL     1       1.441  13.471  20.701  0.00  0.00    +0.000 A 
ATOM      5  C   UNL     1       1.420  14.415  21.740  0.00  0.00    +0.000 A 
ATOM      6  N   UNL     1       0.233  14.395  22.373  0.00  0.00    +0.000 NA
ATOM      7  N   UNL     1      -0.526  13.446  21.716  0.00  0.00    +0.000 N 
ATOM      8  C   UNL     1       0.217  12.822  20.725  0.00  0.00    +0.000 A 
ATOM      9  C   UNL     1      -0.037  11.597  19.985  0.00  0.00    +0.000 C 
ATOM     10  O   UNL     1      -0.986  10.850  20.204  0.00  0.00    +0.000 OA
ENDROOT
BRANCH   1  14
ATOM     11  C   UNL     1       2.185   7.204  18.689  0.00  0.00    +0.000 A 
ATOM     12  C   UNL     1       1.969   8.008  17.557  0.00  0.00    +0.000 A 
ATOM     13  C   UNL     1       1.551   9.336  17.680  0.00  0.00    +0.000 A 
ATOM     14  C   UNL     1       1.348   9.886  18.945  0.00  0.00    +0.000 A 
ATOM     15  C   UNL     1       1.472   9.074  20.074  0.00  0.00    +0.000 A 
ATOM     16  C   UNL     1       1.864   7.748  19.942  0.00  0.00    +0.000 A 
BRANCH  11  17
ATOM     17  C   UNL     1       2.963   5.895  18.596  0.00  0.00    +0.000 C 
ATOM     18  C   UNL     1       4.014   5.572  19.642  0.00  0.00    +0.000 C 
ATOM     19  C   UNL     1       4.446   5.937  18.255  0.00  0.00    +0.000 C 
BRANCH  17  20
ATOM     20  C   UNL     1       2.142   4.747  18.003  0.00  0.00    +0.000 C 
BRANCH  20  22
ATOM     21  C   UNL     1       1.098   2.700  18.764  0.00  0.00    +0.000 C 
ATOM     22  N   UNL     1       1.404   4.085  19.087  0.00  0.00    +0.000 NA
ATOM     23  H   UNL     1       1.991   4.094  19.923  0.00  0.00    +0.000 HD
ENDBRANCH  20  22
ENDBRANCH  17  20
ENDBRANCH  11  17
ENDBRANCH   1  14
BRANCH   7  24
ATOM     24  C   UNL     1      -1.883  13.232  22.126  0.00  0.00    +0.000 A 
ATOM     25  C   UNL     1      -2.966  13.677  21.362  0.00  0.00    +0.000 A 
ATOM     26  C   UNL     1      -4.281  13.423  21.773  0.00  0.00    +0.000 A 
ATOM     27  C   UNL     1      -4.544  12.739  22.957  0.00  0.00    +0.000 A 
ATOM     28  C   UNL     1      -3.474  12.322  23.747  0.00  0.00    +0.000 A 
ATOM     29  C   UNL     1      -2.151  12.576  23.340  0.00  0.00    +0.000 A 
BRANCH  27  30
ATOM     30  O   UNL     1      -5.870  12.604  23.255  0.00  0.00    +0.000 OA
ATOM     31  C   UNL     1      -6.776  12.628  22.161  0.00  0.00    +0.000 C 
ENDBRANCH  27  30
ENDBRANCH   7  24
BRANCH   5  32
ATOM     32  C   UNL     1       2.555  15.273  22.129  0.00  0.00    +0.000 C 
ATOM     33  N   UNL     1       2.517  16.551  21.660  0.00  0.00    +0.000 N 
ATOM     34  O   UNL     1       3.487  14.893  22.827  0.00  0.00    +0.000 OA
ATOM     35  H   UNL     1       1.732  16.852  21.098  0.00  0.00    +0.000 HD
ATOM     36  H   UNL     1       3.257  17.183  21.915  0.00  0.00    +0.000 HD
ENDBRANCH   5  32
TORSDOF 7
ENDMDL
MODEL 4
REMARK VINA RESULT:      -7.8      4.542      8.488
REMARK  Name = 
REMARK  9 active torsions:
REMARK  status: ('A' for Active; 'I' for Inactive)
REMARK    1  A    between atoms: C_1  and  N_2
REMARK    2  A    between atoms: N_2  and  C_3
REMARK    3  A    between atoms: C_3  and  C_4
REMARK    4  A    between atoms: C_4  and  C_5
REMARK    5  A    between atoms: C_8  and  N_9
REMARK    6  A    between atoms: C_13  and  C_14
REMARK    7  A    between atoms: N_18  and  C_19
REMARK    8  A    between atoms: C_22  and  O_23
REMARK    9  A    between atoms: O_23  and  C_24
REMARK                            x       y       z     vdW  Elec       q    Type
REMARK                         _______ _______ _______ _____ _____    ______ ____
ROOT
ATOM      1  N   UNL     1       0.917  10.568  18.715  0.00  0.00    +0.000 N 
ATOM      2  C   UNL     1       1.906  11.601  18.356  0.00  0.00    +0.000 C 
ATOM      3  C   UNL     1       1.976  12.718  19.387  0.00  0.00    +0.000 C 
ATOM      4  C   UNL     1       0.588  13.122  19.725  0.00  0.00    +0.000 A 
ATOM      5  C   UNL     1       0.131  14.256  20.416  0.00  0.00    +0.000 A 
ATOM      6  N   UNL     1      -1.199  14.185  20.611  0.00  0.00    +0.000 NA
ATOM      7  N   UNL     1      -1.604  13.007  20.017  0.00  0.00    +0.000 N 
ATOM      8  C   UNL     1      -0.514  12.307  19.520  0.00  0.00    +0.000 A 
ATOM      9  C   UNL     1      -0.398  10.925  19.085  0.00  0.00    +0.000 C 
ATOM     10  O   UNL     1      -1.305  10.102  19.173  0.00  0.00    +0.000 OA
ENDROOT
BRANCH   1  14
ATOM     11  C   UNL     1       2.185   6.621  19.588  0.00  0.00    +0.000 A 
ATOM     12  C   UNL     1       1.663   7.447  20.599  0.00  0.00    +0.000 A 
ATOM     13  C   UNL     1       1.271   8.761  20.330  0.00  0.00    +0.000 A 
ATOM     14  C   UNL     1       1.388   9.271  19.038  0.00  0.00    +0.000 A 
ATOM     15  C   UNL     1       1.987   8.492  18.045  0.00  0.00    +0.000 A 
ATOM     16  C   UNL     1       2.398   7.195  18.326  0.00  0.00    +0.000 A 
BRANCH  11  17
ATOM     17  C   UNL     1       2.285   5.110  19.772  0.00  0.00    +0.000 C 
ATOM     18  C   UNL     1       1.122   4.351  20.382  0.00  0.00    +0.000 C 
ATOM     19  C   UNL     1       2.376   4.538  21.180  0.00  0.00    +0.000 C 
BRANCH  17  20
ATOM     20  C   UNL     1       3.118   4.425  18.685  0.00  0.00    +0.000 C 
BRANCH  20  22
ATOM     21  C   UNL     1       2.641   2.246  17.745  0.00  0.00    +0.000 C 
ATOM     22  N   UNL     1       2.222   3.637  17.830  0.00  0.00    +0.000 NA
ATOM     23  H   UNL     1       1.287   3.662  18.240  0.00  0.00    +0.000 HD
ENDBRANCH  20  22
ENDBRANCH  17  20
ENDBRANCH  11  17
ENDBRANCH   1  14
BRANCH   7  24
ATOM     24  C   UNL     1      -2.998  12.674  20.004  0.00  0.00    +0.000 A 
ATOM     25  C   UNL     1      -3.631  12.179  18.862  0.00  0.00    +0.000 A 
ATOM     26  C   UNL     1      -4.988  11.831  18.891  0.00  0.00    +0.000 A 
ATOM     27  C   UNL     1      -5.743  11.986  20.050  0.00  0.00    +0.000 A 
ATOM     28  C   UNL     1      -5.134  12.514  21.188  0.00  0.00    +0.000 A 
ATOM     29  C   UNL     1      -3.771  12.866  21.163  0.00  0.00    +0.000 A 
BRANCH  27  30
ATOM     30  O   UNL     1      -7.062  11.652  19.921  0.00  0.00    +0.000 OA
ATOM     31  C   UNL     1      -7.435  10.350  20.352  0.00  0.00    +0.000 C 
ENDBRANCH  27  30
ENDBRANCH   7  24
BRANCH   5  32
ATOM     32  C   UNL     1       0.988  15.348  20.913  0.00  0.00    +0.000 C 
ATOM     33  N   UNL     1       1.138  15.412  22.265  0.00  0.00    +0.000 N 
ATOM     34  O   UNL     1       1.544  16.162  20.186  0.00  0.00    +0.000 OA
ATOM     35  H   UNL     1       0.684  14.722  22.849  0.00  0.00    +0.000 HD
ATOM     36  H   UNL     1       1.730  16.126  22.654  0.00  0.00    +0.000 HD
ENDBRANCH   5  32
TORSDOF 7
ENDMDL
MODEL 5
REMARK VINA RESULT:      -7.8      4.782      8.744
REMARK  Name = 
REMARK  9 active torsions:
REMARK  status: ('A' for Active; 'I' for Inactive)
REMARK    1  A    between atoms: C_1  and  N_2
REMARK    2  A    between atoms: N_2  and  C_3
REMARK    3  A    between atoms: C_3  and  C_4
REMARK    4  A    between atoms: C_4  and  C_5
REMARK    5  A    between atoms: C_8  and  N_9
REMARK    6  A    between atoms: C_13  and  C_14
REMARK    7  A    between atoms: N_18  and  C_19
REMARK    8  A    between atoms: C_22  and  O_23
REMARK    9  A    between atoms: O_23  and  C_24
REMARK                            x       y       z     vdW  Elec       q    Type
REMARK                         _______ _______ _______ _____ _____    ______ ____
ROOT
ATOM      1  N   UNL     1       0.803  10.927  18.882  0.00  0.00    +0.000 N 
ATOM      2  C   UNL     1       1.765  12.029  18.697  0.00  0.00    +0.000 C 
ATOM      3  C   UNL     1       1.757  13.005  19.864  0.00  0.00    +0.000 C 
ATOM      4  C   UNL     1       0.344  13.318  20.196  0.00  0.00    +0.000 A 
ATOM      5  C   UNL     1      -0.177  14.338  21.007  0.00  0.00    +0.000 A 
ATOM      6  N   UNL     1      -1.510  14.200  21.140  0.00  0.00    +0.000 NA
ATOM      7  N   UNL     1      -1.850  13.096  20.384  0.00  0.00    +0.000 N 
ATOM      8  C   UNL     1      -0.718  12.501  19.845  0.00  0.00    +0.000 A 
ATOM      9  C   UNL     1      -0.536  11.191  19.243  0.00  0.00    +0.000 C 
ATOM     10  O   UNL     1      -1.415  10.335  19.189  0.00  0.00    +0.000 OA
ENDROOT
BRANCH   1  14
ATOM     11  C   UNL     1       2.177   6.942  19.305  0.00  0.00    +0.000 A 
ATOM     12  C   UNL     1       1.672   7.648  20.411  0.00  0.00    +0.000 A 
ATOM     13  C   UNL     1       1.246   8.973  20.291  0.00  0.00    +0.000 A 
ATOM     14  C   UNL     1       1.310   9.615  19.055  0.00  0.00    +0.000 A 
ATOM     15  C   UNL     1       1.891   8.956  17.970  0.00  0.00    +0.000 A 
ATOM     16  C   UNL     1       2.337   7.647  18.103  0.00  0.00    +0.000 A 
BRANCH  11  17
ATOM     17  C   UNL     1       2.313   5.423  19.329  0.00  0.00    +0.000 C 
ATOM     18  C   UNL     1       3.656   4.786  19.025  0.00  0.00    +0.000 C 
ATOM     19  C   UNL     1       2.548   4.678  18.022  0.00  0.00    +0.000 C 
BRANCH  17  20
ATOM     20  C   UNL     1       1.401   4.752  20.360  0.00  0.00    +0.000 C 
BRANCH  20  22
ATOM     21  C   UNL     1       1.845   2.741  21.631  0.00  0.00    +0.000 C 
ATOM     22  N   UNL     1       2.236   4.121  21.390  0.00  0.00    +0.000 NA
ATOM     23  H   UNL     1       3.203   4.123  21.061  0.00  0.00    +0.000 HD
ENDBRANCH  20  22
ENDBRANCH  17  20
ENDBRANCH  11  17
ENDBRANCH   1  14
BRANCH   7  24
ATOM     24  C   UNL     1      -3.230  12.723  20.275  0.00  0.00    +0.000 A 
ATOM     25  C   UNL     1      -3.780  12.266  19.074  0.00  0.00    +0.000 A 
ATOM     26  C   UNL     1      -5.124  11.878  19.008  0.00  0.00    +0.000 A 
ATOM     27  C   UNL     1      -5.949  11.952  20.127  0.00  0.00    +0.000 A 
ATOM     28  C   UNL     1      -5.423  12.441  21.322  0.00  0.00    +0.000 A 
ATOM     29  C   UNL     1      -4.074  12.834  21.394  0.00  0.00    +0.000 A 
BRANCH  27  30
ATOM     30  O   UNL     1      -7.247  11.585  19.905  0.00  0.00    +0.000 OA
ATOM     31  C   UNL     1      -7.725  10.460  20.628  0.00  0.00    +0.000 C 
ENDBRANCH  27  30
ENDBRANCH   7  24
BRANCH   5  32
ATOM     32  C   UNL     1       0.620  15.384  21.673  0.00  0.00    +0.000 C 
ATOM     33  N   UNL     1       0.901  16.482  20.919  0.00  0.00    +0.000 N 
ATOM     34  O   UNL     1       1.021  15.303  22.828  0.00  0.00    +0.000 OA
ATOM     35  H   UNL     1       0.550  16.539  19.972  0.00  0.00    +0.000 HD
ATOM     36  H   UNL     1       1.425  17.235  21.334  0.00  0.00    +0.000 HD
ENDBRANCH   5  32
TORSDOF 7
ENDMDL
MODEL 6
REMARK VINA RESULT:      -7.8      2.265      8.706
REMARK  Name = 
REMARK  9 active torsions:
REMARK  status: ('A' for Active; 'I' for Inactive)
REMARK    1  A    between atoms: C_1  and  N_2
REMARK    2  A    between atoms: N_2  and  C_3
REMARK    3  A    between atoms: C_3  and  C_4
REMARK    4  A    between atoms: C_4  and  C_5
REMARK    5  A    between atoms: C_8  and  N_9
REMARK    6  A    between atoms: C_13  and  C_14
REMARK    7  A    between atoms: N_18  and  C_19
REMARK    8  A    between atoms: C_22  and  O_23
REMARK    9  A    between atoms: O_23  and  C_24
REMARK                            x       y       z     vdW  Elec       q    Type
REMARK                         _______ _______ _______ _____ _____    ______ ____
ROOT
ATOM      1  N   UNL     1       1.865   6.353  19.158  0.00  0.00    +0.000 N 
ATOM      2  C   UNL     1       1.141   5.275  19.857  0.00  0.00    +0.000 C 
ATOM      3  C   UNL     1       2.073   4.377  20.658  0.00  0.00    +0.000 C 
ATOM      4  C   UNL     1       3.237   4.038  19.801  0.00  0.00    +0.000 A 
ATOM      5  C   UNL     1       4.223   3.055  19.982  0.00  0.00    +0.000 A 
ATOM      6  N   UNL     1       5.169   3.155  19.030  0.00  0.00    +0.000 NA
ATOM      7  N   UNL     1       4.773   4.195  18.214  0.00  0.00    +0.000 N 
ATOM      8  C   UNL     1       3.620   4.793  18.704  0.00  0.00    +0.000 A 
ATOM      9  C   UNL     1       3.003   6.067  18.373  0.00  0.00    +0.000 C 
ATOM     10  O   UNL     1       3.497   6.886  17.603  0.00  0.00    +0.000 OA
ENDROOT
BRANCH   1  14
ATOM     11  C   UNL     1       1.013  10.307  20.416  0.00  0.00    +0.000 A 
ATOM     12  C   UNL     1       1.285  10.027  19.066  0.00  0.00    +0.000 A 
ATOM     13  C   UNL     1       1.599   8.732  18.644  0.00  0.00    +0.000 A 
ATOM     14  C   UNL     1       1.638   7.690  19.569  0.00  0.00    +0.000 A 
ATOM     15  C   UNL     1       1.457   7.969  20.925  0.00  0.00    +0.000 A 
ATOM     16  C   UNL     1       1.171   9.264  21.340  0.00  0.00    +0.000 A 
BRANCH  11  17
ATOM     17  C   UNL     1       0.337  11.609  20.834  0.00  0.00    +0.000 C 
ATOM     18  C   UNL     1      -0.454  11.661  22.128  0.00  0.00    +0.000 C 
ATOM     19  C   UNL     1      -1.183  11.694  20.820  0.00  0.00    +0.000 C 
BRANCH  17  20
ATOM     20  C   UNL     1       1.110  12.857  20.398  0.00  0.00    +0.000 C 
BRANCH  20  22
ATOM     21  C   UNL     1       3.169  14.056  20.828  0.00  0.00    +0.000 C 
ATOM     22  N   UNL     1       2.219  13.077  21.336  0.00  0.00    +0.000 NA
ATOM     23  H   UNL     1       1.831  13.435  22.210  0.00  0.00    +0.000 HD
ENDBRANCH  20  22
ENDBRANCH  17  20
ENDBRANCH  11  17
ENDBRANCH   1  14
BRANCH   7  24
ATOM     24  C   UNL     1       5.556   4.513  17.056  0.00  0.00    +0.000 A 
ATOM     25  C   UNL     1       5.232   4.026  15.787  0.00  0.00    +0.000 A 
ATOM     26  C   UNL     1       5.998   4.380  14.670  0.00  0.00    +0.000 A 
ATOM     27  C   UNL     1       7.109   5.211  14.796  0.00  0.00    +0.000 A 
ATOM     28  C   UNL     1       7.466   5.674  16.061  0.00  0.00    +0.000 A 
ATOM     29  C   UNL     1       6.700   5.319  17.187  0.00  0.00    +0.000 A 
BRANCH  27  30
ATOM     30  O   UNL     1       7.789   5.435  13.631  0.00  0.00    +0.000 OA
ATOM     31  C   UNL     1       7.390   4.669  12.503  0.00  0.00    +0.000 C 
ENDBRANCH  27  30
ENDBRANCH   7  24
BRANCH   5  32
ATOM     32  C   UNL     1       4.258   2.084  21.090  0.00  0.00    +0.000 C 
ATOM     33  N   UNL     1       5.363   1.289  21.145  0.00  0.00    +0.000 N 
ATOM     34  O   UNL     1       3.369   1.971  21.926  0.00  0.00    +0.000 OA
ATOM     35  H   UNL     1       6.094   1.406  20.457  0.00  0.00    +0.000 HD
ATOM     36  H   UNL     1       5.445   0.624  21.895  0.00  0.00    +0.000 HD
ENDBRANCH   5  32
TORSDOF 7
ENDMDL
MODEL 7
REMARK VINA RESULT:      -7.8      4.182      8.146
REMARK  Name = 
REMARK  9 active torsions:
REMARK  status: ('A' for Active; 'I' for Inactive)
REMARK    1  A    between atoms: C_1  and  N_2
REMARK    2  A    between atoms: N_2  and  C_3
REMARK    3  A    between atoms: C_3  and  C_4
REMARK    4  A    between atoms: C_4  and  C_5
REMARK    5  A    between atoms: C_8  and  N_9
REMARK    6  A    between atoms: C_13  and  C_14
REMARK    7  A    between atoms: N_18  and  C_19
REMARK    8  A    between atoms: C_22  and  O_23
REMARK    9  A    between atoms: O_23  and  C_24
REMARK                            x       y       z     vdW  Elec       q    Type
REMARK                         _______ _______ _______ _____ _____    ______ ____
ROOT
ATOM      1  N   UNL     1       1.140  10.270  18.784  0.00  0.00    +0.000 N 
ATOM      2  C   UNL     1       1.932  11.161  17.916  0.00  0.00    +0.000 C 
ATOM      3  C   UNL     1       2.562  12.311  18.689  0.00  0.00    +0.000 C 
ATOM      4  C   UNL     1       1.527  12.891  19.582  0.00  0.00    +0.000 A 
ATOM      5  C   UNL     1       1.537  14.102  20.291  0.00  0.00    +0.000 A 
ATOM      6  N   UNL     1       0.448  14.197  21.077  0.00  0.00    +0.000 NA
ATOM      7  N   UNL     1      -0.281  13.048  20.849  0.00  0.00    +0.000 N 
ATOM      8  C   UNL     1       0.393  12.201  19.980  0.00  0.00    +0.000 A 
ATOM      9  C   UNL     1       0.181  10.796  19.676  0.00  0.00    +0.000 C 
ATOM     10  O   UNL     1      -0.647  10.091  20.246  0.00  0.00    +0.000 OA
ENDROOT
BRANCH   1  14
ATOM     11  C   UNL     1       2.361   6.245  19.285  0.00  0.00    +0.000 A 
ATOM     12  C   UNL     1       1.944   7.011  20.388  0.00  0.00    +0.000 A 
ATOM     13  C   UNL     1       1.570   8.349  20.240  0.00  0.00    +0.000 A 
ATOM     14  C   UNL     1       1.599   8.944  18.979  0.00  0.00    +0.000 A 
ATOM     15  C   UNL     1       2.094   8.222  17.892  0.00  0.00    +0.000 A 
ATOM     16  C   UNL     1       2.489   6.899  18.051  0.00  0.00    +0.000 A 
BRANCH  11  17
ATOM     17  C   UNL     1       2.432   4.723  19.359  0.00  0.00    +0.000 C 
ATOM     18  C   UNL     1       1.539   3.886  18.462  0.00  0.00    +0.000 C 
ATOM     19  C   UNL     1       1.252   3.951  19.931  0.00  0.00    +0.000 C 
BRANCH  17  20
ATOM     20  C   UNL     1       3.834   4.201  19.688  0.00  0.00    +0.000 C 
BRANCH  20  22
ATOM     21  C   UNL     1       5.432   4.507  17.897  0.00  0.00    +0.000 C 
ATOM     22  N   UNL     1       4.423   3.629  18.471  0.00  0.00    +0.000 NA
ATOM     23  H   UNL     1       4.875   2.748  18.719  0.00  0.00    +0.000 HD
ENDBRANCH  20  22
ENDBRANCH  17  20
ENDBRANCH  11  17
ENDBRANCH   1  14
BRANCH   7  24
ATOM     24  C   UNL     1      -1.545  12.881  21.505  0.00  0.00    +0.000 A 
ATOM     25  C   UNL     1      -1.644  12.367  22.801  0.00  0.00    +0.000 A 
ATOM     26  C   UNL     1      -2.891  12.247  23.428  0.00  0.00    +0.000 A 
ATOM     27  C   UNL     1      -4.062  12.619  22.772  0.00  0.00    +0.000 A 
ATOM     28  C   UNL     1      -3.982  13.098  21.465  0.00  0.00    +0.000 A 
ATOM     29  C   UNL     1      -2.732  13.219  20.831  0.00  0.00    +0.000 A 
BRANCH  27  30
ATOM     30  O   UNL     1      -5.207  12.404  23.486  0.00  0.00    +0.000 OA
ATOM     31  C   UNL     1      -6.404  12.954  22.953  0.00  0.00    +0.000 C 
ENDBRANCH  27  30
ENDBRANCH   7  24
BRANCH   5  32
ATOM     32  C   UNL     1       2.613  15.108  20.236  0.00  0.00    +0.000 C 
ATOM     33  N   UNL     1       2.441  16.108  19.328  0.00  0.00    +0.000 N 
ATOM     34  O   UNL     1       3.611  15.078  20.946  0.00  0.00    +0.000 OA
ATOM     35  H   UNL     1       1.604  16.126  18.761  0.00  0.00    +0.000 HD
ATOM     36  H   UNL     1       3.137  16.832  19.266  0.00  0.00    +0.000 HD
ENDBRANCH   5  32
TORSDOF 7
ENDMDL
MODEL 8
REMARK VINA RESULT:      -7.8      4.520      8.257
REMARK  Name = 
REMARK  9 active torsions:
REMARK  status: ('A' for Active; 'I' for Inactive)
REMARK    1  A    between atoms: C_1  and  N_2
REMARK    2  A    between atoms: N_2  and  C_3
REMARK    3  A    between atoms: C_3  and  C_4
REMARK    4  A    between atoms: C_4  and  C_5
REMARK    5  A    between atoms: C_8  and  N_9
REMARK    6  A    between atoms: C_13  and  C_14
REMARK    7  A    between atoms: N_18  and  C_19
REMARK    8  A    between atoms: C_22  and  O_23
REMARK    9  A    between atoms: O_23  and  C_24
REMARK                            x       y       z     vdW  Elec       q    Type
REMARK                         _______ _______ _______ _____ _____    ______ ____
ROOT
ATOM      1  N   UNL     1       1.095  10.175  18.685  0.00  0.00    +0.000 N 
ATOM      2  C   UNL     1       1.940  11.023  17.823  0.00  0.00    +0.000 C 
ATOM      3  C   UNL     1       2.465  12.249  18.556  0.00  0.00    +0.000 C 
ATOM      4  C   UNL     1       1.338  12.861  19.302  0.00  0.00    +0.000 A 
ATOM      5  C   UNL     1       1.250  14.123  19.911  0.00  0.00    +0.000 A 
ATOM      6  N   UNL     1       0.091  14.242  20.585  0.00  0.00    +0.000 NA
ATOM      7  N   UNL     1      -0.584  13.054  20.384  0.00  0.00    +0.000 N 
ATOM      8  C   UNL     1       0.190  12.167  19.651  0.00  0.00    +0.000 A 
ATOM      9  C   UNL     1       0.044  10.736  19.442  0.00  0.00    +0.000 C 
ATOM     10  O   UNL     1      -0.814  10.049  19.990  0.00  0.00    +0.000 OA
ENDROOT
BRANCH   1  14
ATOM     11  C   UNL     1       2.369   6.244  19.619  0.00  0.00    +0.000 A 
ATOM     12  C   UNL     1       1.857   7.089  20.619  0.00  0.00    +0.000 A 
ATOM     13  C   UNL     1       1.463   8.398  20.329  0.00  0.00    +0.000 A 
ATOM     14  C   UNL     1       1.569   8.884  19.027  0.00  0.00    +0.000 A 
ATOM     15  C   UNL     1       2.157   8.087  18.043  0.00  0.00    +0.000 A 
ATOM     16  C   UNL     1       2.570   6.794  18.344  0.00  0.00    +0.000 A 
BRANCH  11  17
ATOM     17  C   UNL     1       2.470   4.737  19.829  0.00  0.00    +0.000 C 
ATOM     18  C   UNL     1       1.222   3.941  20.166  0.00  0.00    +0.000 C 
ATOM     19  C   UNL     1       2.257   4.166  21.225  0.00  0.00    +0.000 C 
BRANCH  17  20
ATOM     20  C   UNL     1       3.546   4.078  18.963  0.00  0.00    +0.000 C 
BRANCH  20  22
ATOM     21  C   UNL     1       3.374   1.777  18.232  0.00  0.00    +0.000 C 
ATOM     22  N   UNL     1       2.899   3.138  18.038  0.00  0.00    +0.000 NA
ATOM     23  H   UNL     1       1.895   3.153  18.222  0.00  0.00    +0.000 HD
ENDBRANCH  20  22
ENDBRANCH  17  20
ENDBRANCH  11  17
ENDBRANCH   1  14
BRANCH   7  24
ATOM     24  C   UNL     1      -1.898  12.896  20.936  0.00  0.00    +0.000 A 
ATOM     25  C   UNL     1      -2.112  12.741  22.308  0.00  0.00    +0.000 A 
ATOM     26  C   UNL     1      -3.410  12.622  22.819  0.00  0.00    +0.000 A 
ATOM     27  C   UNL     1      -4.518  12.638  21.975  0.00  0.00    +0.000 A 
ATOM     28  C   UNL     1      -4.318  12.754  20.600  0.00  0.00    +0.000 A 
ATOM     29  C   UNL     1      -3.015  12.873  20.081  0.00  0.00    +0.000 A 
BRANCH  27  30
ATOM     30  O   UNL     1      -5.718  12.465  22.606  0.00  0.00    +0.000 OA
ATOM     31  C   UNL     1      -6.885  12.624  21.811  0.00  0.00    +0.000 C 
ENDBRANCH  27  30
ENDBRANCH   7  24
BRANCH   5  32
ATOM     32  C   UNL     1       2.299  15.158  19.872  0.00  0.00    +0.000 C 
ATOM     33  N   UNL     1       3.261  15.059  20.831  0.00  0.00    +0.000 N 
ATOM     34  O   UNL     1       2.335  16.061  19.045  0.00  0.00    +0.000 OA
ATOM     35  H   UNL     1       3.225  14.298  21.496  0.00  0.00    +0.000 HD
ATOM     36  H   UNL     1       4.012  15.729  20.835  0.00  0.00    +0.000 HD
ENDBRANCH   5  32
TORSDOF 7
ENDMDL
MODEL 9
REMARK VINA RESULT:      -7.7      4.485      8.207
REMARK  Name = 
REMARK  9 active torsions:
REMARK  status: ('A' for Active; 'I' for Inactive)
REMARK    1  A    between atoms: C_1  and  N_2
REMARK    2  A    between atoms: N_2  and  C_3
REMARK    3  A    between atoms: C_3  and  C_4
REMARK    4  A    between atoms: C_4  and  C_5
REMARK    5  A    between atoms: C_8  and  N_9
REMARK    6  A    between atoms: C_13  and  C_14
REMARK    7  A    between atoms: N_18  and  C_19
REMARK    8  A    between atoms: C_22  and  O_23
REMARK    9  A    between atoms: O_23  and  C_24
REMARK                            x       y       z     vdW  Elec       q    Type
REMARK                         _______ _______ _______ _____ _____    ______ ____
ROOT
ATOM      1  N   UNL     1       1.078  10.126  18.754  0.00  0.00    +0.000 N 
ATOM      2  C   UNL     1       1.879  10.944  17.824  0.00  0.00    +0.000 C 
ATOM      3  C   UNL     1       2.466  12.176  18.498  0.00  0.00    +0.000 C 
ATOM      4  C   UNL     1       1.395  12.820  19.300  0.00  0.00    +0.000 A 
ATOM      5  C   UNL     1       1.363  14.095  19.887  0.00  0.00    +0.000 A 
ATOM      6  N   UNL     1       0.249  14.244  20.628  0.00  0.00    +0.000 NA
ATOM      7  N   UNL     1      -0.453  13.063  20.494  0.00  0.00    +0.000 N 
ATOM      8  C   UNL     1       0.261  12.150  19.732  0.00  0.00    +0.000 A 
ATOM      9  C   UNL     1       0.083  10.718  19.562  0.00  0.00    +0.000 C 
ATOM     10  O   UNL     1      -0.749  10.055  20.175  0.00  0.00    +0.000 OA
ENDROOT
BRANCH   1  14
ATOM     11  C   UNL     1       2.356   6.195  19.679  0.00  0.00    +0.000 A 
ATOM     12  C   UNL     1       1.863   7.045  20.685  0.00  0.00    +0.000 A 
ATOM     13  C   UNL     1       1.468   8.354  20.397  0.00  0.00    +0.000 A 
ATOM     14  C   UNL     1       1.553   8.835  19.092  0.00  0.00    +0.000 A 
ATOM     15  C   UNL     1       2.123   8.033  18.101  0.00  0.00    +0.000 A 
ATOM     16  C   UNL     1       2.537   6.740  18.399  0.00  0.00    +0.000 A 
BRANCH  11  17
ATOM     17  C   UNL     1       2.456   4.688  19.893  0.00  0.00    +0.000 C 
ATOM     18  C   UNL     1       1.203   3.890  20.203  0.00  0.00    +0.000 C 
ATOM     19  C   UNL     1       2.215   4.118  21.284  0.00  0.00    +0.000 C 
BRANCH  17  20
ATOM     20  C   UNL     1       3.553   4.031  19.051  0.00  0.00    +0.000 C 
BRANCH  20  22
ATOM     21  C   UNL     1       3.429   1.803  18.113  0.00  0.00    +0.000 C 
ATOM     22  N   UNL     1       2.922   3.165  18.046  0.00  0.00    +0.000 NA
ATOM     23  H   UNL     1       1.919   3.140  18.233  0.00  0.00    +0.000 HD
ENDBRANCH  20  22
ENDBRANCH  17  20
ENDBRANCH  11  17
ENDBRANCH   1  14
BRANCH   7  24
ATOM     24  C   UNL     1      -1.733  12.936  21.128  0.00  0.00    +0.000 A 
ATOM     25  C   UNL     1      -2.928  13.099  20.422  0.00  0.00    +0.000 A 
ATOM     26  C   UNL     1      -4.163  12.935  21.063  0.00  0.00    +0.000 A 
ATOM     27  C   UNL     1      -4.232  12.624  22.418  0.00  0.00    +0.000 A 
ATOM     28  C   UNL     1      -3.048  12.495  23.143  0.00  0.00    +0.000 A 
ATOM     29  C   UNL     1      -1.805  12.660  22.505  0.00  0.00    +0.000 A 
BRANCH  27  30
ATOM     30  O   UNL     1      -5.501  12.540  22.920  0.00  0.00    +0.000 OA
ATOM     31  C   UNL     1      -6.417  13.546  22.509  0.00  0.00    +0.000 C 
ENDBRANCH  27  30
ENDBRANCH   7  24
BRANCH   5  32
ATOM     32  C   UNL     1       2.422  15.112  19.763  0.00  0.00    +0.000 C 
ATOM     33  N   UNL     1       2.239  16.039  18.782  0.00  0.00    +0.000 N 
ATOM     34  O   UNL     1       3.416  15.152  20.478  0.00  0.00    +0.000 OA
ATOM     35  H   UNL     1       1.405  16.001  18.211  0.00  0.00    +0.000 HD
ATOM     36  H   UNL     1       2.923  16.769  18.670  0.00  0.00    +0.000 HD
ENDBRANCH   5  32
TORSDOF 7
ENDMDL
