MODEL 1
REMARK VINA RESULT:      -7.1      0.000      0.000
REMARK  Name = 
REMARK  5 active torsions:
REMARK  status: ('A' for Active; 'I' for Inactive)
REMARK    1  A    between atoms: C_3  and  N_4
REMARK    2  A    between atoms: C_9  and  N_10
REMARK    3  A    between atoms: N_10  and  C_11
REMARK    4  A    between atoms: C_11  and  C_12
REMARK    5  A    between atoms: C_15  and  C_16
REMARK                            x       y       z     vdW  Elec       q    Type
REMARK                         _______ _______ _______ _____ _____    ______ ____
ROOT
ATOM      1  C   UNL     1       6.472   4.746  14.297  0.00  0.00    +0.000 A 
ATOM      2  C   UNL     1       5.377   4.125  14.868  0.00  0.00    +0.000 A 
ATOM      3  C   UNL     1       5.340   3.938  16.272  0.00  0.00    +0.000 A 
ATOM      4  C   UNL     1       6.444   4.349  17.064  0.00  0.00    +0.000 A 
ATOM      5  C   UNL     1       7.446   5.028  16.346  0.00  0.00    +0.000 A 
ATOM      6  N   UNL     1       7.496   5.214  15.004  0.00  0.00    +0.000 NA
ENDROOT
BRANCH   3   7
ATOM      7  N   UNL     1       4.179   3.308  16.811  0.00  0.00    +0.000 N 
ATOM      8  C   UNL     1       4.111   2.201  17.636  0.00  0.00    +0.000 A 
ATOM      9  C   UNL     1       2.779   2.043  17.915  0.00  0.00    +0.000 A 
ATOM     10  N   UNL     1       2.066   2.992  17.263  0.00  0.00    +0.000 NA
ATOM     11  N   UNL     1       2.918   3.760  16.595  0.00  0.00    +0.000 NA
ENDBRANCH   3   7
BRANCH   4  12
ATOM     12  N   UNL     1       6.518   4.226  18.467  0.00  0.00    +0.000 N 
ATOM     13  H   UNL     1       7.437   3.893  18.772  0.00  0.00    +0.000 HD
BRANCH  12  14
ATOM     14  C   UNL     1       6.002   5.346  19.285  0.00  0.00    +0.000 C 
BRANCH  14  15
ATOM     15  C   UNL     1       4.526   5.456  19.435  0.00  0.00    +0.000 A 
ATOM     16  C   UNL     1       3.568   6.280  18.899  0.00  0.00    +0.000 A 
ATOM     17  N   UNL     1       2.335   5.969  19.414  0.00  0.00    +0.000 NA
ATOM     18  C   UNL     1       2.567   4.985  20.261  0.00  0.00    +0.000 A 
ATOM     19  O   UNL     1       3.896   4.631  20.344  0.00  0.00    +0.000 OA
BRANCH  18  20
ATOM     20  C   UNL     1       1.407   4.301  20.981  0.00  0.00    +0.000 C 
ATOM     21  C   UNL     1       0.698   3.167  20.270  0.00  0.00    +0.000 C 
ATOM     22  C   UNL     1       1.485   2.884  21.503  0.00  0.00    +0.000 C 
ENDBRANCH  18  20
ENDBRANCH  14  15
ENDBRANCH  12  14
ENDBRANCH   4  12
TORSDOF 5
ENDMDL
MODEL 2
REMARK VINA RESULT:      -7.0      2.217      5.916
REMARK  Name = 
REMARK  5 active torsions:
REMARK  status: ('A' for Active; 'I' for Inactive)
REMARK    1  A    between atoms: C_3  and  N_4
REMARK    2  A    between atoms: C_9  and  N_10
REMARK    3  A    between atoms: N_10  and  C_11
REMARK    4  A    between atoms: C_11  and  C_12
REMARK    5  A    between atoms: C_15  and  C_16
REMARK                            x       y       z     vdW  Elec       q    Type
REMARK                         _______ _______ _______ _____ _____    ______ ____
ROOT
ATOM      1  C   UNL     1       2.321   7.816  19.014  0.00  0.00    +0.000 A 
ATOM      2  C   UNL     1       2.142   6.678  19.777  0.00  0.00    +0.000 A 
ATOM      3  C   UNL     1       2.688   5.450  19.331  0.00  0.00    +0.000 A 
ATOM      4  C   UNL     1       3.372   5.398  18.088  0.00  0.00    +0.000 A 
ATOM      5  C   UNL     1       3.534   6.651  17.467  0.00  0.00    +0.000 A 
ATOM      6  N   UNL     1       3.017   7.832  17.881  0.00  0.00    +0.000 NA
ENDROOT
BRANCH   3   7
ATOM      7  N   UNL     1       2.489   4.311  20.166  0.00  0.00    +0.000 N 
ATOM      8  C   UNL     1       1.356   3.958  20.875  0.00  0.00    +0.000 A 
ATOM      9  C   UNL     1       1.659   2.756  21.459  0.00  0.00    +0.000 A 
ATOM     10  N   UNL     1       2.931   2.411  21.146  0.00  0.00    +0.000 NA
ATOM     11  N   UNL     1       3.432   3.355  20.359  0.00  0.00    +0.000 NA
ENDBRANCH   3   7
BRANCH   4  12
ATOM     12  N   UNL     1       3.968   4.240  17.545  0.00  0.00    +0.000 N 
ATOM     13  H   UNL     1       3.535   3.971  16.657  0.00  0.00    +0.000 HD
BRANCH  12  14
ATOM     14  C   UNL     1       5.446   4.172  17.519  0.00  0.00    +0.000 C 
BRANCH  14  15
ATOM     15  C   UNL     1       6.116   4.442  16.218  0.00  0.00    +0.000 A 
ATOM     16  C   UNL     1       7.239   5.138  15.847  0.00  0.00    +0.000 A 
ATOM     17  N   UNL     1       7.388   5.101  14.483  0.00  0.00    +0.000 NA
ATOM     18  C   UNL     1       6.351   4.407  14.054  0.00  0.00    +0.000 A 
ATOM     19  O   UNL     1       5.512   3.989  15.063  0.00  0.00    +0.000 OA
BRANCH  18  20
ATOM     20  C   UNL     1       6.211   4.073  12.571  0.00  0.00    +0.000 C 
ATOM     21  C   UNL     1       6.278   2.616  12.160  0.00  0.00    +0.000 C 
ATOM     22  C   UNL     1       5.002   3.369  11.998  0.00  0.00    +0.000 C 
ENDBRANCH  18  20
ENDBRANCH  14  15
ENDBRANCH  12  14
ENDBRANCH   4  12
TORSDOF 5
ENDMDL
MODEL 3
REMARK VINA RESULT:      -6.9      3.295      3.909
REMARK  Name = 
REMARK  5 active torsions:
REMARK  status: ('A' for Active; 'I' for Inactive)
REMARK    1  A    between atoms: C_3  and  N_4
REMARK    2  A    between atoms: C_9  and  N_10
REMARK    3  A    between atoms: N_10  and  C_11
REMARK    4  A    between atoms: C_11  and  C_12
REMARK    5  A    between atoms: C_15  and  C_16
REMARK                            x       y       z     vdW  Elec       q    Type
REMARK                         _______ _______ _______ _____ _____    ______ ____
ROOT
ATOM      1  C   UNL     1       5.742   4.811  15.728  0.00  0.00    +0.000 A 
ATOM      2  C   UNL     1       4.808   4.048  16.403  0.00  0.00    +0.000 A 
ATOM      3  C   UNL     1       3.921   4.679  17.309  0.00  0.00    +0.000 A 
ATOM      4  C   UNL     1       4.033   6.074  17.544  0.00  0.00    +0.000 A 
ATOM      5  C   UNL     1       4.981   6.721  16.729  0.00  0.00    +0.000 A 
ATOM      6  N   UNL     1       5.837   6.131  15.859  0.00  0.00    +0.000 NA
ENDROOT
BRANCH   3   7
ATOM      7  N   UNL     1       2.965   3.847  17.964  0.00  0.00    +0.000 N 
ATOM      8  C   UNL     1       3.076   3.220  19.192  0.00  0.00    +0.000 A 
ATOM      9  C   UNL     1       1.870   2.600  19.387  0.00  0.00    +0.000 A 
ATOM     10  N   UNL     1       1.074   2.813  18.312  0.00  0.00    +0.000 NA
ATOM     11  N   UNL     1       1.740   3.571  17.450  0.00  0.00    +0.000 NA
ENDBRANCH   3   7
BRANCH   4  12
ATOM     12  N   UNL     1       3.202   6.814  18.411  0.00  0.00    +0.000 N 
ATOM     13  H   UNL     1       3.585   6.855  19.360  0.00  0.00    +0.000 HD
BRANCH  12  14
ATOM     14  C   UNL     1       2.688   8.115  17.931  0.00  0.00    +0.000 C 
BRANCH  14  15
ATOM     15  C   UNL     1       1.700   8.817  18.795  0.00  0.00    +0.000 A 
ATOM     16  C   UNL     1       0.975   9.976  18.672  0.00  0.00    +0.000 A 
ATOM     17  N   UNL     1       0.224  10.185  19.802  0.00  0.00    +0.000 NA
ATOM     18  C   UNL     1       0.520   9.169  20.590  0.00  0.00    +0.000 A 
ATOM     19  O   UNL     1       1.439   8.299  20.047  0.00  0.00    +0.000 OA
BRANCH  18  20
ATOM     20  C   UNL     1      -0.194   9.003  21.929  0.00  0.00    +0.000 C 
ATOM     21  C   UNL     1       0.551   9.398  23.188  0.00  0.00    +0.000 C 
ATOM     22  C   UNL     1      -0.649  10.175  22.769  0.00  0.00    +0.000 C 
ENDBRANCH  18  20
ENDBRANCH  14  15
ENDBRANCH  12  14
ENDBRANCH   4  12
TORSDOF 5
ENDMDL
MODEL 4
REMARK VINA RESULT:      -6.8      3.325      5.413
REMARK  Name = 
REMARK  5 active torsions:
REMARK  status: ('A' for Active; 'I' for Inactive)
REMARK    1  A    between atoms: C_3  and  N_4
REMARK    2  A    between atoms: C_9  and  N_10
REMARK    3  A    between atoms: N_10  and  C_11
REMARK    4  A    between atoms: C_11  and  C_12
REMARK    5  A    between atoms: C_15  and  C_16
REMARK                            x       y       z     vdW  Elec       q    Type
REMARK                         _______ _______ _______ _____ _____    ______ ____
ROOT
ATOM      1  C   UNL     1       1.555   2.062  18.571  0.00  0.00    +0.000 A 
ATOM      2  C   UNL     1       2.832   2.442  18.202  0.00  0.00    +0.000 A 
ATOM      3  C   UNL     1       3.371   3.649  18.712  0.00  0.00    +0.000 A 
ATOM      4  C   UNL     1       2.578   4.469  19.557  0.00  0.00    +0.000 A 
ATOM      5  C   UNL     1       1.332   3.910  19.897  0.00  0.00    +0.000 A 
ATOM      6  N   UNL     1       0.803   2.759  19.417  0.00  0.00    +0.000 NA
ENDROOT
BRANCH   3   7
ATOM      7  N   UNL     1       4.699   3.984  18.314  0.00  0.00    +0.000 N 
ATOM      8  C   UNL     1       5.177   4.210  17.036  0.00  0.00    +0.000 A 
ATOM      9  C   UNL     1       6.493   4.555  17.202  0.00  0.00    +0.000 A 
ATOM     10  N   UNL     1       6.808   4.510  18.519  0.00  0.00    +0.000 NA
ATOM     11  N   UNL     1       5.717   4.165  19.192  0.00  0.00    +0.000 NA
ENDBRANCH   3   7
BRANCH   4  12
ATOM     12  N   UNL     1       3.008   5.682  20.135  0.00  0.00    +0.000 N 
ATOM     13  H   UNL     1       3.908   5.578  20.612  0.00  0.00    +0.000 HD
BRANCH  12  14
ATOM     14  C   UNL     1       2.924   6.907  19.310  0.00  0.00    +0.000 C 
BRANCH  14  15
ATOM     15  C   UNL     1       1.956   7.952  19.741  0.00  0.00    +0.000 A 
ATOM     16  C   UNL     1       1.315   8.234  20.922  0.00  0.00    +0.000 A 
ATOM     17  N   UNL     1       0.482   9.312  20.761  0.00  0.00    +0.000 NA
ATOM     18  C   UNL     1       0.614   9.649  19.493  0.00  0.00    +0.000 A 
ATOM     19  O   UNL     1       1.487   8.842  18.797  0.00  0.00    +0.000 OA
BRANCH  18  20
ATOM     20  C   UNL     1      -0.105  10.879  18.945  0.00  0.00    +0.000 C 
ATOM     21  C   UNL     1      -1.348  10.663  18.107  0.00  0.00    +0.000 C 
ATOM     22  C   UNL     1      -1.464  11.324  19.438  0.00  0.00    +0.000 C 
ENDBRANCH  18  20
ENDBRANCH  14  15
ENDBRANCH  12  14
ENDBRANCH   4  12
TORSDOF 5
ENDMDL
MODEL 5
REMARK VINA RESULT:      -6.8      3.168      6.214
REMARK  Name = 
REMARK  5 active torsions:
REMARK  status: ('A' for Active; 'I' for Inactive)
REMARK    1  A    between atoms: C_3  and  N_4
REMARK    2  A    between atoms: C_9  and  N_10
REMARK    3  A    between atoms: N_10  and  C_11
REMARK    4  A    between atoms: C_11  and  C_12
REMARK    5  A    between atoms: C_15  and  C_16
REMARK                            x       y       z     vdW  Elec       q    Type
REMARK                         _______ _______ _______ _____ _____    ______ ____
ROOT
ATOM      1  C   UNL     1       6.788   5.665  19.262  0.00  0.00    +0.000 A 
ATOM      2  C   UNL     1       5.610   4.943  19.245  0.00  0.00    +0.000 A 
ATOM      3  C   UNL     1       5.257   4.218  18.081  0.00  0.00    +0.000 A 
ATOM      4  C   UNL     1       6.095   4.278  16.937  0.00  0.00    +0.000 A 
ATOM      5  C   UNL     1       7.291   4.993  17.136  0.00  0.00    +0.000 A 
ATOM      6  N   UNL     1       7.641   5.692  18.243  0.00  0.00    +0.000 NA
ENDROOT
BRANCH   3   7
ATOM      7  N   UNL     1       4.040   3.475  18.124  0.00  0.00    +0.000 N 
ATOM      8  C   UNL     1       3.671   2.489  19.020  0.00  0.00    +0.000 A 
ATOM      9  C   UNL     1       2.393   2.144  18.667  0.00  0.00    +0.000 A 
ATOM     10  N   UNL     1       2.015   2.865  17.584  0.00  0.00    +0.000 NA
ATOM     11  N   UNL     1       3.015   3.674  17.257  0.00  0.00    +0.000 NA
ENDBRANCH   3   7
BRANCH   4  12
ATOM     12  N   UNL     1       5.857   3.591  15.728  0.00  0.00    +0.000 N 
ATOM     13  H   UNL     1       4.861   3.395  15.592  0.00  0.00    +0.000 HD
BRANCH  12  14
ATOM     14  C   UNL     1       6.526   4.091  14.507  0.00  0.00    +0.000 C 
BRANCH  14  15
ATOM     15  C   UNL     1       6.013   3.599  13.200  0.00  0.00    +0.000 A 
ATOM     16  C   UNL     1       6.575   2.927  12.143  0.00  0.00    +0.000 A 
ATOM     17  N   UNL     1       5.646   2.749  11.149  0.00  0.00    +0.000 NA
ATOM     18  C   UNL     1       4.553   3.329  11.607  0.00  0.00    +0.000 A 
ATOM     19  O   UNL     1       4.711   3.895  12.853  0.00  0.00    +0.000 OA
BRANCH  18  20
ATOM     20  C   UNL     1       3.255   3.265  10.806  0.00  0.00    +0.000 C 
ATOM     21  C   UNL     1       2.894   4.454   9.939  0.00  0.00    +0.000 C 
ATOM     22  C   UNL     1       3.225   3.150   9.298  0.00  0.00    +0.000 C 
ENDBRANCH  18  20
ENDBRANCH  14  15
ENDBRANCH  12  14
ENDBRANCH   4  12
TORSDOF 5
ENDMDL
MODEL 6
REMARK VINA RESULT:      -6.8      1.618      3.693
REMARK  Name = 
REMARK  5 active torsions:
REMARK  status: ('A' for Active; 'I' for Inactive)
REMARK    1  A    between atoms: C_3  and  N_4
REMARK    2  A    between atoms: C_9  and  N_10
REMARK    3  A    between atoms: N_10  and  C_11
REMARK    4  A    between atoms: C_11  and  C_12
REMARK    5  A    between atoms: C_15  and  C_16
REMARK                            x       y       z     vdW  Elec       q    Type
REMARK                         _______ _______ _______ _____ _____    ______ ____
ROOT
ATOM      1  C   UNL     1       7.928   4.794  19.088  0.00  0.00    +0.000 A 
ATOM      2  C   UNL     1       7.892   4.551  17.728  0.00  0.00    +0.000 A 
ATOM      3  C   UNL     1       6.828   5.078  16.956  0.00  0.00    +0.000 A 
ATOM      4  C   UNL     1       5.793   5.809  17.596  0.00  0.00    +0.000 A 
ATOM      5  C   UNL     1       6.010   6.032  18.969  0.00  0.00    +0.000 A 
ATOM      6  N   UNL     1       7.022   5.534  19.720  0.00  0.00    +0.000 NA
ENDROOT
BRANCH   3   7
ATOM      7  N   UNL     1       6.850   4.813  15.555  0.00  0.00    +0.000 N 
ATOM      8  C   UNL     1       6.150   3.846  14.857  0.00  0.00    +0.000 A 
ATOM      9  C   UNL     1       6.474   4.050  13.541  0.00  0.00    +0.000 A 
ATOM     10  N   UNL     1       7.356   5.074  13.447  0.00  0.00    +0.000 NA
ATOM     11  N   UNL     1       7.582   5.536  14.671  0.00  0.00    +0.000 NA
ENDBRANCH   3   7
BRANCH   4  12
ATOM     12  N   UNL     1       4.691   6.392  16.935  0.00  0.00    +0.000 N 
ATOM     13  H   UNL     1       4.725   6.228  15.924  0.00  0.00    +0.000 HD
BRANCH  12  14
ATOM     14  C   UNL     1       3.348   6.182  17.516  0.00  0.00    +0.000 C 
BRANCH  14  15
ATOM     15  C   UNL     1       2.962   4.784  17.850  0.00  0.00    +0.000 A 
ATOM     16  C   UNL     1       2.870   3.619  17.130  0.00  0.00    +0.000 A 
ATOM     17  N   UNL     1       2.419   2.602  17.934  0.00  0.00    +0.000 NA
ATOM     18  C   UNL     1       2.228   3.167  19.110  0.00  0.00    +0.000 A 
ATOM     19  O   UNL     1       2.519   4.513  19.128  0.00  0.00    +0.000 OA
BRANCH  18  20
ATOM     20  C   UNL     1       1.802   2.322  20.308  0.00  0.00    +0.000 C 
ATOM     21  C   UNL     1       2.596   2.455  21.592  0.00  0.00    +0.000 C 
ATOM     22  C   UNL     1       1.180   2.915  21.552  0.00  0.00    +0.000 C 
ENDBRANCH  18  20
ENDBRANCH  14  15
ENDBRANCH  12  14
ENDBRANCH   4  12
TORSDOF 5
ENDMDL
MODEL 7
REMARK VINA RESULT:      -6.7      2.003      5.849
REMARK  Name = 
REMARK  5 active torsions:
REMARK  status: ('A' for Active; 'I' for Inactive)
REMARK    1  A    between atoms: C_3  and  N_4
REMARK    2  A    between atoms: C_9  and  N_10
REMARK    3  A    between atoms: N_10  and  C_11
REMARK    4  A    between atoms: C_11  and  C_12
REMARK    5  A    between atoms: C_15  and  C_16
REMARK                            x       y       z     vdW  Elec       q    Type
REMARK                         _______ _______ _______ _____ _____    ______ ____
ROOT
ATOM      1  C   UNL     1       1.461   6.516  21.048  0.00  0.00    +0.000 A 
ATOM      2  C   UNL     1       1.792   5.256  20.588  0.00  0.00    +0.000 A 
ATOM      3  C   UNL     1       2.460   5.125  19.346  0.00  0.00    +0.000 A 
ATOM      4  C   UNL     1       2.740   6.283  18.575  0.00  0.00    +0.000 A 
ATOM      5  C   UNL     1       2.407   7.493  19.212  0.00  0.00    +0.000 A 
ATOM      6  N   UNL     1       1.767   7.634  20.398  0.00  0.00    +0.000 NA
ENDROOT
BRANCH   3   7
ATOM      7  N   UNL     1       2.795   3.803  18.926  0.00  0.00    +0.000 N 
ATOM      8  C   UNL     1       3.366   2.788  19.672  0.00  0.00    +0.000 A 
ATOM      9  C   UNL     1       3.421   1.711  18.827  0.00  0.00    +0.000 A 
ATOM     10  N   UNL     1       2.936   2.065  17.613  0.00  0.00    +0.000 NA
ATOM     11  N   UNL     1       2.555   3.335  17.676  0.00  0.00    +0.000 NA
ENDBRANCH   3   7
BRANCH   4  12
ATOM     12  N   UNL     1       3.409   6.281  17.332  0.00  0.00    +0.000 N 
ATOM     13  H   UNL     1       2.859   6.747  16.604  0.00  0.00    +0.000 HD
BRANCH  12  14
ATOM     14  C   UNL     1       4.839   6.661  17.318  0.00  0.00    +0.000 C 
BRANCH  14  15
ATOM     15  C   UNL     1       5.749   5.851  16.465  0.00  0.00    +0.000 A 
ATOM     16  C   UNL     1       7.111   5.683  16.409  0.00  0.00    +0.000 A 
ATOM     17  N   UNL     1       7.439   4.830  15.386  0.00  0.00    +0.000 NA
ATOM     18  C   UNL     1       6.285   4.515  14.831  0.00  0.00    +0.000 A 
ATOM     19  O   UNL     1       5.203   5.124  15.428  0.00  0.00    +0.000 OA
BRANCH  18  20
ATOM     20  C   UNL     1       6.231   3.501  13.692  0.00  0.00    +0.000 C 
ATOM     21  C   UNL     1       5.241   3.741  12.571  0.00  0.00    +0.000 C 
ATOM     22  C   UNL     1       6.702   3.814  12.290  0.00  0.00    +0.000 C 
ENDBRANCH  18  20
ENDBRANCH  14  15
ENDBRANCH  12  14
ENDBRANCH   4  12
TORSDOF 5
ENDMDL
MODEL 8
REMARK VINA RESULT:      -6.7      1.986      6.029
REMARK  Name = 
REMARK  5 active torsions:
REMARK  status: ('A' for Active; 'I' for Inactive)
REMARK    1  A    between atoms: C_3  and  N_4
REMARK    2  A    between atoms: C_9  and  N_10
REMARK    3  A    between atoms: N_10  and  C_11
REMARK    4  A    between atoms: C_11  and  C_12
REMARK    5  A    between atoms: C_15  and  C_16
REMARK                            x       y       z     vdW  Elec       q    Type
REMARK                         _______ _______ _______ _____ _____    ______ ____
ROOT
ATOM      1  C   UNL     1       1.859   2.271  18.852  0.00  0.00    +0.000 A 
ATOM      2  C   UNL     1       1.542   3.537  19.305  0.00  0.00    +0.000 A 
ATOM      3  C   UNL     1       2.518   4.562  19.242  0.00  0.00    +0.000 A 
ATOM      4  C   UNL     1       3.818   4.263  18.756  0.00  0.00    +0.000 A 
ATOM      5  C   UNL     1       3.961   2.951  18.266  0.00  0.00    +0.000 A 
ATOM      6  N   UNL     1       3.038   1.961  18.321  0.00  0.00    +0.000 NA
ENDROOT
BRANCH   3   7
ATOM      7  N   UNL     1       2.132   5.854  19.706  0.00  0.00    +0.000 N 
ATOM      8  C   UNL     1       1.501   6.184  20.891  0.00  0.00    +0.000 A 
ATOM      9  C   UNL     1       1.413   7.551  20.882  0.00  0.00    +0.000 A 
ATOM     10  N   UNL     1       1.937   8.028  19.728  0.00  0.00    +0.000 NA
ATOM     11  N   UNL     1       2.375   6.997  19.016  0.00  0.00    +0.000 NA
ENDBRANCH   3   7
BRANCH   4  12
ATOM     12  N   UNL     1       4.866   5.198  18.634  0.00  0.00    +0.000 N 
ATOM     13  H   UNL     1       5.769   4.793  18.897  0.00  0.00    +0.000 HD
BRANCH  12  14
ATOM     14  C   UNL     1       4.928   6.008  17.397  0.00  0.00    +0.000 C 
BRANCH  14  15
ATOM     15  C   UNL     1       5.791   5.504  16.296  0.00  0.00    +0.000 A 
ATOM     16  C   UNL     1       7.077   5.763  15.892  0.00  0.00    +0.000 A 
ATOM     17  N   UNL     1       7.375   5.035  14.768  0.00  0.00    +0.000 NA
ATOM     18  C   UNL     1       6.268   4.369  14.499  0.00  0.00    +0.000 A 
ATOM     19  O   UNL     1       5.243   4.625  15.383  0.00  0.00    +0.000 OA
BRANCH  18  20
ATOM     20  C   UNL     1       6.235   3.367  13.348  0.00  0.00    +0.000 C 
ATOM     21  C   UNL     1       5.237   3.599  12.232  0.00  0.00    +0.000 C 
ATOM     22  C   UNL     1       6.695   3.708  11.949  0.00  0.00    +0.000 C 
ENDBRANCH  18  20
ENDBRANCH  14  15
ENDBRANCH  12  14
ENDBRANCH   4  12
TORSDOF 5
ENDMDL
MODEL 9
REMARK VINA RESULT:      -6.6      2.192      6.114
REMARK  Name = 
REMARK  5 active torsions:
REMARK  status: ('A' for Active; 'I' for Inactive)
REMARK    1  A    between atoms: C_3  and  N_4
REMARK    2  A    between atoms: C_9  and  N_10
REMARK    3  A    between atoms: N_10  and  C_11
REMARK    4  A    between atoms: C_11  and  C_12
REMARK    5  A    between atoms: C_15  and  C_16
REMARK                            x       y       z     vdW  Elec       q    Type
REMARK                         _______ _______ _______ _____ _____    ______ ____
ROOT
ATOM      1  C   UNL     1       1.770   8.093  20.020  0.00  0.00    +0.000 A 
ATOM      2  C   UNL     1       1.594   6.829  20.548  0.00  0.00    +0.000 A 
ATOM      3  C   UNL     1       2.006   5.700  19.797  0.00  0.00    +0.000 A 
ATOM      4  C   UNL     1       2.552   5.883  18.500  0.00  0.00    +0.000 A 
ATOM      5  C   UNL     1       2.733   7.230  18.135  0.00  0.00    +0.000 A 
ATOM      6  N   UNL     1       2.343   8.319  18.842  0.00  0.00    +0.000 NA
ENDROOT
BRANCH   3   7
ATOM      7  N   UNL     1       1.818   4.420  20.397  0.00  0.00    +0.000 N 
ATOM      8  C   UNL     1       2.251   3.984  21.636  0.00  0.00    +0.000 A 
ATOM      9  C   UNL     1       1.762   2.710  21.757  0.00  0.00    +0.000 A 
ATOM     10  N   UNL     1       1.092   2.374  20.629  0.00  0.00    +0.000 NA
ATOM     11  N   UNL     1       1.125   3.414  19.805  0.00  0.00    +0.000 NA
ENDBRANCH   3   7
BRANCH   4  12
ATOM     12  N   UNL     1       3.008   4.841  17.664  0.00  0.00    +0.000 N 
ATOM     13  H   UNL     1       2.642   4.931  16.712  0.00  0.00    +0.000 HD
BRANCH  12  14
ATOM     14  C   UNL     1       4.447   4.502  17.708  0.00  0.00    +0.000 C 
BRANCH  14  15
ATOM     15  C   UNL     1       5.235   4.719  16.465  0.00  0.00    +0.000 A 
ATOM     16  C   UNL     1       5.948   5.776  15.956  0.00  0.00    +0.000 A 
ATOM     17  N   UNL     1       6.462   5.451  14.727  0.00  0.00    +0.000 NA
ATOM     18  C   UNL     1       6.040   4.221  14.504  0.00  0.00    +0.000 A 
ATOM     19  O   UNL     1       5.260   3.714  15.520  0.00  0.00    +0.000 OA
BRANCH  18  20
ATOM     20  C   UNL     1       6.485   3.471  13.252  0.00  0.00    +0.000 C 
ATOM     21  C   UNL     1       5.540   3.437  12.068  0.00  0.00    +0.000 C 
ATOM     22  C   UNL     1       6.833   4.168  11.956  0.00  0.00    +0.000 C 
ENDBRANCH  18  20
ENDBRANCH  14  15
ENDBRANCH  12  14
ENDBRANCH   4  12
TORSDOF 5
ENDMDL
