MODEL 1
REMARK VINA RESULT:      -9.4      0.000      0.000
REMARK  Name = 
REMARK  8 active torsions:
REMARK  status: ('A' for Active; 'I' for Inactive)
REMARK    1  A    between atoms: C_1  and  O_2
REMARK    2  A    between atoms: O_2  and  C_3
REMARK    3  A    between atoms: C_8  and  O_9
REMARK    4  A    between atoms: O_9  and  C_10
REMARK    5  A    between atoms: C_12  and  N_13
REMARK    6  A    between atoms: N_13  and  C_14
REMARK    7  A    between atoms: C_19  and  C_20
REMARK    8  A    between atoms: C_23  and  C_24
REMARK                            x       y       z     vdW  Elec       q    Type
REMARK                         _______ _______ _______ _____ _____    ______ ____
ROOT
ATOM      1  C   UNL     1       5.039   3.950  19.164  0.00  0.00    +0.000 A 
ATOM      2  C   UNL     1       4.397   5.137  19.483  0.00  0.00    +0.000 A 
ATOM      3  C   UNL     1       3.081   5.115  19.972  0.00  0.00    +0.000 A 
ATOM      4  C   UNL     1       2.410   3.890  19.989  0.00  0.00    +0.000 A 
ATOM      5  C   UNL     1       3.135   2.756  19.610  0.00  0.00    +0.000 A 
ATOM      6  N   UNL     1       4.439   2.748  19.248  0.00  0.00    +0.000 NA
ENDROOT
BRANCH   4   7
ATOM      7  C   UNL     1       1.010   3.679  20.474  0.00  0.00    +0.000 C 
ATOM      8  F   UNL     1       0.881   3.046  21.671  0.00  0.00    +0.000 F 
ATOM      9  F   UNL     1       0.331   4.855  20.610  0.00  0.00    +0.000 F 
ATOM     10  F   UNL     1       0.272   2.941  19.592  0.00  0.00    +0.000 F 
ENDBRANCH   4   7
BRANCH   3  11
ATOM     11  N   UNL     1       2.479   6.305  20.453  0.00  0.00    +0.000 N 
ATOM     12  H   UNL     1       1.784   6.143  21.195  0.00  0.00    +0.000 HD
BRANCH  11  13
ATOM     13  C   UNL     1       2.150   7.445  19.666  0.00  0.00    +0.000 A 
ATOM     14  C   UNL     1       2.684   7.559  18.365  0.00  0.00    +0.000 A 
ATOM     15  C   UNL     1       2.347   8.611  17.522  0.00  0.00    +0.000 A 
ATOM     16  C   UNL     1       1.489   9.609  17.968  0.00  0.00    +0.000 A 
ATOM     17  C   UNL     1       1.014   9.569  19.281  0.00  0.00    +0.000 A 
ATOM     18  C   UNL     1       1.368   8.518  20.148  0.00  0.00    +0.000 A 
BRANCH  18  19
ATOM     19  C   UNL     1       0.892   8.546  21.554  0.00  0.00    +0.000 C 
ATOM     20  N   UNL     1      -0.439   8.278  21.776  0.00  0.00    +0.000 N 
ATOM     21  O   UNL     1       1.640   8.831  22.482  0.00  0.00    +0.000 OA
ATOM     22  H   UNL     1      -1.124   8.279  21.036  0.00  0.00    +0.000 HD
ATOM     23  H   UNL     1      -0.781   8.403  22.718  0.00  0.00    +0.000 HD
ENDBRANCH  18  19
ENDBRANCH  11  13
ENDBRANCH   3  11
BRANCH   1  24
ATOM     24  O   UNL     1       6.398   4.078  18.891  0.00  0.00    +0.000 OA
BRANCH  24  30
ATOM     25  C   UNL     1       6.425   5.649  17.008  0.00  0.00    +0.000 A 
ATOM     26  C   UNL     1       6.863   6.893  16.536  0.00  0.00    +0.000 A 
ATOM     27  C   UNL     1       7.692   7.705  17.318  0.00  0.00    +0.000 A 
ATOM     28  C   UNL     1       8.104   7.276  18.575  0.00  0.00    +0.000 A 
ATOM     29  C   UNL     1       7.698   6.029  19.045  0.00  0.00    +0.000 A 
ATOM     30  C   UNL     1       6.876   5.205  18.261  0.00  0.00    +0.000 A 
BRANCH  25  32
ATOM     31  C   UNL     1       6.094   4.003  15.318  0.00  0.00    +0.000 C 
ATOM     32  O   UNL     1       5.556   4.833  16.334  0.00  0.00    +0.000 OA
ENDBRANCH  25  32
ENDBRANCH  24  30
ENDBRANCH   1  24
TORSDOF 7
ENDMDL
MODEL 2
REMARK VINA RESULT:      -9.3      1.858      6.149
REMARK  Name = 
REMARK  8 active torsions:
REMARK  status: ('A' for Active; 'I' for Inactive)
REMARK    1  A    between atoms: C_1  and  O_2
REMARK    2  A    between atoms: O_2  and  C_3
REMARK    3  A    between atoms: C_8  and  O_9
REMARK    4  A    between atoms: O_9  and  C_10
REMARK    5  A    between atoms: C_12  and  N_13
REMARK    6  A    between atoms: N_13  and  C_14
REMARK    7  A    between atoms: C_19  and  C_20
REMARK    8  A    between atoms: C_23  and  C_24
REMARK                            x       y       z     vdW  Elec       q    Type
REMARK                         _______ _______ _______ _____ _____    ______ ____
ROOT
ATOM      1  C   UNL     1       2.224   6.005  20.333  0.00  0.00    +0.000 A 
ATOM      2  C   UNL     1       3.487   5.553  19.983  0.00  0.00    +0.000 A 
ATOM      3  C   UNL     1       3.642   4.291  19.386  0.00  0.00    +0.000 A 
ATOM      4  C   UNL     1       2.516   3.471  19.291  0.00  0.00    +0.000 A 
ATOM      5  C   UNL     1       1.295   4.006  19.709  0.00  0.00    +0.000 A 
ATOM      6  N   UNL     1       1.113   5.263  20.178  0.00  0.00    +0.000 NA
ENDROOT
BRANCH   4   7
ATOM      7  C   UNL     1       2.494   2.101  18.688  0.00  0.00    +0.000 C 
ATOM      8  F   UNL     1       3.597   1.335  18.905  0.00  0.00    +0.000 F 
ATOM      9  F   UNL     1       1.442   1.358  19.141  0.00  0.00    +0.000 F 
ATOM     10  F   UNL     1       2.342   2.144  17.331  0.00  0.00    +0.000 F 
ENDBRANCH   4   7
BRANCH   3  11
ATOM     11  N   UNL     1       4.904   3.893  18.879  0.00  0.00    +0.000 N 
ATOM     12  H   UNL     1       5.610   3.736  19.611  0.00  0.00    +0.000 HD
BRANCH  11  13
ATOM     13  C   UNL     1       5.497   4.355  17.670  0.00  0.00    +0.000 A 
ATOM     14  C   UNL     1       5.017   3.864  16.438  0.00  0.00    +0.000 A 
ATOM     15  C   UNL     1       5.505   4.327  15.221  0.00  0.00    +0.000 A 
ATOM     16  C   UNL     1       6.520   5.274  15.198  0.00  0.00    +0.000 A 
ATOM     17  C   UNL     1       7.076   5.716  16.402  0.00  0.00    +0.000 A 
ATOM     18  C   UNL     1       6.602   5.235  17.637  0.00  0.00    +0.000 A 
BRANCH  18  19
ATOM     19  C   UNL     1       7.260   5.683  18.890  0.00  0.00    +0.000 C 
ATOM     20  N   UNL     1       8.115   6.757  18.806  0.00  0.00    +0.000 N 
ATOM     21  O   UNL     1       7.083   5.100  19.954  0.00  0.00    +0.000 OA
ATOM     22  H   UNL     1       8.468   7.103  17.927  0.00  0.00    +0.000 HD
ATOM     23  H   UNL     1       8.641   6.989  19.636  0.00  0.00    +0.000 HD
ENDBRANCH  18  19
ENDBRANCH  11  13
ENDBRANCH   3  11
BRANCH   1  24
ATOM     24  O   UNL     1       2.171   7.341  20.721  0.00  0.00    +0.000 OA
BRANCH  24  30
ATOM     25  C   UNL     1       0.346   8.972  20.568  0.00  0.00    +0.000 A 
ATOM     26  C   UNL     1      -0.258   9.974  19.797  0.00  0.00    +0.000 A 
ATOM     27  C   UNL     1       0.217  10.279  18.517  0.00  0.00    +0.000 A 
ATOM     28  C   UNL     1       1.293   9.574  17.987  0.00  0.00    +0.000 A 
ATOM     29  C   UNL     1       1.885   8.558  18.731  0.00  0.00    +0.000 A 
ATOM     30  C   UNL     1       1.406   8.240  20.012  0.00  0.00    +0.000 A 
BRANCH  25  32
ATOM     31  C   UNL     1       0.018   9.717  22.806  0.00  0.00    +0.000 C 
ATOM     32  O   UNL     1      -0.014   8.667  21.854  0.00  0.00    +0.000 OA
ENDBRANCH  25  32
ENDBRANCH  24  30
ENDBRANCH   1  24
TORSDOF 7
ENDMDL
MODEL 3
REMARK VINA RESULT:      -9.2      1.896      6.311
REMARK  Name = 
REMARK  8 active torsions:
REMARK  status: ('A' for Active; 'I' for Inactive)
REMARK    1  A    between atoms: C_1  and  O_2
REMARK    2  A    between atoms: O_2  and  C_3
REMARK    3  A    between atoms: C_8  and  O_9
REMARK    4  A    between atoms: O_9  and  C_10
REMARK    5  A    between atoms: C_12  and  N_13
REMARK    6  A    between atoms: N_13  and  C_14
REMARK    7  A    between atoms: C_19  and  C_20
REMARK    8  A    between atoms: C_23  and  C_24
REMARK                            x       y       z     vdW  Elec       q    Type
REMARK                         _______ _______ _______ _____ _____    ______ ____
ROOT
ATOM      1  C   UNL     1       2.821   6.081  19.672  0.00  0.00    +0.000 A 
ATOM      2  C   UNL     1       4.008   5.513  19.235  0.00  0.00    +0.000 A 
ATOM      3  C   UNL     1       4.025   4.188  18.772  0.00  0.00    +0.000 A 
ATOM      4  C   UNL     1       2.855   3.436  18.898  0.00  0.00    +0.000 A 
ATOM      5  C   UNL     1       1.721   4.091  19.388  0.00  0.00    +0.000 A 
ATOM      6  N   UNL     1       1.661   5.400  19.729  0.00  0.00    +0.000 NA
ENDROOT
BRANCH   4   7
ATOM      7  C   UNL     1       2.690   2.014  18.462  0.00  0.00    +0.000 C 
ATOM      8  F   UNL     1       2.504   1.816  17.129  0.00  0.00    +0.000 F 
ATOM      9  F   UNL     1       3.769   1.247  18.795  0.00  0.00    +0.000 F 
ATOM     10  F   UNL     1       1.624   1.415  19.070  0.00  0.00    +0.000 F 
ENDBRANCH   4   7
BRANCH   3  11
ATOM     11  N   UNL     1       5.195   3.657  18.174  0.00  0.00    +0.000 N 
ATOM     12  H   UNL     1       5.923   3.397  18.855  0.00  0.00    +0.000 HD
BRANCH  11  13
ATOM     13  C   UNL     1       5.761   4.078  16.938  0.00  0.00    +0.000 A 
ATOM     14  C   UNL     1       5.259   3.541  15.734  0.00  0.00    +0.000 A 
ATOM     15  C   UNL     1       5.720   3.962  14.492  0.00  0.00    +0.000 A 
ATOM     16  C   UNL     1       6.729   4.913  14.414  0.00  0.00    +0.000 A 
ATOM     17  C   UNL     1       7.306   5.400  15.590  0.00  0.00    +0.000 A 
ATOM     18  C   UNL     1       6.860   4.962  16.851  0.00  0.00    +0.000 A 
BRANCH  18  19
ATOM     19  C   UNL     1       7.541   5.457  18.074  0.00  0.00    +0.000 C 
ATOM     20  N   UNL     1       7.678   6.819  18.214  0.00  0.00    +0.000 N 
ATOM     21  O   UNL     1       7.999   4.688  18.912  0.00  0.00    +0.000 OA
ATOM     22  H   UNL     1       7.536   7.460  17.449  0.00  0.00    +0.000 HD
ATOM     23  H   UNL     1       8.234   7.145  18.990  0.00  0.00    +0.000 HD
ENDBRANCH  18  19
ENDBRANCH  11  13
ENDBRANCH   3  11
BRANCH   1  24
ATOM     24  O   UNL     1       2.883   7.451  19.909  0.00  0.00    +0.000 OA
BRANCH  24  30
ATOM     25  C   UNL     1       0.982   8.889  20.485  0.00  0.00    +0.000 A 
ATOM     26  C   UNL     1       0.045   9.822  20.020  0.00  0.00    +0.000 A 
ATOM     27  C   UNL     1      -0.012  10.168  18.666  0.00  0.00    +0.000 A 
ATOM     28  C   UNL     1       0.858   9.574  17.758  0.00  0.00    +0.000 A 
ATOM     29  C   UNL     1       1.775   8.625  18.201  0.00  0.00    +0.000 A 
ATOM     30  C   UNL     1       1.830   8.265  19.557  0.00  0.00    +0.000 A 
BRANCH  25  32
ATOM     31  C   UNL     1       0.471   9.345  22.766  0.00  0.00    +0.000 C 
ATOM     32  O   UNL     1       1.147   8.555  21.802  0.00  0.00    +0.000 OA
ENDBRANCH  25  32
ENDBRANCH  24  30
ENDBRANCH   1  24
TORSDOF 7
ENDMDL
MODEL 4
REMARK VINA RESULT:      -9.2      2.043      6.282
REMARK  Name = 
REMARK  8 active torsions:
REMARK  status: ('A' for Active; 'I' for Inactive)
REMARK    1  A    between atoms: C_1  and  O_2
REMARK    2  A    between atoms: O_2  and  C_3
REMARK    3  A    between atoms: C_8  and  O_9
REMARK    4  A    between atoms: O_9  and  C_10
REMARK    5  A    between atoms: C_12  and  N_13
REMARK    6  A    between atoms: N_13  and  C_14
REMARK    7  A    between atoms: C_19  and  C_20
REMARK    8  A    between atoms: C_23  and  C_24
REMARK                            x       y       z     vdW  Elec       q    Type
REMARK                         _______ _______ _______ _____ _____    ______ ____
ROOT
ATOM      1  C   UNL     1       2.152   6.743  19.905  0.00  0.00    +0.000 A 
ATOM      2  C   UNL     1       3.398   6.226  19.583  0.00  0.00    +0.000 A 
ATOM      3  C   UNL     1       3.639   4.848  19.702  0.00  0.00    +0.000 A 
ATOM      4  C   UNL     1       2.643   4.057  20.280  0.00  0.00    +0.000 A 
ATOM      5  C   UNL     1       1.437   4.683  20.607  0.00  0.00    +0.000 A 
ATOM      6  N   UNL     1       1.149   5.987  20.390  0.00  0.00    +0.000 NA
ENDROOT
BRANCH   4   7
ATOM      7  C   UNL     1       2.727   2.577  20.487  0.00  0.00    +0.000 C 
ATOM      8  F   UNL     1       2.904   1.826  19.367  0.00  0.00    +0.000 F 
ATOM      9  F   UNL     1       3.752   2.233  21.319  0.00  0.00    +0.000 F 
ATOM     10  F   UNL     1       1.602   2.082  21.082  0.00  0.00    +0.000 F 
ENDBRANCH   4   7
BRANCH   3  11
ATOM     11  N   UNL     1       4.852   4.292  19.221  0.00  0.00    +0.000 N 
ATOM     12  H   UNL     1       5.565   4.168  19.954  0.00  0.00    +0.000 HD
BRANCH  11  13
ATOM     13  C   UNL     1       5.442   4.559  17.954  0.00  0.00    +0.000 A 
ATOM     14  C   UNL     1       4.862   4.001  16.795  0.00  0.00    +0.000 A 
ATOM     15  C   UNL     1       5.349   4.279  15.523  0.00  0.00    +0.000 A 
ATOM     16  C   UNL     1       6.459   5.099  15.370  0.00  0.00    +0.000 A 
ATOM     17  C   UNL     1       7.107   5.596  16.504  0.00  0.00    +0.000 A 
ATOM     18  C   UNL     1       6.634   5.301  17.797  0.00  0.00    +0.000 A 
BRANCH  18  19
ATOM     19  C   UNL     1       7.387   5.797  18.976  0.00  0.00    +0.000 C 
ATOM     20  N   UNL     1       8.179   6.908  18.798  0.00  0.00    +0.000 N 
ATOM     21  O   UNL     1       7.340   5.223  20.058  0.00  0.00    +0.000 OA
ATOM     22  H   UNL     1       8.430   7.255  17.886  0.00  0.00    +0.000 HD
ATOM     23  H   UNL     1       8.770   7.176  19.571  0.00  0.00    +0.000 HD
ENDBRANCH  18  19
ENDBRANCH  11  13
ENDBRANCH   3  11
BRANCH   1  24
ATOM     24  O   UNL     1       1.966   8.077  19.553  0.00  0.00    +0.000 OA
BRANCH  24  30
ATOM     25  C   UNL     1       0.283   9.826  19.897  0.00  0.00    +0.000 A 
ATOM     26  C   UNL     1      -0.508  10.513  20.828  0.00  0.00    +0.000 A 
ATOM     27  C   UNL     1      -0.384  10.263  22.199  0.00  0.00    +0.000 A 
ATOM     28  C   UNL     1       0.542   9.331  22.656  0.00  0.00    +0.000 A 
ATOM     29  C   UNL     1       1.353   8.661  21.744  0.00  0.00    +0.000 A 
ATOM     30  C   UNL     1       1.242   8.916  20.369  0.00  0.00    +0.000 A 
BRANCH  25  32
ATOM     31  C   UNL     1      -1.119  10.245  18.018  0.00  0.00    +0.000 C 
ATOM     32  O   UNL     1       0.169   9.962  18.539  0.00  0.00    +0.000 OA
ENDBRANCH  25  32
ENDBRANCH  24  30
ENDBRANCH   1  24
TORSDOF 7
ENDMDL
MODEL 5
REMARK VINA RESULT:      -9.0      0.853      2.063
REMARK  Name = 
REMARK  8 active torsions:
REMARK  status: ('A' for Active; 'I' for Inactive)
REMARK    1  A    between atoms: C_1  and  O_2
REMARK    2  A    between atoms: O_2  and  C_3
REMARK    3  A    between atoms: C_8  and  O_9
REMARK    4  A    between atoms: O_9  and  C_10
REMARK    5  A    between atoms: C_12  and  N_13
REMARK    6  A    between atoms: N_13  and  C_14
REMARK    7  A    between atoms: C_19  and  C_20
REMARK    8  A    between atoms: C_23  and  C_24
REMARK                            x       y       z     vdW  Elec       q    Type
REMARK                         _______ _______ _______ _____ _____    ______ ____
ROOT
ATOM      1  C   UNL     1       4.865   4.076  18.712  0.00  0.00    +0.000 A 
ATOM      2  C   UNL     1       4.272   5.265  19.108  0.00  0.00    +0.000 A 
ATOM      3  C   UNL     1       3.055   5.245  19.809  0.00  0.00    +0.000 A 
ATOM      4  C   UNL     1       2.410   4.017  19.963  0.00  0.00    +0.000 A 
ATOM      5  C   UNL     1       3.073   2.880  19.492  0.00  0.00    +0.000 A 
ATOM      6  N   UNL     1       4.299   2.873  18.920  0.00  0.00    +0.000 NA
ENDROOT
BRANCH   4   7
ATOM      7  C   UNL     1       1.110   3.807  20.677  0.00  0.00    +0.000 C 
ATOM      8  F   UNL     1       0.306   4.899  20.786  0.00  0.00    +0.000 F 
ATOM      9  F   UNL     1       0.344   2.851  20.076  0.00  0.00    +0.000 F 
ATOM     10  F   UNL     1       1.298   3.364  21.955  0.00  0.00    +0.000 F 
ENDBRANCH   4   7
BRANCH   3  11
ATOM     11  N   UNL     1       2.529   6.442  20.357  0.00  0.00    +0.000 N 
ATOM     12  H   UNL     1       1.936   6.289  21.185  0.00  0.00    +0.000 HD
BRANCH  11  13
ATOM     13  C   UNL     1       2.108   7.581  19.614  0.00  0.00    +0.000 A 
ATOM     14  C   UNL     1       2.578   7.753  18.295  0.00  0.00    +0.000 A 
ATOM     15  C   UNL     1       2.151   8.805  17.494  0.00  0.00    +0.000 A 
ATOM     16  C   UNL     1       1.263   9.745  18.000  0.00  0.00    +0.000 A 
ATOM     17  C   UNL     1       0.848   9.651  19.331  0.00  0.00    +0.000 A 
ATOM     18  C   UNL     1       1.293   8.600  20.156  0.00  0.00    +0.000 A 
BRANCH  18  19
ATOM     19  C   UNL     1       0.878   8.571  21.581  0.00  0.00    +0.000 C 
ATOM     20  N   UNL     1      -0.439   8.275  21.849  0.00  0.00    +0.000 N 
ATOM     21  O   UNL     1       1.661   8.835  22.486  0.00  0.00    +0.000 OA
ATOM     22  H   UNL     1      -1.155   8.291  21.139  0.00  0.00    +0.000 HD
ATOM     23  H   UNL     1      -0.741   8.361  22.809  0.00  0.00    +0.000 HD
ENDBRANCH  18  19
ENDBRANCH  11  13
ENDBRANCH   3  11
BRANCH   1  24
ATOM     24  O   UNL     1       6.158   4.207  18.215  0.00  0.00    +0.000 OA
BRANCH  24  30
ATOM     25  C   UNL     1       7.270   5.521  16.468  0.00  0.00    +0.000 A 
ATOM     26  C   UNL     1       7.515   5.662  15.096  0.00  0.00    +0.000 A 
ATOM     27  C   UNL     1       6.911   4.807  14.168  0.00  0.00    +0.000 A 
ATOM     28  C   UNL     1       6.043   3.810  14.601  0.00  0.00    +0.000 A 
ATOM     29  C   UNL     1       5.770   3.676  15.959  0.00  0.00    +0.000 A 
ATOM     30  C   UNL     1       6.364   4.538  16.894  0.00  0.00    +0.000 A 
BRANCH  25  32
ATOM     31  C   UNL     1       7.506   7.633  17.543  0.00  0.00    +0.000 C 
ATOM     32  O   UNL     1       7.879   6.269  17.440  0.00  0.00    +0.000 OA
ENDBRANCH  25  32
ENDBRANCH  24  30
ENDBRANCH   1  24
TORSDOF 7
ENDMDL
MODEL 6
REMARK VINA RESULT:      -9.0      1.823      6.332
REMARK  Name = 
REMARK  8 active torsions:
REMARK  status: ('A' for Active; 'I' for Inactive)
REMARK    1  A    between atoms: C_1  and  O_2
REMARK    2  A    between atoms: O_2  and  C_3
REMARK    3  A    between atoms: C_8  and  O_9
REMARK    4  A    between atoms: O_9  and  C_10
REMARK    5  A    between atoms: C_12  and  N_13
REMARK    6  A    between atoms: N_13  and  C_14
REMARK    7  A    between atoms: C_19  and  C_20
REMARK    8  A    between atoms: C_23  and  C_24
REMARK                            x       y       z     vdW  Elec       q    Type
REMARK                         _______ _______ _______ _____ _____    ______ ____
ROOT
ATOM      1  C   UNL     1       2.442   6.957  19.760  0.00  0.00    +0.000 A 
ATOM      2  C   UNL     1       3.582   6.268  19.374  0.00  0.00    +0.000 A 
ATOM      3  C   UNL     1       3.661   4.878  19.558  0.00  0.00    +0.000 A 
ATOM      4  C   UNL     1       2.627   4.252  20.258  0.00  0.00    +0.000 A 
ATOM      5  C   UNL     1       1.540   5.043  20.639  0.00  0.00    +0.000 A 
ATOM      6  N   UNL     1       1.398   6.361  20.365  0.00  0.00    +0.000 NA
ENDROOT
BRANCH   4   7
ATOM      7  C   UNL     1       2.545   2.786  20.548  0.00  0.00    +0.000 C 
ATOM      8  F   UNL     1       1.491   2.386  21.310  0.00  0.00    +0.000 F 
ATOM      9  F   UNL     1       2.469   2.041  19.407  0.00  0.00    +0.000 F 
ATOM     10  F   UNL     1       3.657   2.332  21.198  0.00  0.00    +0.000 F 
ENDBRANCH   4   7
BRANCH   3  11
ATOM     11  N   UNL     1       4.750   4.148  19.020  0.00  0.00    +0.000 N 
ATOM     12  H   UNL     1       5.404   3.799  19.734  0.00  0.00    +0.000 HD
BRANCH  11  13
ATOM     13  C   UNL     1       5.416   4.434  17.795  0.00  0.00    +0.000 A 
ATOM     14  C   UNL     1       4.908   3.894  16.594  0.00  0.00    +0.000 A 
ATOM     15  C   UNL     1       5.470   4.191  15.359  0.00  0.00    +0.000 A 
ATOM     16  C   UNL     1       6.588   5.012  15.286  0.00  0.00    +0.000 A 
ATOM     17  C   UNL     1       7.167   5.491  16.464  0.00  0.00    +0.000 A 
ATOM     18  C   UNL     1       6.616   5.177  17.721  0.00  0.00    +0.000 A 
BRANCH  18  19
ATOM     19  C   UNL     1       7.296   5.654  18.951  0.00  0.00    +0.000 C 
ATOM     20  N   UNL     1       8.110   6.756  18.835  0.00  0.00    +0.000 N 
ATOM     21  O   UNL     1       7.172   5.071  20.023  0.00  0.00    +0.000 OA
ATOM     22  H   UNL     1       8.425   7.109  17.945  0.00  0.00    +0.000 HD
ATOM     23  H   UNL     1       8.653   7.011  19.648  0.00  0.00    +0.000 HD
ENDBRANCH  18  19
ENDBRANCH  11  13
ENDBRANCH   3  11
BRANCH   1  24
ATOM     24  O   UNL     1       2.393   8.283  19.342  0.00  0.00    +0.000 OA
BRANCH  24  30
ATOM     25  C   UNL     1       0.636   9.604  20.427  0.00  0.00    +0.000 A 
ATOM     26  C   UNL     1      -0.507  10.395  20.246  0.00  0.00    +0.000 A 
ATOM     27  C   UNL     1      -1.053  10.583  18.971  0.00  0.00    +0.000 A 
ATOM     28  C   UNL     1      -0.472   9.971  17.866  0.00  0.00    +0.000 A 
ATOM     29  C   UNL     1       0.648   9.161  18.037  0.00  0.00    +0.000 A 
ATOM     30  C   UNL     1       1.194   8.958  19.314  0.00  0.00    +0.000 A 
BRANCH  25  32
ATOM     31  C   UNL     1       0.461   9.385  22.793  0.00  0.00    +0.000 C 
ATOM     32  O   UNL     1       1.270   9.432  21.629  0.00  0.00    +0.000 OA
ENDBRANCH  25  32
ENDBRANCH  24  30
ENDBRANCH   1  24
TORSDOF 7
ENDMDL
MODEL 7
REMARK VINA RESULT:      -8.9      2.022      6.151
REMARK  Name = 
REMARK  8 active torsions:
REMARK  status: ('A' for Active; 'I' for Inactive)
REMARK    1  A    between atoms: C_1  and  O_2
REMARK    2  A    between atoms: O_2  and  C_3
REMARK    3  A    between atoms: C_8  and  O_9
REMARK    4  A    between atoms: O_9  and  C_10
REMARK    5  A    between atoms: C_12  and  N_13
REMARK    6  A    between atoms: N_13  and  C_14
REMARK    7  A    between atoms: C_19  and  C_20
REMARK    8  A    between atoms: C_23  and  C_24
REMARK                            x       y       z     vdW  Elec       q    Type
REMARK                         _______ _______ _______ _____ _____    ______ ____
ROOT
ATOM      1  C   UNL     1       1.943   6.080  20.517  0.00  0.00    +0.000 A 
ATOM      2  C   UNL     1       3.140   5.849  19.856  0.00  0.00    +0.000 A 
ATOM      3  C   UNL     1       3.320   4.667  19.120  0.00  0.00    +0.000 A 
ATOM      4  C   UNL     1       2.324   3.692  19.196  0.00  0.00    +0.000 A 
ATOM      5  C   UNL     1       1.171   4.006  19.922  0.00  0.00    +0.000 A 
ATOM      6  N   UNL     1       0.935   5.188  20.539  0.00  0.00    +0.000 NA
ENDROOT
BRANCH   4   7
ATOM      7  C   UNL     1       2.347   2.376  18.482  0.00  0.00    +0.000 C 
ATOM      8  F   UNL     1       1.325   1.524  18.766  0.00  0.00    +0.000 F 
ATOM      9  F   UNL     1       2.326   2.527  17.126  0.00  0.00    +0.000 F 
ATOM     10  F   UNL     1       3.488   1.674  18.746  0.00  0.00    +0.000 F 
ENDBRANCH   4   7
BRANCH   3  11
ATOM     11  N   UNL     1       4.472   4.499  18.312  0.00  0.00    +0.000 N 
ATOM     12  H   UNL     1       4.689   3.514  18.105  0.00  0.00    +0.000 HD
BRANCH  11  13
ATOM     13  C   UNL     1       5.651   5.295  18.371  0.00  0.00    +0.000 A 
ATOM     14  C   UNL     1       6.578   5.071  19.411  0.00  0.00    +0.000 A 
ATOM     15  C   UNL     1       7.780   5.766  19.485  0.00  0.00    +0.000 A 
ATOM     16  C   UNL     1       8.078   6.738  18.539  0.00  0.00    +0.000 A 
ATOM     17  C   UNL     1       7.141   7.042  17.548  0.00  0.00    +0.000 A 
ATOM     18  C   UNL     1       5.913   6.358  17.479  0.00  0.00    +0.000 A 
BRANCH  18  19
ATOM     19  C   UNL     1       4.919   6.754  16.450  0.00  0.00    +0.000 C 
ATOM     20  N   UNL     1       5.268   6.573  15.131  0.00  0.00    +0.000 N 
ATOM     21  O   UNL     1       3.843   7.258  16.753  0.00  0.00    +0.000 OA
ATOM     22  H   UNL     1       6.217   6.394  14.841  0.00  0.00    +0.000 HD
ATOM     23  H   UNL     1       4.636   6.942  14.436  0.00  0.00    +0.000 HD
ENDBRANCH  18  19
ENDBRANCH  11  13
ENDBRANCH   3  11
BRANCH   1  24
ATOM     24  O   UNL     1       1.802   7.364  21.035  0.00  0.00    +0.000 OA
BRANCH  24  30
ATOM     25  C   UNL     1       0.063   9.083  20.846  0.00  0.00    +0.000 A 
ATOM     26  C   UNL     1      -0.445  10.146  20.088  0.00  0.00    +0.000 A 
ATOM     27  C   UNL     1       0.125  10.487  18.856  0.00  0.00    +0.000 A 
ATOM     28  C   UNL     1       1.202   9.758  18.362  0.00  0.00    +0.000 A 
ATOM     29  C   UNL     1       1.700   8.682  19.092  0.00  0.00    +0.000 A 
ATOM     30  C   UNL     1       1.125   8.329  20.323  0.00  0.00    +0.000 A 
BRANCH  25  32
ATOM     31  C   UNL     1      -0.231   9.686  23.131  0.00  0.00    +0.000 C 
ATOM     32  O   UNL     1      -0.393   8.737  22.090  0.00  0.00    +0.000 OA
ENDBRANCH  25  32
ENDBRANCH  24  30
ENDBRANCH   1  24
TORSDOF 7
ENDMDL
MODEL 8
REMARK VINA RESULT:      -8.9      0.904      1.194
REMARK  Name = 
REMARK  8 active torsions:
REMARK  status: ('A' for Active; 'I' for Inactive)
REMARK    1  A    between atoms: C_1  and  O_2
REMARK    2  A    between atoms: O_2  and  C_3
REMARK    3  A    between atoms: C_8  and  O_9
REMARK    4  A    between atoms: O_9  and  C_10
REMARK    5  A    between atoms: C_12  and  N_13
REMARK    6  A    between atoms: N_13  and  C_14
REMARK    7  A    between atoms: C_19  and  C_20
REMARK    8  A    between atoms: C_23  and  C_24
REMARK                            x       y       z     vdW  Elec       q    Type
REMARK                         _______ _______ _______ _____ _____    ______ ____
ROOT
ATOM      1  C   UNL     1       4.639   3.865  18.100  0.00  0.00    +0.000 A 
ATOM      2  C   UNL     1       4.175   5.071  18.605  0.00  0.00    +0.000 A 
ATOM      3  C   UNL     1       3.036   5.098  19.424  0.00  0.00    +0.000 A 
ATOM      4  C   UNL     1       2.322   3.910  19.592  0.00  0.00    +0.000 A 
ATOM      5  C   UNL     1       2.852   2.756  19.008  0.00  0.00    +0.000 A 
ATOM      6  N   UNL     1       4.012   2.694  18.313  0.00  0.00    +0.000 NA
ENDROOT
BRANCH   4   7
ATOM      7  C   UNL     1       1.088   3.754  20.425  0.00  0.00    +0.000 C 
ATOM      8  F   UNL     1       0.337   4.874  20.596  0.00  0.00    +0.000 F 
ATOM      9  F   UNL     1       0.236   2.820  19.909  0.00  0.00    +0.000 F 
ATOM     10  F   UNL     1       1.378   3.314  21.685  0.00  0.00    +0.000 F 
ENDBRANCH   4   7
BRANCH   3  11
ATOM     11  N   UNL     1       2.654   6.300  20.074  0.00  0.00    +0.000 N 
ATOM     12  H   UNL     1       2.125   6.146  20.943  0.00  0.00    +0.000 HD
BRANCH  11  13
ATOM     13  C   UNL     1       2.260   7.504  19.426  0.00  0.00    +0.000 A 
ATOM     14  C   UNL     1       2.734   7.771  18.125  0.00  0.00    +0.000 A 
ATOM     15  C   UNL     1       2.331   8.895  17.412  0.00  0.00    +0.000 A 
ATOM     16  C   UNL     1       1.466   9.811  17.994  0.00  0.00    +0.000 A 
ATOM     17  C   UNL     1       1.048   9.619  19.314  0.00  0.00    +0.000 A 
ATOM     18  C   UNL     1       1.469   8.495  20.050  0.00  0.00    +0.000 A 
BRANCH  18  19
ATOM     19  C   UNL     1       1.052   8.359  21.468  0.00  0.00    +0.000 C 
ATOM     20  N   UNL     1       1.871   8.914  22.423  0.00  0.00    +0.000 N 
ATOM     21  O   UNL     1       0.039   7.746  21.786  0.00  0.00    +0.000 OA
ATOM     22  H   UNL     1       2.816   9.208  22.225  0.00  0.00    +0.000 HD
ATOM     23  H   UNL     1       1.641   8.727  23.388  0.00  0.00    +0.000 HD
ENDBRANCH  18  19
ENDBRANCH  11  13
ENDBRANCH   3  11
BRANCH   1  24
ATOM     24  O   UNL     1       5.883   3.933  17.479  0.00  0.00    +0.000 OA
BRANCH  24  30
ATOM     25  C   UNL     1       6.697   6.122  16.731  0.00  0.00    +0.000 A 
ATOM     26  C   UNL     1       7.419   7.273  17.071  0.00  0.00    +0.000 A 
ATOM     27  C   UNL     1       8.066   7.376  18.308  0.00  0.00    +0.000 A 
ATOM     28  C   UNL     1       8.008   6.322  19.214  0.00  0.00    +0.000 A 
ATOM     29  C   UNL     1       7.316   5.162  18.878  0.00  0.00    +0.000 A 
ATOM     30  C   UNL     1       6.676   5.048  17.634  0.00  0.00    +0.000 A 
BRANCH  25  32
ATOM     31  C   UNL     1       6.463   5.047  14.619  0.00  0.00    +0.000 C 
ATOM     32  O   UNL     1       5.979   5.977  15.574  0.00  0.00    +0.000 OA
ENDBRANCH  25  32
ENDBRANCH  24  30
ENDBRANCH   1  24
TORSDOF 7
ENDMDL
MODEL 9
REMARK VINA RESULT:      -8.7      2.515      7.203
REMARK  Name = 
REMARK  8 active torsions:
REMARK  status: ('A' for Active; 'I' for Inactive)
REMARK    1  A    between atoms: C_1  and  O_2
REMARK    2  A    between atoms: O_2  and  C_3
REMARK    3  A    between atoms: C_8  and  O_9
REMARK    4  A    between atoms: O_9  and  C_10
REMARK    5  A    between atoms: C_12  and  N_13
REMARK    6  A    between atoms: N_13  and  C_14
REMARK    7  A    between atoms: C_19  and  C_20
REMARK    8  A    between atoms: C_23  and  C_24
REMARK                            x       y       z     vdW  Elec       q    Type
REMARK                         _______ _______ _______ _____ _____    ______ ____
ROOT
ATOM      1  C   UNL     1       1.515   9.048  19.398  0.00  0.00    +0.000 A 
ATOM      2  C   UNL     1       2.088   8.264  18.408  0.00  0.00    +0.000 A 
ATOM      3  C   UNL     1       2.357   6.908  18.652  0.00  0.00    +0.000 A 
ATOM      4  C   UNL     1       2.161   6.426  19.948  0.00  0.00    +0.000 A 
ATOM      5  C   UNL     1       1.616   7.308  20.885  0.00  0.00    +0.000 A 
ATOM      6  N   UNL     1       1.243   8.584  20.632  0.00  0.00    +0.000 NA
ENDROOT
BRANCH   4   7
ATOM      7  C   UNL     1       2.396   5.015  20.390  0.00  0.00    +0.000 C 
ATOM      8  F   UNL     1       1.659   4.061  19.760  0.00  0.00    +0.000 F 
ATOM      9  F   UNL     1       3.697   4.636  20.224  0.00  0.00    +0.000 F 
ATOM     10  F   UNL     1       2.142   4.849  21.721  0.00  0.00    +0.000 F 
ENDBRANCH   4   7
BRANCH   3  11
ATOM     11  N   UNL     1       2.789   6.065  17.597  0.00  0.00    +0.000 N 
ATOM     12  H   UNL     1       2.146   5.284  17.406  0.00  0.00    +0.000 HD
BRANCH  11  13
ATOM     13  C   UNL     1       4.139   5.715  17.314  0.00  0.00    +0.000 A 
ATOM     14  C   UNL     1       5.078   6.740  17.073  0.00  0.00    +0.000 A 
ATOM     15  C   UNL     1       6.424   6.467  16.860  0.00  0.00    +0.000 A 
ATOM     16  C   UNL     1       6.871   5.152  16.843  0.00  0.00    +0.000 A 
ATOM     17  C   UNL     1       5.949   4.112  16.991  0.00  0.00    +0.000 A 
ATOM     18  C   UNL     1       4.581   4.380  17.186  0.00  0.00    +0.000 A 
BRANCH  18  19
ATOM     19  C   UNL     1       3.626   3.246  17.277  0.00  0.00    +0.000 C 
ATOM     20  N   UNL     1       4.082   2.080  17.847  0.00  0.00    +0.000 N 
ATOM     21  O   UNL     1       2.487   3.326  16.830  0.00  0.00    +0.000 OA
ATOM     22  H   UNL     1       5.062   1.898  18.001  0.00  0.00    +0.000 HD
ATOM     23  H   UNL     1       3.466   1.281  17.809  0.00  0.00    +0.000 HD
ENDBRANCH  18  19
ENDBRANCH  11  13
ENDBRANCH   3  11
BRANCH   1  24
ATOM     24  O   UNL     1       1.106  10.310  18.978  0.00  0.00    +0.000 OA
BRANCH  24  30
ATOM     25  C   UNL     1      -0.879  11.543  19.723  0.00  0.00    +0.000 A 
ATOM     26  C   UNL     1      -2.207  11.890  19.443  0.00  0.00    +0.000 A 
ATOM     27  C   UNL     1      -2.867  11.361  18.329  0.00  0.00    +0.000 A 
ATOM     28  C   UNL     1      -2.210  10.468  17.489  0.00  0.00    +0.000 A 
ATOM     29  C   UNL     1      -0.899  10.094  17.771  0.00  0.00    +0.000 A 
ATOM     30  C   UNL     1      -0.235  10.612  18.894  0.00  0.00    +0.000 A 
BRANCH  25  32
ATOM     31  C   UNL     1      -0.535  11.741  22.072  0.00  0.00    +0.000 C 
ATOM     32  O   UNL     1      -0.144  12.074  20.750  0.00  0.00    +0.000 OA
ENDBRANCH  25  32
ENDBRANCH  24  30
ENDBRANCH   1  24
TORSDOF 7
ENDMDL
