MODEL 1
REMARK VINA RESULT:      -6.4      0.000      0.000
REMARK  Name = 
REMARK  12 active torsions:
REMARK  status: ('A' for Active; 'I' for Inactive)
REMARK    1  A    between atoms: C_1  and  C_2
REMARK    2  A    between atoms: C_2  and  C_3
REMARK    3  A    between atoms: C_3  and  C_4
REMARK    4  A    between atoms: C_4  and  C_5
REMARK    5  A    between atoms: C_5  and  C_6
REMARK    6  A    between atoms: C_6  and  C_7
REMARK    7  A    between atoms: C_7  and  C_8
REMARK    8  A    between atoms: C_8  and  N_9
REMARK    9  A    between atoms: N_9  and  C_10
REMARK   10  A    between atoms: C_13  and  O_14
REMARK   11  A    between atoms: C_15  and  O_16
REMARK   12  A    between atoms: C_17  and  O_18
REMARK                            x       y       z     vdW  Elec       q    Type
REMARK                         _______ _______ _______ _____ _____    ______ ____
ROOT
ATOM      1  C   UNL     1       5.979   4.891  19.067  0.00  0.00    +0.000 C 
ATOM      2  C   UNL     1       4.745   5.677  18.769  0.00  0.00    +0.000 C 
ATOM      3  C   UNL     1       4.626   6.563  17.784  0.00  0.00    +0.000 C 
ATOM      4  C   UNL     1       5.730   6.921  16.804  0.00  0.00    +0.000 C 
ATOM      5  C   UNL     1       7.097   6.207  17.031  0.00  0.00    +0.000 C 
ATOM      6  C   UNL     1       7.293   5.450  18.374  0.00  0.00    +0.000 C 
ENDROOT
BRANCH   1   7
ATOM      7  N   UNL     1       5.728   3.446  18.908  0.00  0.00    +0.000 NA
ATOM      8  H   UNL     1       6.083   3.081  18.014  0.00  0.00    +0.000 HD
BRANCH   7   9
ATOM      9  C   UNL     1       4.322   3.029  19.101  0.00  0.00    +0.000 C 
BRANCH   9  10
ATOM     10  C   UNL     1       3.829   2.217  17.913  0.00  0.00    +0.000 C 
BRANCH  10  11
ATOM     11  C   UNL     1       2.309   2.263  17.832  0.00  0.00    +0.000 C 
BRANCH  11  12
ATOM     12  C   UNL     1       1.782   3.661  18.145  0.00  0.00    +0.000 C 
BRANCH  12  13
ATOM     13  C   UNL     1       0.914   3.645  19.379  0.00  0.00    +0.000 C 
BRANCH  13  14
ATOM     14  C   UNL     1       1.453   4.669  20.368  0.00  0.00    +0.000 C 
BRANCH  14  16
ATOM     15  C   UNL     1       1.643   2.563  21.685  0.00  0.00    +0.000 C 
ATOM     16  C   UNL     1       2.178   3.977  21.516  0.00  0.00    +0.000 C 
ENDBRANCH  14  16
ENDBRANCH  13  14
ENDBRANCH  12  13
ENDBRANCH  11  12
ENDBRANCH  10  11
ENDBRANCH   9  10
ENDBRANCH   7   9
ENDBRANCH   1   7
BRANCH   4  17
ATOM     17  O   UNL     1       5.271   6.749  15.488  0.00  0.00    +0.000 OA
ATOM     18  H   UNL     1       6.049   6.475  14.929  0.00  0.00    +0.000 HD
ENDBRANCH   4  17
BRANCH   5  19
ATOM     19  O   UNL     1       7.515   5.443  15.916  0.00  0.00    +0.000 OA
ATOM     20  H   UNL     1       6.748   4.966  15.546  0.00  0.00    +0.000 HD
ENDBRANCH   5  19
BRANCH   6  21
ATOM     21  O   UNL     1       7.952   6.301  19.286  0.00  0.00    +0.000 OA
ATOM     22  H   UNL     1       8.882   5.991  19.396  0.00  0.00    +0.000 HD
ENDBRANCH   6  21
TORSDOF 11
ENDMDL
MODEL 2
REMARK VINA RESULT:      -6.3      4.113      6.493
REMARK  Name = 
REMARK  12 active torsions:
REMARK  status: ('A' for Active; 'I' for Inactive)
REMARK    1  A    between atoms: C_1  and  C_2
REMARK    2  A    between atoms: C_2  and  C_3
REMARK    3  A    between atoms: C_3  and  C_4
REMARK    4  A    between atoms: C_4  and  C_5
REMARK    5  A    between atoms: C_5  and  C_6
REMARK    6  A    between atoms: C_6  and  C_7
REMARK    7  A    between atoms: C_7  and  C_8
REMARK    8  A    between atoms: C_8  and  N_9
REMARK    9  A    between atoms: N_9  and  C_10
REMARK   10  A    between atoms: C_13  and  O_14
REMARK   11  A    between atoms: C_15  and  O_16
REMARK   12  A    between atoms: C_17  and  O_18
REMARK                            x       y       z     vdW  Elec       q    Type
REMARK                         _______ _______ _______ _____ _____    ______ ____
ROOT
ATOM      1  C   UNL     1       3.655   2.990  17.893  0.00  0.00    +0.000 C 
ATOM      2  C   UNL     1       2.364   2.241  17.924  0.00  0.00    +0.000 C 
ATOM      3  C   UNL     1       1.510   2.236  18.945  0.00  0.00    +0.000 C 
ATOM      4  C   UNL     1       1.716   2.989  20.248  0.00  0.00    +0.000 C 
ATOM      5  C   UNL     1       3.055   3.777  20.373  0.00  0.00    +0.000 C 
ATOM      6  C   UNL     1       4.156   3.487  19.315  0.00  0.00    +0.000 C 
ENDROOT
BRANCH   1   7
ATOM      7  N   UNL     1       3.645   4.002  16.820  0.00  0.00    +0.000 NA
ATOM      8  H   UNL     1       3.854   3.599  15.897  0.00  0.00    +0.000 HD
BRANCH   7   9
ATOM      9  C   UNL     1       4.505   5.181  17.063  0.00  0.00    +0.000 C 
BRANCH   9  10
ATOM     10  C   UNL     1       5.332   5.512  15.831  0.00  0.00    +0.000 C 
BRANCH  10  11
ATOM     11  C   UNL     1       5.541   4.267  14.980  0.00  0.00    +0.000 C 
BRANCH  11  12
ATOM     12  C   UNL     1       6.755   4.419  14.068  0.00  0.00    +0.000 C 
BRANCH  12  13
ATOM     13  C   UNL     1       6.456   3.903  12.681  0.00  0.00    +0.000 C 
BRANCH  13  14
ATOM     14  C   UNL     1       4.984   3.521  12.611  0.00  0.00    +0.000 C 
BRANCH  14  16
ATOM     15  C   UNL     1       3.446   3.438  10.652  0.00  0.00    +0.000 C 
ATOM     16  C   UNL     1       4.675   2.815  11.296  0.00  0.00    +0.000 C 
ENDBRANCH  14  16
ENDBRANCH  13  14
ENDBRANCH  12  13
ENDBRANCH  11  12
ENDBRANCH  10  11
ENDBRANCH   9  10
ENDBRANCH   7   9
ENDBRANCH   1   7
BRANCH   4  17
ATOM     17  O   UNL     1       0.607   3.813  20.499  0.00  0.00    +0.000 OA
ATOM     18  H   UNL     1      -0.126   3.236  20.852  0.00  0.00    +0.000 HD
ENDBRANCH   4  17
BRANCH   5  19
ATOM     19  O   UNL     1       2.863   5.164  20.584  0.00  0.00    +0.000 OA
ATOM     20  H   UNL     1       3.384   5.446  21.360  0.00  0.00    +0.000 HD
ENDBRANCH   5  19
BRANCH   6  21
ATOM     21  O   UNL     1       5.047   2.526  19.837  0.00  0.00    +0.000 OA
ATOM     22  H   UNL     1       5.132   1.786  19.190  0.00  0.00    +0.000 HD
ENDBRANCH   6  21
TORSDOF 11
ENDMDL
MODEL 3
REMARK VINA RESULT:      -6.2      1.614      2.465
REMARK  Name = 
REMARK  12 active torsions:
REMARK  status: ('A' for Active; 'I' for Inactive)
REMARK    1  A    between atoms: C_1  and  C_2
REMARK    2  A    between atoms: C_2  and  C_3
REMARK    3  A    between atoms: C_3  and  C_4
REMARK    4  A    between atoms: C_4  and  C_5
REMARK    5  A    between atoms: C_5  and  C_6
REMARK    6  A    between atoms: C_6  and  C_7
REMARK    7  A    between atoms: C_7  and  C_8
REMARK    8  A    between atoms: C_8  and  N_9
REMARK    9  A    between atoms: N_9  and  C_10
REMARK   10  A    between atoms: C_13  and  O_14
REMARK   11  A    between atoms: C_15  and  O_16
REMARK   12  A    between atoms: C_17  and  O_18
REMARK                            x       y       z     vdW  Elec       q    Type
REMARK                         _______ _______ _______ _____ _____    ______ ____
ROOT
ATOM      1  C   UNL     1       4.716   4.018  17.814  0.00  0.00    +0.000 C 
ATOM      2  C   UNL     1       4.426   4.837  16.600  0.00  0.00    +0.000 C 
ATOM      3  C   UNL     1       5.312   5.601  15.967  0.00  0.00    +0.000 C 
ATOM      4  C   UNL     1       6.764   5.765  16.380  0.00  0.00    +0.000 C 
ATOM      5  C   UNL     1       7.194   5.000  17.669  0.00  0.00    +0.000 C 
ATOM      6  C   UNL     1       6.066   4.403  18.555  0.00  0.00    +0.000 C 
ENDROOT
BRANCH   1   7
ATOM      7  N   UNL     1       4.519   2.583  17.533  0.00  0.00    +0.000 NA
ATOM      8  H   UNL     1       4.220   2.408  16.565  0.00  0.00    +0.000 HD
BRANCH   7   9
ATOM      9  C   UNL     1       3.621   1.878  18.474  0.00  0.00    +0.000 C 
BRANCH   9  10
ATOM     10  C   UNL     1       3.026   2.846  19.484  0.00  0.00    +0.000 C 
BRANCH  10  11
ATOM     11  C   UNL     1       1.505   2.783  19.449  0.00  0.00    +0.000 C 
BRANCH  11  12
ATOM     12  C   UNL     1       0.886   3.917  20.262  0.00  0.00    +0.000 C 
BRANCH  12  13
ATOM     13  C   UNL     1       1.956   4.798  20.860  0.00  0.00    +0.000 C 
BRANCH  13  14
ATOM     14  C   UNL     1       1.648   6.246  20.506  0.00  0.00    +0.000 C 
BRANCH  14  16
ATOM     15  C   UNL     1       2.118   7.046  18.194  0.00  0.00    +0.000 C 
ATOM     16  C   UNL     1       2.714   6.809  19.574  0.00  0.00    +0.000 C 
ENDBRANCH  14  16
ENDBRANCH  13  14
ENDBRANCH  12  13
ENDBRANCH  11  12
ENDBRANCH  10  11
ENDBRANCH   9  10
ENDBRANCH   7   9
ENDBRANCH   1   7
BRANCH   4  17
ATOM     17  O   UNL     1       7.604   5.461  15.296  0.00  0.00    +0.000 OA
ATOM     18  H   UNL     1       7.026   5.176  14.536  0.00  0.00    +0.000 HD
ENDBRANCH   4  17
BRANCH   5  19
ATOM     19  O   UNL     1       8.245   4.080  17.442  0.00  0.00    +0.000 OA
ATOM     20  H   UNL     1       8.456   3.620  18.277  0.00  0.00    +0.000 HD
ENDBRANCH   5  19
BRANCH   6  21
ATOM     21  O   UNL     1       5.765   5.317  19.587  0.00  0.00    +0.000 OA
ATOM     22  H   UNL     1       4.898   5.070  19.988  0.00  0.00    +0.000 HD
ENDBRANCH   6  21
TORSDOF 11
ENDMDL
MODEL 4
REMARK VINA RESULT:      -6.2      3.573      6.078
REMARK  Name = 
REMARK  12 active torsions:
REMARK  status: ('A' for Active; 'I' for Inactive)
REMARK    1  A    between atoms: C_1  and  C_2
REMARK    2  A    between atoms: C_2  and  C_3
REMARK    3  A    between atoms: C_3  and  C_4
REMARK    4  A    between atoms: C_4  and  C_5
REMARK    5  A    between atoms: C_5  and  C_6
REMARK    6  A    between atoms: C_6  and  C_7
REMARK    7  A    between atoms: C_7  and  C_8
REMARK    8  A    between atoms: C_8  and  N_9
REMARK    9  A    between atoms: N_9  and  C_10
REMARK   10  A    between atoms: C_13  and  O_14
REMARK   11  A    between atoms: C_15  and  O_16
REMARK   12  A    between atoms: C_17  and  O_18
REMARK                            x       y       z     vdW  Elec       q    Type
REMARK                         _______ _______ _______ _____ _____    ______ ____
ROOT
ATOM      1  C   UNL     1       3.938   2.398  19.872  0.00  0.00    +0.000 C 
ATOM      2  C   UNL     1       3.406   1.751  18.636  0.00  0.00    +0.000 C 
ATOM      3  C   UNL     1       2.282   2.102  18.017  0.00  0.00    +0.000 C 
ATOM      4  C   UNL     1       1.355   3.216  18.471  0.00  0.00    +0.000 C 
ATOM      5  C   UNL     1       1.766   3.948  19.785  0.00  0.00    +0.000 C 
ATOM      6  C   UNL     1       2.883   3.295  20.647  0.00  0.00    +0.000 C 
ENDROOT
BRANCH   1   7
ATOM      7  N   UNL     1       5.250   3.022  19.610  0.00  0.00    +0.000 NA
ATOM      8  H   UNL     1       5.852   3.036  20.444  0.00  0.00    +0.000 HD
BRANCH   7   9
ATOM      9  C   UNL     1       5.193   4.370  19.005  0.00  0.00    +0.000 C 
BRANCH   9  10
ATOM     10  C   UNL     1       5.932   4.401  17.677  0.00  0.00    +0.000 C 
BRANCH  10  11
ATOM     11  C   UNL     1       4.975   4.739  16.543  0.00  0.00    +0.000 C 
BRANCH  11  12
ATOM     12  C   UNL     1       5.666   5.576  15.469  0.00  0.00    +0.000 C 
BRANCH  12  13
ATOM     13  C   UNL     1       6.376   4.693  14.472  0.00  0.00    +0.000 C 
BRANCH  13  14
ATOM     14  C   UNL     1       5.334   3.899  13.695  0.00  0.00    +0.000 C 
BRANCH  14  16
ATOM     15  C   UNL     1       4.799   2.940  11.459  0.00  0.00    +0.000 C 
ATOM     16  C   UNL     1       5.920   3.381  12.388  0.00  0.00    +0.000 C 
ENDBRANCH  14  16
ENDBRANCH  13  14
ENDBRANCH  12  13
ENDBRANCH  11  12
ENDBRANCH  10  11
ENDBRANCH   9  10
ENDBRANCH   7   9
ENDBRANCH   1   7
BRANCH   4  17
ATOM     17  O   UNL     1       1.152   4.123  17.418  0.00  0.00    +0.000 OA
ATOM     18  H   UNL     1       1.987   4.656  17.311  0.00  0.00    +0.000 HD
ENDBRANCH   4  17
BRANCH   5  19
ATOM     19  O   UNL     1       1.968   5.337  19.606  0.00  0.00    +0.000 OA
ATOM     20  H   UNL     1       2.589   5.480  18.866  0.00  0.00    +0.000 HD
ENDBRANCH   5  19
BRANCH   6  21
ATOM     21  O   UNL     1       2.281   2.510  21.653  0.00  0.00    +0.000 OA
ATOM     22  H   UNL     1       2.989   2.047  22.161  0.00  0.00    +0.000 HD
ENDBRANCH   6  21
TORSDOF 11
ENDMDL
MODEL 5
REMARK VINA RESULT:      -6.2      1.158      1.776
REMARK  Name = 
REMARK  12 active torsions:
REMARK  status: ('A' for Active; 'I' for Inactive)
REMARK    1  A    between atoms: C_1  and  C_2
REMARK    2  A    between atoms: C_2  and  C_3
REMARK    3  A    between atoms: C_3  and  C_4
REMARK    4  A    between atoms: C_4  and  C_5
REMARK    5  A    between atoms: C_5  and  C_6
REMARK    6  A    between atoms: C_6  and  C_7
REMARK    7  A    between atoms: C_7  and  C_8
REMARK    8  A    between atoms: C_8  and  N_9
REMARK    9  A    between atoms: N_9  and  C_10
REMARK   10  A    between atoms: C_13  and  O_14
REMARK   11  A    between atoms: C_15  and  O_16
REMARK   12  A    between atoms: C_17  and  O_18
REMARK                            x       y       z     vdW  Elec       q    Type
REMARK                         _______ _______ _______ _____ _____    ______ ____
ROOT
ATOM      1  C   UNL     1       4.835   4.187  18.494  0.00  0.00    +0.000 C 
ATOM      2  C   UNL     1       3.844   5.162  17.952  0.00  0.00    +0.000 C 
ATOM      3  C   UNL     1       4.149   6.228  17.216  0.00  0.00    +0.000 C 
ATOM      4  C   UNL     1       5.558   6.626  16.812  0.00  0.00    +0.000 C 
ATOM      5  C   UNL     1       6.702   5.718  17.355  0.00  0.00    +0.000 C 
ATOM      6  C   UNL     1       6.338   4.699  18.471  0.00  0.00    +0.000 C 
ENDROOT
BRANCH   1   7
ATOM      7  N   UNL     1       4.602   2.841  17.936  0.00  0.00    +0.000 NA
ATOM      8  H   UNL     1       5.198   2.645  17.121  0.00  0.00    +0.000 HD
BRANCH   7   9
ATOM      9  C   UNL     1       3.192   2.531  17.617  0.00  0.00    +0.000 C 
BRANCH   9  10
ATOM     10  C   UNL     1       2.502   1.865  18.797  0.00  0.00    +0.000 C 
BRANCH  10  11
ATOM     11  C   UNL     1       1.025   2.233  18.827  0.00  0.00    +0.000 C 
BRANCH  11  12
ATOM     12  C   UNL     1       0.721   3.199  19.968  0.00  0.00    +0.000 C 
BRANCH  12  13
ATOM     13  C   UNL     1       1.831   3.194  20.990  0.00  0.00    +0.000 C 
BRANCH  13  14
ATOM     14  C   UNL     1       2.267   4.631  21.244  0.00  0.00    +0.000 C 
BRANCH  14  16
ATOM     15  C   UNL     1       1.955   6.992  20.513  0.00  0.00    +0.000 C 
ATOM     16  C   UNL     1       1.325   5.608  20.551  0.00  0.00    +0.000 C 
ENDBRANCH  14  16
ENDBRANCH  13  14
ENDBRANCH  12  13
ENDBRANCH  11  12
ENDBRANCH  10  11
ENDBRANCH   9  10
ENDBRANCH   7   9
ENDBRANCH   1   7
BRANCH   4  17
ATOM     17  O   UNL     1       5.629   6.766  15.416  0.00  0.00    +0.000 OA
ATOM     18  H   UNL     1       4.736   6.530  15.042  0.00  0.00    +0.000 HD
ENDBRANCH   4  17
BRANCH   5  19
ATOM     19  O   UNL     1       7.481   5.134  16.327  0.00  0.00    +0.000 OA
ATOM     20  H   UNL     1       8.220   5.731  16.105  0.00  0.00    +0.000 HD
ENDBRANCH   5  19
BRANCH   6  21
ATOM     21  O   UNL     1       6.635   5.272  19.726  0.00  0.00    +0.000 OA
ATOM     22  H   UNL     1       5.790   5.519  20.171  0.00  0.00    +0.000 HD
ENDBRANCH   6  21
TORSDOF 11
ENDMDL
MODEL 6
REMARK VINA RESULT:      -6.2      3.431      6.172
REMARK  Name = 
REMARK  12 active torsions:
REMARK  status: ('A' for Active; 'I' for Inactive)
REMARK    1  A    between atoms: C_1  and  C_2
REMARK    2  A    between atoms: C_2  and  C_3
REMARK    3  A    between atoms: C_3  and  C_4
REMARK    4  A    between atoms: C_4  and  C_5
REMARK    5  A    between atoms: C_5  and  C_6
REMARK    6  A    between atoms: C_6  and  C_7
REMARK    7  A    between atoms: C_7  and  C_8
REMARK    8  A    between atoms: C_8  and  N_9
REMARK    9  A    between atoms: N_9  and  C_10
REMARK   10  A    between atoms: C_13  and  O_14
REMARK   11  A    between atoms: C_15  and  O_16
REMARK   12  A    between atoms: C_17  and  O_18
REMARK                            x       y       z     vdW  Elec       q    Type
REMARK                         _______ _______ _______ _____ _____    ______ ____
ROOT
ATOM      1  C   UNL     1       4.047   3.238  18.345  0.00  0.00    +0.000 C 
ATOM      2  C   UNL     1       3.280   4.443  17.913  0.00  0.00    +0.000 C 
ATOM      3  C   UNL     1       2.147   4.865  18.468  0.00  0.00    +0.000 C 
ATOM      4  C   UNL     1       1.447   4.182  19.630  0.00  0.00    +0.000 C 
ATOM      5  C   UNL     1       2.116   2.874  20.152  0.00  0.00    +0.000 C 
ATOM      6  C   UNL     1       3.231   2.242  19.273  0.00  0.00    +0.000 C 
ENDROOT
BRANCH   1   7
ATOM      7  N   UNL     1       5.389   3.618  18.826  0.00  0.00    +0.000 NA
ATOM      8  H   UNL     1       5.718   3.014  19.591  0.00  0.00    +0.000 HD
BRANCH   7   9
ATOM      9  C   UNL     1       5.540   5.039  19.205  0.00  0.00    +0.000 C 
BRANCH   9  10
ATOM     10  C   UNL     1       6.965   5.514  18.974  0.00  0.00    +0.000 C 
BRANCH  10  11
ATOM     11  C   UNL     1       7.489   4.996  17.641  0.00  0.00    +0.000 C 
BRANCH  11  12
ATOM     12  C   UNL     1       7.168   5.966  16.507  0.00  0.00    +0.000 C 
BRANCH  12  13
ATOM     13  C   UNL     1       6.096   5.403  15.605  0.00  0.00    +0.000 C 
BRANCH  13  14
ATOM     14  C   UNL     1       6.753   4.879  14.336  0.00  0.00    +0.000 C 
BRANCH  14  16
ATOM     15  C   UNL     1       6.412   3.502  12.288  0.00  0.00    +0.000 C 
ATOM     16  C   UNL     1       5.878   3.820  13.677  0.00  0.00    +0.000 C 
ENDBRANCH  14  16
ENDBRANCH  13  14
ENDBRANCH  12  13
ENDBRANCH  11  12
ENDBRANCH  10  11
ENDBRANCH   9  10
ENDBRANCH   7   9
ENDBRANCH   1   7
BRANCH   4  17
ATOM     17  O   UNL     1       1.241   5.105  20.668  0.00  0.00    +0.000 OA
ATOM     18  H   UNL     1       1.505   4.665  21.523  0.00  0.00    +0.000 HD
ENDBRANCH   4  17
BRANCH   5  19
ATOM     19  O   UNL     1       2.484   2.946  21.517  0.00  0.00    +0.000 OA
ATOM     20  H   UNL     1       2.177   3.795  21.889  0.00  0.00    +0.000 HD
ENDBRANCH   5  19
BRANCH   6  21
ATOM     21  O   UNL     1       2.657   1.241  18.460  0.00  0.00    +0.000 OA
ATOM     22  H   UNL     1       3.306   0.505  18.355  0.00  0.00    +0.000 HD
ENDBRANCH   6  21
TORSDOF 11
ENDMDL
MODEL 7
REMARK VINA RESULT:      -6.1      1.274      1.864
REMARK  Name = 
REMARK  12 active torsions:
REMARK  status: ('A' for Active; 'I' for Inactive)
REMARK    1  A    between atoms: C_1  and  C_2
REMARK    2  A    between atoms: C_2  and  C_3
REMARK    3  A    between atoms: C_3  and  C_4
REMARK    4  A    between atoms: C_4  and  C_5
REMARK    5  A    between atoms: C_5  and  C_6
REMARK    6  A    between atoms: C_6  and  C_7
REMARK    7  A    between atoms: C_7  and  C_8
REMARK    8  A    between atoms: C_8  and  N_9
REMARK    9  A    between atoms: N_9  and  C_10
REMARK   10  A    between atoms: C_13  and  O_14
REMARK   11  A    between atoms: C_15  and  O_16
REMARK   12  A    between atoms: C_17  and  O_18
REMARK                            x       y       z     vdW  Elec       q    Type
REMARK                         _______ _______ _______ _____ _____    ______ ____
ROOT
ATOM      1  C   UNL     1       4.956   4.475  18.319  0.00  0.00    +0.000 C 
ATOM      2  C   UNL     1       4.554   5.439  17.252  0.00  0.00    +0.000 C 
ATOM      3  C   UNL     1       5.400   6.102  16.467  0.00  0.00    +0.000 C 
ATOM      4  C   UNL     1       6.913   5.988  16.534  0.00  0.00    +0.000 C 
ATOM      5  C   UNL     1       7.475   5.048  17.643  0.00  0.00    +0.000 C 
ATOM      6  C   UNL     1       6.484   4.564  18.739  0.00  0.00    +0.000 C 
ENDROOT
BRANCH   1   7
ATOM      7  N   UNL     1       4.445   3.123  18.020  0.00  0.00    +0.000 NA
ATOM      8  H   UNL     1       3.676   3.135  17.337  0.00  0.00    +0.000 HD
BRANCH   7   9
ATOM      9  C   UNL     1       4.059   2.323  19.202  0.00  0.00    +0.000 C 
BRANCH   9  10
ATOM     10  C   UNL     1       2.616   1.859  19.096  0.00  0.00    +0.000 C 
BRANCH  10  11
ATOM     11  C   UNL     1       1.872   2.670  18.043  0.00  0.00    +0.000 C 
BRANCH  11  12
ATOM     12  C   UNL     1       1.374   3.994  18.617  0.00  0.00    +0.000 C 
BRANCH  12  13
ATOM     13  C   UNL     1       0.904   3.821  20.041  0.00  0.00    +0.000 C 
BRANCH  13  14
ATOM     14  C   UNL     1       1.664   4.800  20.926  0.00  0.00    +0.000 C 
BRANCH  14  16
ATOM     15  C   UNL     1       1.625   7.279  20.684  0.00  0.00    +0.000 C 
ATOM     16  C   UNL     1       2.171   5.981  20.108  0.00  0.00    +0.000 C 
ENDBRANCH  14  16
ENDBRANCH  13  14
ENDBRANCH  12  13
ENDBRANCH  11  12
ENDBRANCH  10  11
ENDBRANCH   9  10
ENDBRANCH   7   9
ENDBRANCH   1   7
BRANCH   4  17
ATOM     17  O   UNL     1       7.420   5.651  15.268  0.00  0.00    +0.000 OA
ATOM     18  H   UNL     1       8.414   5.664  15.326  0.00  0.00    +0.000 HD
ENDBRANCH   4  17
BRANCH   5  19
ATOM     19  O   UNL     1       8.264   3.992  17.128  0.00  0.00    +0.000 OA
ATOM     20  H   UNL     1       8.996   3.806  17.747  0.00  0.00    +0.000 HD
ENDBRANCH   5  19
BRANCH   6  21
ATOM     21  O   UNL     1       6.591   5.417  19.858  0.00  0.00    +0.000 OA
ATOM     22  H   UNL     1       5.964   6.170  19.746  0.00  0.00    +0.000 HD
ENDBRANCH   6  21
TORSDOF 11
ENDMDL
MODEL 8
REMARK VINA RESULT:      -6.1      4.090      6.454
REMARK  Name = 
REMARK  12 active torsions:
REMARK  status: ('A' for Active; 'I' for Inactive)
REMARK    1  A    between atoms: C_1  and  C_2
REMARK    2  A    between atoms: C_2  and  C_3
REMARK    3  A    between atoms: C_3  and  C_4
REMARK    4  A    between atoms: C_4  and  C_5
REMARK    5  A    between atoms: C_5  and  C_6
REMARK    6  A    between atoms: C_6  and  C_7
REMARK    7  A    between atoms: C_7  and  C_8
REMARK    8  A    between atoms: C_8  and  N_9
REMARK    9  A    between atoms: N_9  and  C_10
REMARK   10  A    between atoms: C_13  and  O_14
REMARK   11  A    between atoms: C_15  and  O_16
REMARK   12  A    between atoms: C_17  and  O_18
REMARK                            x       y       z     vdW  Elec       q    Type
REMARK                         _______ _______ _______ _____ _____    ______ ____
ROOT
ATOM      1  C   UNL     1       4.282   3.392  18.334  0.00  0.00    +0.000 C 
ATOM      2  C   UNL     1       3.338   4.472  17.923  0.00  0.00    +0.000 C 
ATOM      3  C   UNL     1       2.129   4.666  18.444  0.00  0.00    +0.000 C 
ATOM      4  C   UNL     1       1.513   3.814  19.540  0.00  0.00    +0.000 C 
ATOM      5  C   UNL     1       2.375   2.612  20.032  0.00  0.00    +0.000 C 
ATOM      6  C   UNL     1       3.613   2.224  19.177  0.00  0.00    +0.000 C 
ENDROOT
BRANCH   1   7
ATOM      7  N   UNL     1       5.520   3.966  18.894  0.00  0.00    +0.000 NA
ATOM      8  H   UNL     1       5.410   4.260  19.874  0.00  0.00    +0.000 HD
BRANCH   7   9
ATOM      9  C   UNL     1       6.116   5.064  18.102  0.00  0.00    +0.000 C 
BRANCH   9  10
ATOM     10  C   UNL     1       6.876   4.518  16.904  0.00  0.00    +0.000 C 
BRANCH  10  11
ATOM     11  C   UNL     1       6.245   5.003  15.607  0.00  0.00    +0.000 C 
BRANCH  11  12
ATOM     12  C   UNL     1       6.193   3.888  14.567  0.00  0.00    +0.000 C 
BRANCH  12  13
ATOM     13  C   UNL     1       6.121   4.456  13.170  0.00  0.00    +0.000 C 
BRANCH  13  14
ATOM     14  C   UNL     1       6.590   3.393  12.186  0.00  0.00    +0.000 C 
BRANCH  14  16
ATOM     15  C   UNL     1       4.254   3.268  11.328  0.00  0.00    +0.000 C 
ATOM     16  C   UNL     1       5.444   2.458  11.821  0.00  0.00    +0.000 C 
ENDBRANCH  14  16
ENDBRANCH  13  14
ENDBRANCH  12  13
ENDBRANCH  11  12
ENDBRANCH  10  11
ENDBRANCH   9  10
ENDBRANCH   7   9
ENDBRANCH   1   7
BRANCH   4  17
ATOM     17  O   UNL     1       1.113   4.633  20.609  0.00  0.00    +0.000 OA
ATOM     18  H   UNL     1       0.365   5.207  20.288  0.00  0.00    +0.000 HD
ENDBRANCH   4  17
BRANCH   5  19
ATOM     19  O   UNL     1       2.673   2.672  21.414  0.00  0.00    +0.000 OA
ATOM     20  H   UNL     1       2.438   1.822  21.832  0.00  0.00    +0.000 HD
ENDBRANCH   5  19
BRANCH   6  21
ATOM     21  O   UNL     1       3.250   1.186  18.293  0.00  0.00    +0.000 OA
ATOM     22  H   UNL     1       3.838   0.411  18.453  0.00  0.00    +0.000 HD
ENDBRANCH   6  21
TORSDOF 11
ENDMDL
MODEL 9
REMARK VINA RESULT:      -6.1      3.788      6.215
REMARK  Name = 
REMARK  12 active torsions:
REMARK  status: ('A' for Active; 'I' for Inactive)
REMARK    1  A    between atoms: C_1  and  C_2
REMARK    2  A    between atoms: C_2  and  C_3
REMARK    3  A    between atoms: C_3  and  C_4
REMARK    4  A    between atoms: C_4  and  C_5
REMARK    5  A    between atoms: C_5  and  C_6
REMARK    6  A    between atoms: C_6  and  C_7
REMARK    7  A    between atoms: C_7  and  C_8
REMARK    8  A    between atoms: C_8  and  N_9
REMARK    9  A    between atoms: N_9  and  C_10
REMARK   10  A    between atoms: C_13  and  O_14
REMARK   11  A    between atoms: C_15  and  O_16
REMARK   12  A    between atoms: C_17  and  O_18
REMARK                            x       y       z     vdW  Elec       q    Type
REMARK                         _______ _______ _______ _____ _____    ______ ____
ROOT
ATOM      1  C   UNL     1       4.299   3.838  18.557  0.00  0.00    +0.000 C 
ATOM      2  C   UNL     1       3.135   3.628  17.646  0.00  0.00    +0.000 C 
ATOM      3  C   UNL     1       1.993   3.040  17.992  0.00  0.00    +0.000 C 
ATOM      4  C   UNL     1       1.691   2.483  19.372  0.00  0.00    +0.000 C 
ATOM      5  C   UNL     1       2.844   2.591  20.416  0.00  0.00    +0.000 C 
ATOM      6  C   UNL     1       4.255   2.970  19.885  0.00  0.00    +0.000 C 
ENDROOT
BRANCH   1   7
ATOM      7  N   UNL     1       4.569   5.278  18.735  0.00  0.00    +0.000 NA
ATOM      8  H   UNL     1       3.778   5.866  18.441  0.00  0.00    +0.000 HD
BRANCH   7   9
ATOM      9  C   UNL     1       5.818   5.763  18.109  0.00  0.00    +0.000 C 
BRANCH   9  10
ATOM     10  C   UNL     1       6.753   4.606  17.796  0.00  0.00    +0.000 C 
BRANCH  10  11
ATOM     11  C   UNL     1       7.090   4.581  16.312  0.00  0.00    +0.000 C 
BRANCH  11  12
ATOM     12  C   UNL     1       6.074   5.381  15.501  0.00  0.00    +0.000 C 
BRANCH  12  13
ATOM     13  C   UNL     1       5.247   4.472  14.625  0.00  0.00    +0.000 C 
BRANCH  13  14
ATOM     14  C   UNL     1       6.171   3.780  13.632  0.00  0.00    +0.000 C 
BRANCH  14  16
ATOM     15  C   UNL     1       6.078   2.259  11.661  0.00  0.00    +0.000 C 
ATOM     16  C   UNL     1       5.424   3.450  12.346  0.00  0.00    +0.000 C 
ENDBRANCH  14  16
ENDBRANCH  13  14
ENDBRANCH  12  13
ENDBRANCH  11  12
ENDBRANCH  10  11
ENDBRANCH   9  10
ENDBRANCH   7   9
ENDBRANCH   1   7
BRANCH   4  17
ATOM     17  O   UNL     1       0.500   3.046  19.860  0.00  0.00    +0.000 OA
ATOM     18  H   UNL     1       0.721   3.555  20.688  0.00  0.00    +0.000 HD
ENDBRANCH   4  17
BRANCH   5  19
ATOM     19  O   UNL     1       2.484   3.335  21.565  0.00  0.00    +0.000 OA
ATOM     20  H   UNL     1       3.291   3.581  22.056  0.00  0.00    +0.000 HD
ENDBRANCH   5  19
BRANCH   6  21
ATOM     21  O   UNL     1       4.993   1.787  19.671  0.00  0.00    +0.000 OA
ATOM     22  H   UNL     1       4.605   1.303  18.904  0.00  0.00    +0.000 HD
ENDBRANCH   6  21
TORSDOF 11
ENDMDL
