MODEL 1
REMARK VINA RESULT:      -7.9      0.000      0.000
REMARK  Name = 
REMARK  5 active torsions:
REMARK  status: ('A' for Active; 'I' for Inactive)
REMARK    1  A    between atoms: C_8  and  C_9
REMARK    2  A    between atoms: C_12  and  C_13
REMARK    3  A    between atoms: C_16  and  C_17
REMARK    4  A    between atoms: C_17  and  O_19
REMARK    5  A    between atoms: C_20  and  O_21
REMARK                            x       y       z     vdW  Elec       q    Type
REMARK                         _______ _______ _______ _____ _____    ______ ____
ROOT
ATOM      1  C   UNL     1       1.742   6.433  20.540  0.00  0.00    +0.000 A 
ATOM      2  C   UNL     1       1.178   5.164  20.517  0.00  0.00    +0.000 A 
ATOM      3  C   UNL     1       1.827   4.416  19.500  0.00  0.00    +0.000 A 
ATOM      4  C   UNL     1       2.773   5.251  18.948  0.00  0.00    +0.000 A 
ATOM      5  O   UNL     1       2.732   6.451  19.589  0.00  0.00    +0.000 OA
ENDROOT
BRANCH   1  13
ATOM      6  O   UNL     1       0.830   9.786  23.090  0.00  0.00    +0.000 OA
ATOM      7  C   UNL     1       0.856   9.879  21.872  0.00  0.00    +0.000 C 
ATOM      8  N   UNL     1       0.600  11.027  21.175  0.00  0.00    +0.000 N 
ATOM      9  C   UNL     1       0.652  10.974  19.816  0.00  0.00    +0.000 C 
ATOM     10  S   UNL     1       0.348  12.271  18.833  0.00  0.00    +0.000 S 
ATOM     11  S   UNL     1       1.078   9.361  19.305  0.00  0.00    +0.000 S 
ATOM     12  C   UNL     1       1.164   8.772  20.928  0.00  0.00    +0.000 C 
ATOM     13  C   UNL     1       1.422   7.536  21.377  0.00  0.00    +0.000 C 
ATOM     14  H   UNL     1       0.372  11.879  21.663  0.00  0.00    +0.000 HD
ENDBRANCH   1  13
BRANCH   4  15
ATOM     15  C   UNL     1       3.726   5.153  17.846  0.00  0.00    +0.000 A 
ATOM     16  C   UNL     1       3.851   3.965  17.103  0.00  0.00    +0.000 A 
ATOM     17  C   UNL     1       4.826   3.831  16.108  0.00  0.00    +0.000 A 
ATOM     18  C   UNL     1       5.692   4.891  15.833  0.00  0.00    +0.000 A 
ATOM     19  C   UNL     1       5.562   6.078  16.555  0.00  0.00    +0.000 A 
ATOM     20  C   UNL     1       4.580   6.221  17.538  0.00  0.00    +0.000 A 
BRANCH  18  21
ATOM     21  C   UNL     1       6.738   4.682  14.801  0.00  0.00    +0.000 C 
ATOM     22  O   UNL     1       7.710   5.410  14.687  0.00  0.00    +0.000 OA
BRANCH  21  23
ATOM     23  O   UNL     1       6.518   3.611  14.007  0.00  0.00    +0.000 OA
ATOM     24  H   UNL     1       7.171   3.519  13.279  0.00  0.00    +0.000 HD
ENDBRANCH  21  23
ENDBRANCH  18  21
BRANCH  19  25
ATOM     25  O   UNL     1       6.397   7.144  16.348  0.00  0.00    +0.000 OA
ATOM     26  H   UNL     1       7.286   6.778  16.164  0.00  0.00    +0.000 HD
ENDBRANCH  19  25
ENDBRANCH   4  15
TORSDOF 5
ENDMDL
MODEL 2
REMARK VINA RESULT:      -7.7      3.935      7.967
REMARK  Name = 
REMARK  5 active torsions:
REMARK  status: ('A' for Active; 'I' for Inactive)
REMARK    1  A    between atoms: C_8  and  C_9
REMARK    2  A    between atoms: C_12  and  C_13
REMARK    3  A    between atoms: C_16  and  C_17
REMARK    4  A    between atoms: C_17  and  O_19
REMARK    5  A    between atoms: C_20  and  O_21
REMARK                            x       y       z     vdW  Elec       q    Type
REMARK                         _______ _______ _______ _____ _____    ______ ____
ROOT
ATOM      1  C   UNL     1       4.285   5.323  19.404  0.00  0.00    +0.000 A 
ATOM      2  C   UNL     1       3.311   4.431  19.835  0.00  0.00    +0.000 A 
ATOM      3  C   UNL     1       2.140   5.174  20.135  0.00  0.00    +0.000 A 
ATOM      4  C   UNL     1       2.435   6.491  19.863  0.00  0.00    +0.000 A 
ATOM      5  O   UNL     1       3.714   6.572  19.405  0.00  0.00    +0.000 OA
ENDROOT
BRANCH   1  13
ATOM      6  O   UNL     1       8.333   4.467  18.198  0.00  0.00    +0.000 OA
ATOM      7  C   UNL     1       7.406   4.489  17.404  0.00  0.00    +0.000 C 
ATOM      8  N   UNL     1       7.526   4.258  16.062  0.00  0.00    +0.000 N 
ATOM      9  C   UNL     1       6.403   4.332  15.297  0.00  0.00    +0.000 C 
ATOM     10  S   UNL     1       6.389   4.098  13.658  0.00  0.00    +0.000 S 
ATOM     11  S   UNL     1       5.027   4.704  16.305  0.00  0.00    +0.000 S 
ATOM     12  C   UNL     1       5.985   4.773  17.743  0.00  0.00    +0.000 C 
ATOM     13  C   UNL     1       5.621   5.059  19.000  0.00  0.00    +0.000 C 
ATOM     14  H   UNL     1       8.426   4.049  15.660  0.00  0.00    +0.000 HD
ENDBRANCH   1  13
BRANCH   4  15
ATOM     15  C   UNL     1       1.729   7.762  20.002  0.00  0.00    +0.000 A 
ATOM     16  C   UNL     1       1.073   8.097  21.199  0.00  0.00    +0.000 A 
ATOM     17  C   UNL     1       0.317   9.269  21.309  0.00  0.00    +0.000 A 
ATOM     18  C   UNL     1       0.208  10.134  20.219  0.00  0.00    +0.000 A 
ATOM     19  C   UNL     1       0.871   9.816  19.032  0.00  0.00    +0.000 A 
ATOM     20  C   UNL     1       1.640   8.655  18.924  0.00  0.00    +0.000 A 
BRANCH  18  21
ATOM     21  C   UNL     1      -0.643  11.340  20.371  0.00  0.00    +0.000 C 
ATOM     22  O   UNL     1      -1.483  11.665  19.549  0.00  0.00    +0.000 OA
BRANCH  21  23
ATOM     23  O   UNL     1      -0.408  12.036  21.506  0.00  0.00    +0.000 OA
ATOM     24  H   UNL     1       0.182  12.811  21.377  0.00  0.00    +0.000 HD
ENDBRANCH  21  23
ENDBRANCH  18  21
BRANCH  19  25
ATOM     25  O   UNL     1       0.785  10.612  17.921  0.00  0.00    +0.000 OA
ATOM     26  H   UNL     1       0.177  11.346  18.143  0.00  0.00    +0.000 HD
ENDBRANCH  19  25
ENDBRANCH   4  15
TORSDOF 5
ENDMDL
MODEL 3
REMARK VINA RESULT:      -7.7      2.867      4.239
REMARK  Name = 
REMARK  5 active torsions:
REMARK  status: ('A' for Active; 'I' for Inactive)
REMARK    1  A    between atoms: C_8  and  C_9
REMARK    2  A    between atoms: C_12  and  C_13
REMARK    3  A    between atoms: C_16  and  C_17
REMARK    4  A    between atoms: C_17  and  O_19
REMARK    5  A    between atoms: C_20  and  O_21
REMARK                            x       y       z     vdW  Elec       q    Type
REMARK                         _______ _______ _______ _____ _____    ______ ____
ROOT
ATOM      1  C   UNL     1       0.770   9.775  20.215  0.00  0.00    +0.000 A 
ATOM      2  C   UNL     1       0.573   9.296  21.503  0.00  0.00    +0.000 A 
ATOM      3  C   UNL     1       1.152   8.003  21.582  0.00  0.00    +0.000 A 
ATOM      4  C   UNL     1       1.694   7.743  20.343  0.00  0.00    +0.000 A 
ATOM      5  O   UNL     1       1.482   8.817  19.534  0.00  0.00    +0.000 OA
ENDROOT
BRANCH   1  13
ATOM      6  O   UNL     1      -0.408  13.539  18.476  0.00  0.00    +0.000 OA
ATOM      7  C   UNL     1      -0.869  12.472  18.099  0.00  0.00    +0.000 C 
ATOM      8  N   UNL     1      -1.798  12.334  17.107  0.00  0.00    +0.000 N 
ATOM      9  C   UNL     1      -2.230  11.080  16.805  0.00  0.00    +0.000 C 
ATOM     10  S   UNL     1      -3.365  10.752  15.645  0.00  0.00    +0.000 S 
ATOM     11  S   UNL     1      -1.413   9.916  17.816  0.00  0.00    +0.000 S 
ATOM     12  C   UNL     1      -0.511  11.136  18.646  0.00  0.00    +0.000 C 
ATOM     13  C   UNL     1       0.365  11.015  19.652  0.00  0.00    +0.000 C 
ATOM     14  H   UNL     1      -2.153  13.146  16.626  0.00  0.00    +0.000 HD
ENDBRANCH   1  13
BRANCH   4  15
ATOM     15  C   UNL     1       2.367   6.605  19.723  0.00  0.00    +0.000 A 
ATOM     16  C   UNL     1       2.943   6.716  18.445  0.00  0.00    +0.000 A 
ATOM     17  C   UNL     1       3.506   5.607  17.804  0.00  0.00    +0.000 A 
ATOM     18  C   UNL     1       3.509   4.362  18.437  0.00  0.00    +0.000 A 
ATOM     19  C   UNL     1       2.954   4.249  19.713  0.00  0.00    +0.000 A 
ATOM     20  C   UNL     1       2.405   5.357  20.362  0.00  0.00    +0.000 A 
BRANCH  18  21
ATOM     21  C   UNL     1       4.077   3.209  17.697  0.00  0.00    +0.000 C 
ATOM     22  O   UNL     1       3.603   2.086  17.757  0.00  0.00    +0.000 OA
BRANCH  21  23
ATOM     23  O   UNL     1       5.157   3.518  16.947  0.00  0.00    +0.000 OA
ATOM     24  H   UNL     1       5.711   4.234  17.328  0.00  0.00    +0.000 HD
ENDBRANCH  21  23
ENDBRANCH  18  21
BRANCH  19  25
ATOM     25  O   UNL     1       2.906   3.052  20.376  0.00  0.00    +0.000 OA
ATOM     26  H   UNL     1       3.480   3.139  21.164  0.00  0.00    +0.000 HD
ENDBRANCH  19  25
ENDBRANCH   4  15
TORSDOF 5
ENDMDL
MODEL 4
REMARK VINA RESULT:      -7.7      2.896      4.326
REMARK  Name = 
REMARK  5 active torsions:
REMARK  status: ('A' for Active; 'I' for Inactive)
REMARK    1  A    between atoms: C_8  and  C_9
REMARK    2  A    between atoms: C_12  and  C_13
REMARK    3  A    between atoms: C_16  and  C_17
REMARK    4  A    between atoms: C_17  and  O_19
REMARK    5  A    between atoms: C_20  and  O_21
REMARK                            x       y       z     vdW  Elec       q    Type
REMARK                         _______ _______ _______ _____ _____    ______ ____
ROOT
ATOM      1  C   UNL     1       0.762   9.885  20.351  0.00  0.00    +0.000 A 
ATOM      2  C   UNL     1       0.544   9.537  21.678  0.00  0.00    +0.000 A 
ATOM      3  C   UNL     1       1.017   8.213  21.865  0.00  0.00    +0.000 A 
ATOM      4  C   UNL     1       1.520   7.804  20.651  0.00  0.00    +0.000 A 
ATOM      5  O   UNL     1       1.384   8.817  19.752  0.00  0.00    +0.000 OA
ENDROOT
BRANCH   1  13
ATOM      6  O   UNL     1      -0.134  13.566  18.295  0.00  0.00    +0.000 OA
ATOM      7  C   UNL     1      -0.736  12.527  18.067  0.00  0.00    +0.000 C 
ATOM      8  N   UNL     1      -1.749  12.399  17.159  0.00  0.00    +0.000 N 
ATOM      9  C   UNL     1      -2.336  11.179  17.025  0.00  0.00    +0.000 C 
ATOM     10  S   UNL     1      -3.587  10.870  15.985  0.00  0.00    +0.000 S 
ATOM     11  S   UNL     1      -1.573  10.036  18.101  0.00  0.00    +0.000 S 
ATOM     12  C   UNL     1      -0.483  11.220  18.731  0.00  0.00    +0.000 C 
ATOM     13  C   UNL     1       0.451  11.101  19.684  0.00  0.00    +0.000 C 
ATOM     14  H   UNL     1      -2.050  13.194  16.618  0.00  0.00    +0.000 HD
ENDBRANCH   1  13
BRANCH   4  15
ATOM     15  C   UNL     1       2.090   6.565  20.128  0.00  0.00    +0.000 A 
ATOM     16  C   UNL     1       1.743   5.320  20.681  0.00  0.00    +0.000 A 
ATOM     17  C   UNL     1       2.355   4.138  20.249  0.00  0.00    +0.000 A 
ATOM     18  C   UNL     1       3.325   4.180  19.246  0.00  0.00    +0.000 A 
ATOM     19  C   UNL     1       3.662   5.412  18.681  0.00  0.00    +0.000 A 
ATOM     20  C   UNL     1       3.042   6.591  19.098  0.00  0.00    +0.000 A 
BRANCH  18  21
ATOM     21  C   UNL     1       3.976   2.906  18.857  0.00  0.00    +0.000 C 
ATOM     22  O   UNL     1       3.374   1.994  18.316  0.00  0.00    +0.000 OA
BRANCH  21  23
ATOM     23  O   UNL     1       5.295   2.854  19.147  0.00  0.00    +0.000 OA
ATOM     24  H   UNL     1       5.753   3.718  19.055  0.00  0.00    +0.000 HD
ENDBRANCH  21  23
ENDBRANCH  18  21
BRANCH  19  25
ATOM     25  O   UNL     1       4.622   5.521  17.710  0.00  0.00    +0.000 OA
ATOM     26  H   UNL     1       4.172   5.401  16.850  0.00  0.00    +0.000 HD
ENDBRANCH  19  25
ENDBRANCH   4  15
TORSDOF 5
ENDMDL
MODEL 5
REMARK VINA RESULT:      -7.7      2.575      3.266
REMARK  Name = 
REMARK  5 active torsions:
REMARK  status: ('A' for Active; 'I' for Inactive)
REMARK    1  A    between atoms: C_8  and  C_9
REMARK    2  A    between atoms: C_12  and  C_13
REMARK    3  A    between atoms: C_16  and  C_17
REMARK    4  A    between atoms: C_17  and  O_19
REMARK    5  A    between atoms: C_20  and  O_21
REMARK                            x       y       z     vdW  Elec       q    Type
REMARK                         _______ _______ _______ _____ _____    ______ ____
ROOT
ATOM      1  C   UNL     1       1.128   9.186  19.772  0.00  0.00    +0.000 A 
ATOM      2  C   UNL     1       0.758   8.247  20.727  0.00  0.00    +0.000 A 
ATOM      3  C   UNL     1       1.577   7.102  20.553  0.00  0.00    +0.000 A 
ATOM      4  C   UNL     1       2.427   7.386  19.508  0.00  0.00    +0.000 A 
ATOM      5  O   UNL     1       2.168   8.645  19.058  0.00  0.00    +0.000 OA
ENDROOT
BRANCH   1  13
ATOM      6  O   UNL     1      -0.444  13.132  19.041  0.00  0.00    +0.000 OA
ATOM      7  C   UNL     1      -0.844  12.147  18.439  0.00  0.00    +0.000 C 
ATOM      8  N   UNL     1      -1.820  12.165  17.483  0.00  0.00    +0.000 N 
ATOM      9  C   UNL     1      -2.172  10.984  16.906  0.00  0.00    +0.000 C 
ATOM     10  S   UNL     1      -3.349  10.838  15.750  0.00  0.00    +0.000 S 
ATOM     11  S   UNL     1      -1.206   9.692  17.573  0.00  0.00    +0.000 S 
ATOM     12  C   UNL     1      -0.350  10.758  18.632  0.00  0.00    +0.000 C 
ATOM     13  C   UNL     1       0.594  10.482  19.542  0.00  0.00    +0.000 C 
ATOM     14  H   UNL     1      -2.266  13.032  17.227  0.00  0.00    +0.000 HD
ENDBRANCH   1  13
BRANCH   4  15
ATOM     15  C   UNL     1       3.458   6.652  18.780  0.00  0.00    +0.000 A 
ATOM     16  C   UNL     1       3.868   7.062  17.499  0.00  0.00    +0.000 A 
ATOM     17  C   UNL     1       4.786   6.312  16.756  0.00  0.00    +0.000 A 
ATOM     18  C   UNL     1       5.318   5.135  17.287  0.00  0.00    +0.000 A 
ATOM     19  C   UNL     1       4.927   4.731  18.565  0.00  0.00    +0.000 A 
ATOM     20  C   UNL     1       4.024   5.486  19.315  0.00  0.00    +0.000 A 
BRANCH  18  21
ATOM     21  C   UNL     1       6.251   4.352  16.441  0.00  0.00    +0.000 C 
ATOM     22  O   UNL     1       7.345   4.771  16.100  0.00  0.00    +0.000 OA
BRANCH  21  23
ATOM     23  O   UNL     1       5.783   3.133  16.092  0.00  0.00    +0.000 OA
ATOM     24  H   UNL     1       6.385   2.635  15.495  0.00  0.00    +0.000 HD
ENDBRANCH  21  23
ENDBRANCH  18  21
BRANCH  19  25
ATOM     25  O   UNL     1       5.395   3.574  19.130  0.00  0.00    +0.000 OA
ATOM     26  H   UNL     1       6.211   3.806  19.619  0.00  0.00    +0.000 HD
ENDBRANCH  19  25
ENDBRANCH   4  15
TORSDOF 5
ENDMDL
MODEL 6
REMARK VINA RESULT:      -7.7      3.765      8.065
REMARK  Name = 
REMARK  5 active torsions:
REMARK  status: ('A' for Active; 'I' for Inactive)
REMARK    1  A    between atoms: C_8  and  C_9
REMARK    2  A    between atoms: C_12  and  C_13
REMARK    3  A    between atoms: C_16  and  C_17
REMARK    4  A    between atoms: C_17  and  O_19
REMARK    5  A    between atoms: C_20  and  O_21
REMARK                            x       y       z     vdW  Elec       q    Type
REMARK                         _______ _______ _______ _____ _____    ______ ____
ROOT
ATOM      1  C   UNL     1       4.174   5.398  19.437  0.00  0.00    +0.000 A 
ATOM      2  C   UNL     1       3.136   4.518  19.717  0.00  0.00    +0.000 A 
ATOM      3  C   UNL     1       1.986   5.285  20.035  0.00  0.00    +0.000 A 
ATOM      4  C   UNL     1       2.358   6.607  19.924  0.00  0.00    +0.000 A 
ATOM      5  O   UNL     1       3.664   6.668  19.545  0.00  0.00    +0.000 OA
ENDROOT
BRANCH   1  13
ATOM      6  O   UNL     1       8.242   4.463  18.362  0.00  0.00    +0.000 OA
ATOM      7  C   UNL     1       7.343   4.515  17.536  0.00  0.00    +0.000 C 
ATOM      8  N   UNL     1       7.505   4.296  16.197  0.00  0.00    +0.000 N 
ATOM      9  C   UNL     1       6.411   4.403  15.395  0.00  0.00    +0.000 C 
ATOM     10  S   UNL     1       6.450   4.187  13.754  0.00  0.00    +0.000 S 
ATOM     11  S   UNL     1       5.010   4.796  16.358  0.00  0.00    +0.000 S 
ATOM     12  C   UNL     1       5.919   4.827  17.829  0.00  0.00    +0.000 C 
ATOM     13  C   UNL     1       5.517   5.108  19.076  0.00  0.00    +0.000 C 
ATOM     14  H   UNL     1       8.414   4.071  15.824  0.00  0.00    +0.000 HD
ENDBRANCH   1  13
BRANCH   4  15
ATOM     15  C   UNL     1       1.706   7.891  20.164  0.00  0.00    +0.000 A 
ATOM     16  C   UNL     1       1.491   8.800  19.113  0.00  0.00    +0.000 A 
ATOM     17  C   UNL     1       0.953  10.069  19.349  0.00  0.00    +0.000 A 
ATOM     18  C   UNL     1       0.613  10.453  20.648  0.00  0.00    +0.000 A 
ATOM     19  C   UNL     1       0.809   9.549  21.694  0.00  0.00    +0.000 A 
ATOM     20  C   UNL     1       1.330   8.276  21.460  0.00  0.00    +0.000 A 
BRANCH  18  21
ATOM     21  C   UNL     1       0.090  11.826  20.851  0.00  0.00    +0.000 C 
ATOM     22  O   UNL     1       0.322  12.480  21.854  0.00  0.00    +0.000 OA
BRANCH  21  23
ATOM     23  O   UNL     1      -0.657  12.285  19.823  0.00  0.00    +0.000 OA
ATOM     24  H   UNL     1      -0.874  11.598  19.155  0.00  0.00    +0.000 HD
ENDBRANCH  21  23
ENDBRANCH  18  21
BRANCH  19  25
ATOM     25  O   UNL     1       0.517   9.874  22.992  0.00  0.00    +0.000 OA
ATOM     26  H   UNL     1       0.118   9.080  23.402  0.00  0.00    +0.000 HD
ENDBRANCH  19  25
ENDBRANCH   4  15
TORSDOF 5
ENDMDL
MODEL 7
REMARK VINA RESULT:      -7.6      0.681      1.407
REMARK  Name = 
REMARK  5 active torsions:
REMARK  status: ('A' for Active; 'I' for Inactive)
REMARK    1  A    between atoms: C_8  and  C_9
REMARK    2  A    between atoms: C_12  and  C_13
REMARK    3  A    between atoms: C_16  and  C_17
REMARK    4  A    between atoms: C_17  and  O_19
REMARK    5  A    between atoms: C_20  and  O_21
REMARK                            x       y       z     vdW  Elec       q    Type
REMARK                         _______ _______ _______ _____ _____    ______ ____
ROOT
ATOM      1  C   UNL     1       1.832   6.411  20.350  0.00  0.00    +0.000 A 
ATOM      2  C   UNL     1       1.235   5.162  20.242  0.00  0.00    +0.000 A 
ATOM      3  C   UNL     1       1.929   4.431  19.244  0.00  0.00    +0.000 A 
ATOM      4  C   UNL     1       2.933   5.254  18.787  0.00  0.00    +0.000 A 
ATOM      5  O   UNL     1       2.885   6.431  19.468  0.00  0.00    +0.000 OA
ENDROOT
BRANCH   1  13
ATOM      6  O   UNL     1       0.848   9.703  22.952  0.00  0.00    +0.000 OA
ATOM      7  C   UNL     1       0.892   9.821  21.737  0.00  0.00    +0.000 C 
ATOM      8  N   UNL     1       0.635  10.980  21.059  0.00  0.00    +0.000 N 
ATOM      9  C   UNL     1       0.709  10.956  19.701  0.00  0.00    +0.000 C 
ATOM     10  S   UNL     1       0.407  12.270  18.740  0.00  0.00    +0.000 S 
ATOM     11  S   UNL     1       1.158   9.357  19.164  0.00  0.00    +0.000 S 
ATOM     12  C   UNL     1       1.226   8.736  20.776  0.00  0.00    +0.000 C 
ATOM     13  C   UNL     1       1.489   7.494  21.203  0.00  0.00    +0.000 C 
ATOM     14  H   UNL     1       0.391  11.819  21.561  0.00  0.00    +0.000 HD
ENDBRANCH   1  13
BRANCH   4  15
ATOM     15  C   UNL     1       3.955   5.164  17.747  0.00  0.00    +0.000 A 
ATOM     16  C   UNL     1       4.442   6.320  17.112  0.00  0.00    +0.000 A 
ATOM     17  C   UNL     1       5.351   6.237  16.051  0.00  0.00    +0.000 A 
ATOM     18  C   UNL     1       5.796   4.990  15.610  0.00  0.00    +0.000 A 
ATOM     19  C   UNL     1       5.329   3.839  16.247  0.00  0.00    +0.000 A 
ATOM     20  C   UNL     1       4.435   3.919  17.316  0.00  0.00    +0.000 A 
BRANCH  18  21
ATOM     21  C   UNL     1       6.724   4.954  14.452  0.00  0.00    +0.000 C 
ATOM     22  O   UNL     1       7.752   5.608  14.408  0.00  0.00    +0.000 OA
BRANCH  21  23
ATOM     23  O   UNL     1       6.329   4.126  13.460  0.00  0.00    +0.000 OA
ATOM     24  H   UNL     1       6.028   4.595  12.651  0.00  0.00    +0.000 HD
ENDBRANCH  21  23
ENDBRANCH  18  21
BRANCH  19  25
ATOM     25  O   UNL     1       5.711   2.586  15.845  0.00  0.00    +0.000 OA
ATOM     26  H   UNL     1       5.188   1.947  16.371  0.00  0.00    +0.000 HD
ENDBRANCH  19  25
ENDBRANCH   4  15
TORSDOF 5
ENDMDL
MODEL 8
REMARK VINA RESULT:      -7.5      2.589      3.284
REMARK  Name = 
REMARK  5 active torsions:
REMARK  status: ('A' for Active; 'I' for Inactive)
REMARK    1  A    between atoms: C_8  and  C_9
REMARK    2  A    between atoms: C_12  and  C_13
REMARK    3  A    between atoms: C_16  and  C_17
REMARK    4  A    between atoms: C_17  and  O_19
REMARK    5  A    between atoms: C_20  and  O_21
REMARK                            x       y       z     vdW  Elec       q    Type
REMARK                         _______ _______ _______ _____ _____    ______ ____
ROOT
ATOM      1  C   UNL     1       0.987   9.374  19.833  0.00  0.00    +0.000 A 
ATOM      2  C   UNL     1       0.663   8.539  20.895  0.00  0.00    +0.000 A 
ATOM      3  C   UNL     1       1.450   7.364  20.781  0.00  0.00    +0.000 A 
ATOM      4  C   UNL     1       2.235   7.528  19.663  0.00  0.00    +0.000 A 
ATOM      5  O   UNL     1       1.970   8.743  19.110  0.00  0.00    +0.000 OA
ENDROOT
BRANCH   1  13
ATOM      6  O   UNL     1      -0.557  13.271  18.829  0.00  0.00    +0.000 OA
ATOM      7  C   UNL     1      -0.948  12.252  18.280  0.00  0.00    +0.000 C 
ATOM      8  N   UNL     1      -1.905  12.212  17.305  0.00  0.00    +0.000 N 
ATOM      9  C   UNL     1      -2.249  10.999  16.796  0.00  0.00    +0.000 C 
ATOM     10  S   UNL     1      -3.403  10.785  15.628  0.00  0.00    +0.000 S 
ATOM     11  S   UNL     1      -1.300   9.749  17.560  0.00  0.00    +0.000 S 
ATOM     12  C   UNL     1      -0.463  10.876  18.569  0.00  0.00    +0.000 C 
ATOM     13  C   UNL     1       0.462  10.655  19.512  0.00  0.00    +0.000 C 
ATOM     14  H   UNL     1      -2.343  13.063  16.988  0.00  0.00    +0.000 HD
ENDBRANCH   1  13
BRANCH   4  15
ATOM     15  C   UNL     1       3.204   6.703  18.945  0.00  0.00    +0.000 A 
ATOM     16  C   UNL     1       3.767   5.563  19.545  0.00  0.00    +0.000 A 
ATOM     17  C   UNL     1       4.765   4.822  18.902  0.00  0.00    +0.000 A 
ATOM     18  C   UNL     1       5.214   5.207  17.637  0.00  0.00    +0.000 A 
ATOM     19  C   UNL     1       4.647   6.328  17.029  0.00  0.00    +0.000 A 
ATOM     20  C   UNL     1       3.640   7.060  17.661  0.00  0.00    +0.000 A 
BRANCH  18  21
ATOM     21  C   UNL     1       6.305   4.415  17.018  0.00  0.00    +0.000 C 
ATOM     22  O   UNL     1       7.463   4.475  17.396  0.00  0.00    +0.000 OA
BRANCH  21  23
ATOM     23  O   UNL     1       5.896   3.618  16.006  0.00  0.00    +0.000 OA
ATOM     24  H   UNL     1       5.871   2.664  16.242  0.00  0.00    +0.000 HD
ENDBRANCH  21  23
ENDBRANCH  18  21
BRANCH  19  25
ATOM     25  O   UNL     1       5.061   6.769  15.800  0.00  0.00    +0.000 OA
ATOM     26  H   UNL     1       4.923   6.032  15.172  0.00  0.00    +0.000 HD
ENDBRANCH  19  25
ENDBRANCH   4  15
TORSDOF 5
ENDMDL
MODEL 9
REMARK VINA RESULT:      -7.5      2.944      4.084
REMARK  Name = 
REMARK  5 active torsions:
REMARK  status: ('A' for Active; 'I' for Inactive)
REMARK    1  A    between atoms: C_8  and  C_9
REMARK    2  A    between atoms: C_12  and  C_13
REMARK    3  A    between atoms: C_16  and  C_17
REMARK    4  A    between atoms: C_17  and  O_19
REMARK    5  A    between atoms: C_20  and  O_21
REMARK                            x       y       z     vdW  Elec       q    Type
REMARK                         _______ _______ _______ _____ _____    ______ ____
ROOT
ATOM      1  C   UNL     1       1.370   9.318  19.042  0.00  0.00    +0.000 A 
ATOM      2  C   UNL     1       2.049   9.556  17.855  0.00  0.00    +0.000 A 
ATOM      3  C   UNL     1       2.757   8.375  17.513  0.00  0.00    +0.000 A 
ATOM      4  C   UNL     1       2.474   7.453  18.496  0.00  0.00    +0.000 A 
ATOM      5  O   UNL     1       1.625   8.017  19.399  0.00  0.00    +0.000 OA
ENDROOT
BRANCH   1  13
ATOM      6  O   UNL     1      -1.130  12.028  21.275  0.00  0.00    +0.000 OA
ATOM      7  C   UNL     1      -1.454  11.591  20.181  0.00  0.00    +0.000 C 
ATOM      8  N   UNL     1      -2.623  11.891  19.540  0.00  0.00    +0.000 N 
ATOM      9  C   UNL     1      -2.853  11.316  18.328  0.00  0.00    +0.000 C 
ATOM     10  S   UNL     1      -4.228  11.563  17.439  0.00  0.00    +0.000 S 
ATOM     11  S   UNL     1      -1.500  10.306  17.889  0.00  0.00    +0.000 S 
ATOM     12  C   UNL     1      -0.646  10.658  19.351  0.00  0.00    +0.000 C 
ATOM     13  C   UNL     1       0.534  10.197  19.784  0.00  0.00    +0.000 C 
ATOM     14  H   UNL     1      -3.291  12.514  19.965  0.00  0.00    +0.000 HD
ENDBRANCH   1  13
BRANCH   4  15
ATOM     15  C   UNL     1       2.905   6.090  18.796  0.00  0.00    +0.000 A 
ATOM     16  C   UNL     1       2.522   5.459  19.992  0.00  0.00    +0.000 A 
ATOM     17  C   UNL     1       3.006   4.190  20.330  0.00  0.00    +0.000 A 
ATOM     18  C   UNL     1       3.882   3.525  19.470  0.00  0.00    +0.000 A 
ATOM     19  C   UNL     1       4.253   4.140  18.272  0.00  0.00    +0.000 A 
ATOM     20  C   UNL     1       3.759   5.399  17.924  0.00  0.00    +0.000 A 
BRANCH  18  21
ATOM     21  C   UNL     1       4.402   2.203  19.895  0.00  0.00    +0.000 C 
ATOM     22  O   UNL     1       4.834   1.992  21.016  0.00  0.00    +0.000 OA
BRANCH  21  23
ATOM     23  O   UNL     1       4.345   1.256  18.933  0.00  0.00    +0.000 OA
ATOM     24  H   UNL     1       5.167   0.723  18.855  0.00  0.00    +0.000 HD
ENDBRANCH  21  23
ENDBRANCH  18  21
BRANCH  19  25
ATOM     25  O   UNL     1       5.126   3.549  17.398  0.00  0.00    +0.000 OA
ATOM     26  H   UNL     1       5.251   2.627  17.700  0.00  0.00    +0.000 HD
ENDBRANCH  19  25
ENDBRANCH   4  15
TORSDOF 5
ENDMDL
