MODEL 1
REMARK VINA RESULT:      -8.0      0.000      0.000
REMARK  Name = 
REMARK  8 active torsions:
REMARK  status: ('A' for Active; 'I' for Inactive)
REMARK    1  A    between atoms: C_1  and  C_2
REMARK    2  A    between atoms: C_2  and  N_3
REMARK    3  A    between atoms: N_3  and  S_4
REMARK    4  A    between atoms: S_4  and  C_7
REMARK    5  A    between atoms: C_10  and  C_11
REMARK    6  A    between atoms: C_14  and  N_15
REMARK    7  A    between atoms: C_16  and  C_17
REMARK    8  A    between atoms: N_27  and  O_28
REMARK                            x       y       z     vdW  Elec       q    Type
REMARK                         _______ _______ _______ _____ _____    ______ ____
ROOT
ATOM      1  C   UNL     1       0.872  10.753  18.824  0.00  0.00    +0.000 A 
ATOM      2  C   UNL     1       1.574  11.891  18.442  0.00  0.00    +0.000 A 
ATOM      3  N   UNL     1       1.088  13.162  18.470  0.00  0.00    +0.000 NA
ATOM      4  C   UNL     1      -0.180  13.360  18.895  0.00  0.00    +0.000 A 
ATOM      5  C   UNL     1      -1.031  12.317  19.253  0.00  0.00    +0.000 A 
ATOM      6  C   UNL     1      -0.459  11.009  19.196  0.00  0.00    +0.000 A 
ENDROOT
BRANCH   5   7
ATOM      7  C   UNL     1      -2.351  12.475  19.924  0.00  0.00    +0.000 A 
ATOM      8  C   UNL     1      -3.652  12.380  19.408  0.00  0.00    +0.000 A 
ATOM      9  C   UNL     1      -4.809  12.440  20.273  0.00  0.00    +0.000 A 
ATOM     10  C   UNL     1      -4.674  12.577  21.674  0.00  0.00    +0.000 A 
ATOM     11  C   UNL     1      -3.388  12.729  22.148  0.00  0.00    +0.000 A 
ATOM     12  C   UNL     1      -2.281  12.712  21.288  0.00  0.00    +0.000 A 
ATOM     13  C   UNL     1      -2.985  12.882  23.566  0.00  0.00    +0.000 C 
ATOM     14  C   UNL     1      -4.002  12.852  24.659  0.00  0.00    +0.000 C 
ATOM     15  C   UNL     1      -5.435  12.802  24.207  0.00  0.00    +0.000 C 
ATOM     16  C   UNL     1      -5.781  12.586  22.710  0.00  0.00    +0.000 C 
ATOM     17  N   UNL     1      -7.025  12.417  22.357  0.00  0.00    +0.000 NA
BRANCH  17  18
ATOM     18  O   UNL     1      -7.913  12.520  23.455  0.00  0.00    +0.000 OA
ATOM     19  H   UNL     1      -7.366  12.330  24.243  0.00  0.00    +0.000 HD
ENDBRANCH  17  18
ENDBRANCH   5   7
BRANCH   1  23
ATOM     20  C   UNL     1       2.613   6.796  18.978  0.00  0.00    +0.000 A 
ATOM     21  C   UNL     1       2.748   7.563  17.820  0.00  0.00    +0.000 A 
ATOM     22  C   UNL     1       2.198   8.856  17.779  0.00  0.00    +0.000 A 
ATOM     23  C   UNL     1       1.493   9.395  18.880  0.00  0.00    +0.000 A 
ATOM     24  C   UNL     1       1.395   8.589  20.039  0.00  0.00    +0.000 A 
ATOM     25  C   UNL     1       1.936   7.302  20.086  0.00  0.00    +0.000 A 
BRANCH  20  26
ATOM     26  S   UNL     1       3.225   5.128  19.023  0.00  0.00    +0.000 S 
ATOM     27  O   UNL     1       4.451   5.105  19.787  0.00  0.00    +0.000 OA
ATOM     28  O   UNL     1       3.169   4.627  17.656  0.00  0.00    +0.000 OA
BRANCH  26  29
ATOM     29  N   UNL     1       2.022   4.319  19.897  0.00  0.00    +0.000 NA
ATOM     30  H   UNL     1       1.198   4.905  20.021  0.00  0.00    +0.000 HD
BRANCH  29  32
ATOM     31  C   UNL     1       1.389   2.609  21.518  0.00  0.00    +0.000 C 
ATOM     32  C   UNL     1       2.455   3.612  21.113  0.00  0.00    +0.000 C 
ENDBRANCH  29  32
ENDBRANCH  26  29
ENDBRANCH  20  26
ENDBRANCH   1  23
BRANCH   4  33
ATOM     33  N   UNL     1      -0.564  14.697  18.959  0.00  0.00    +0.000 N 
ATOM     34  H   UNL     1      -0.460  15.071  18.018  0.00  0.00    +0.000 HD
ATOM     35  H   UNL     1      -0.024  15.213  19.644  0.00  0.00    +0.000 HD
ENDBRANCH   4  33
TORSDOF 7
ENDMDL
MODEL 2
REMARK VINA RESULT:      -8.0      1.111      2.065
REMARK  Name = 
REMARK  8 active torsions:
REMARK  status: ('A' for Active; 'I' for Inactive)
REMARK    1  A    between atoms: C_1  and  C_2
REMARK    2  A    between atoms: C_2  and  N_3
REMARK    3  A    between atoms: N_3  and  S_4
REMARK    4  A    between atoms: S_4  and  C_7
REMARK    5  A    between atoms: C_10  and  C_11
REMARK    6  A    between atoms: C_14  and  N_15
REMARK    7  A    between atoms: C_16  and  C_17
REMARK    8  A    between atoms: N_27  and  O_28
REMARK                            x       y       z     vdW  Elec       q    Type
REMARK                         _______ _______ _______ _____ _____    ______ ____
ROOT
ATOM      1  C   UNL     1       0.407  10.902  19.194  0.00  0.00    +0.000 A 
ATOM      2  C   UNL     1       0.947  12.060  18.646  0.00  0.00    +0.000 A 
ATOM      3  N   UNL     1       0.413  13.307  18.759  0.00  0.00    +0.000 NA
ATOM      4  C   UNL     1      -0.740  13.457  19.450  0.00  0.00    +0.000 A 
ATOM      5  C   UNL     1      -1.435  12.385  20.004  0.00  0.00    +0.000 A 
ATOM      6  C   UNL     1      -0.821  11.104  19.846  0.00  0.00    +0.000 A 
ENDROOT
BRANCH   5   7
ATOM      7  C   UNL     1      -2.581  12.499  20.948  0.00  0.00    +0.000 A 
ATOM      8  C   UNL     1      -2.601  12.651  22.342  0.00  0.00    +0.000 A 
ATOM      9  C   UNL     1      -3.839  12.876  23.055  0.00  0.00    +0.000 A 
ATOM     10  C   UNL     1      -5.075  12.969  22.374  0.00  0.00    +0.000 A 
ATOM     11  C   UNL     1      -5.034  12.754  21.012  0.00  0.00    +0.000 A 
ATOM     12  C   UNL     1      -3.829  12.494  20.344  0.00  0.00    +0.000 A 
ATOM     13  C   UNL     1      -6.185  12.804  20.079  0.00  0.00    +0.000 C 
ATOM     14  C   UNL     1      -7.555  13.139  20.569  0.00  0.00    +0.000 C 
ATOM     15  C   UNL     1      -7.692  13.274  22.060  0.00  0.00    +0.000 C 
ATOM     16  C   UNL     1      -6.436  13.266  22.970  0.00  0.00    +0.000 C 
ATOM     17  N   UNL     1      -6.565  13.513  24.244  0.00  0.00    +0.000 NA
BRANCH  17  18
ATOM     18  O   UNL     1      -7.917  13.705  24.619  0.00  0.00    +0.000 OA
ATOM     19  H   UNL     1      -8.438  13.220  23.949  0.00  0.00    +0.000 HD
ENDBRANCH  17  18
ENDBRANCH   5   7
BRANCH   1  23
ATOM     20  C   UNL     1       2.462   7.098  19.028  0.00  0.00    +0.000 A 
ATOM     21  C   UNL     1       1.879   7.514  20.225  0.00  0.00    +0.000 A 
ATOM     22  C   UNL     1       1.195   8.741  20.272  0.00  0.00    +0.000 A 
ATOM     23  C   UNL     1       1.097   9.577  19.136  0.00  0.00    +0.000 A 
ATOM     24  C   UNL     1       1.690   9.109  17.939  0.00  0.00    +0.000 A 
ATOM     25  C   UNL     1       2.374   7.892  17.886  0.00  0.00    +0.000 A 
BRANCH  20  26
ATOM     26  S   UNL     1       3.404   5.592  18.967  0.00  0.00    +0.000 S 
ATOM     27  O   UNL     1       4.807   5.925  18.879  0.00  0.00    +0.000 OA
ATOM     28  O   UNL     1       2.760   4.738  17.977  0.00  0.00    +0.000 OA
BRANCH  26  29
ATOM     29  N   UNL     1       3.100   4.908  20.484  0.00  0.00    +0.000 NA
ATOM     30  H   UNL     1       3.951   4.530  20.897  0.00  0.00    +0.000 HD
BRANCH  29  32
ATOM     31  C   UNL     1       2.214   2.924  21.596  0.00  0.00    +0.000 C 
ATOM     32  C   UNL     1       1.929   4.021  20.584  0.00  0.00    +0.000 C 
ENDBRANCH  29  32
ENDBRANCH  26  29
ENDBRANCH  20  26
ENDBRANCH   1  23
BRANCH   4  33
ATOM     33  N   UNL     1      -1.170  14.775  19.572  0.00  0.00    +0.000 N 
ATOM     34  H   UNL     1      -0.623  15.319  18.909  0.00  0.00    +0.000 HD
ATOM     35  H   UNL     1      -1.079  15.116  20.522  0.00  0.00    +0.000 HD
ENDBRANCH   4  33
TORSDOF 7
ENDMDL
MODEL 3
REMARK VINA RESULT:      -7.9      1.682      2.695
REMARK  Name = 
REMARK  8 active torsions:
REMARK  status: ('A' for Active; 'I' for Inactive)
REMARK    1  A    between atoms: C_1  and  C_2
REMARK    2  A    between atoms: C_2  and  N_3
REMARK    3  A    between atoms: N_3  and  S_4
REMARK    4  A    between atoms: S_4  and  C_7
REMARK    5  A    between atoms: C_10  and  C_11
REMARK    6  A    between atoms: C_14  and  N_15
REMARK    7  A    between atoms: C_16  and  C_17
REMARK    8  A    between atoms: N_27  and  O_28
REMARK                            x       y       z     vdW  Elec       q    Type
REMARK                         _______ _______ _______ _____ _____    ______ ____
ROOT
ATOM      1  C   UNL     1       0.500  11.124  19.149  0.00  0.00    +0.000 A 
ATOM      2  C   UNL     1       1.018  12.327  18.682  0.00  0.00    +0.000 A 
ATOM      3  N   UNL     1       0.452  13.552  18.864  0.00  0.00    +0.000 NA
ATOM      4  C   UNL     1      -0.713  13.630  19.546  0.00  0.00    +0.000 A 
ATOM      5  C   UNL     1      -1.388  12.510  20.024  0.00  0.00    +0.000 A 
ATOM      6  C   UNL     1      -0.741  11.256  19.795  0.00  0.00    +0.000 A 
ENDROOT
BRANCH   5   7
ATOM      7  C   UNL     1      -2.549  12.537  20.956  0.00  0.00    +0.000 A 
ATOM      8  C   UNL     1      -2.592  12.502  22.358  0.00  0.00    +0.000 A 
ATOM      9  C   UNL     1      -3.836  12.673  23.075  0.00  0.00    +0.000 A 
ATOM     10  C   UNL     1      -5.053  12.901  22.393  0.00  0.00    +0.000 A 
ATOM     11  C   UNL     1      -4.993  12.869  21.016  0.00  0.00    +0.000 A 
ATOM     12  C   UNL     1      -3.784  12.658  20.338  0.00  0.00    +0.000 A 
ATOM     13  C   UNL     1      -6.122  13.085  20.080  0.00  0.00    +0.000 C 
ATOM     14  C   UNL     1      -7.489  13.400  20.590  0.00  0.00    +0.000 C 
ATOM     15  C   UNL     1      -7.653  13.339  22.083  0.00  0.00    +0.000 C 
ATOM     16  C   UNL     1      -6.416  13.164  23.004  0.00  0.00    +0.000 C 
ATOM     17  N   UNL     1      -6.562  13.243  24.297  0.00  0.00    +0.000 NA
BRANCH  17  18
ATOM     18  O   UNL     1      -7.914  13.431  24.674  0.00  0.00    +0.000 OA
ATOM     19  H   UNL     1      -7.890  13.581  25.640  0.00  0.00    +0.000 HD
ENDBRANCH  17  18
ENDBRANCH   5   7
BRANCH   1  23
ATOM     20  C   UNL     1       2.536   7.327  18.765  0.00  0.00    +0.000 A 
ATOM     21  C   UNL     1       2.501   8.202  17.678  0.00  0.00    +0.000 A 
ATOM     22  C   UNL     1       1.856   9.443  17.811  0.00  0.00    +0.000 A 
ATOM     23  C   UNL     1       1.223   9.823  19.018  0.00  0.00    +0.000 A 
ATOM     24  C   UNL     1       1.297   8.912  20.098  0.00  0.00    +0.000 A 
ATOM     25  C   UNL     1       1.934   7.675  19.972  0.00  0.00    +0.000 A 
BRANCH  20  26
ATOM     26  S   UNL     1       3.272   5.718  18.594  0.00  0.00    +0.000 S 
ATOM     27  O   UNL     1       2.312   4.831  17.977  0.00  0.00    +0.000 OA
ATOM     28  O   UNL     1       3.886   5.402  19.877  0.00  0.00    +0.000 OA
BRANCH  26  29
ATOM     29  N   UNL     1       4.531   6.005  17.499  0.00  0.00    +0.000 NA
ATOM     30  H   UNL     1       4.491   6.954  17.131  0.00  0.00    +0.000 HD
BRANCH  29  32
ATOM     31  C   UNL     1       5.640   5.537  15.377  0.00  0.00    +0.000 C 
ATOM     32  C   UNL     1       4.769   4.967  16.484  0.00  0.00    +0.000 C 
ENDBRANCH  29  32
ENDBRANCH  26  29
ENDBRANCH  20  26
ENDBRANCH   1  23
BRANCH   4  33
ATOM     33  N   UNL     1      -1.177  14.927  19.745  0.00  0.00    +0.000 N 
ATOM     34  H   UNL     1      -2.089  14.842  20.187  0.00  0.00    +0.000 HD
ATOM     35  H   UNL     1      -1.213  15.453  18.879  0.00  0.00    +0.000 HD
ENDBRANCH   4  33
TORSDOF 7
ENDMDL
MODEL 4
REMARK VINA RESULT:      -7.9      3.846      5.733
REMARK  Name = 
REMARK  8 active torsions:
REMARK  status: ('A' for Active; 'I' for Inactive)
REMARK    1  A    between atoms: C_1  and  C_2
REMARK    2  A    between atoms: C_2  and  N_3
REMARK    3  A    between atoms: N_3  and  S_4
REMARK    4  A    between atoms: S_4  and  C_7
REMARK    5  A    between atoms: C_10  and  C_11
REMARK    6  A    between atoms: C_14  and  N_15
REMARK    7  A    between atoms: C_16  and  C_17
REMARK    8  A    between atoms: N_27  and  O_28
REMARK                            x       y       z     vdW  Elec       q    Type
REMARK                         _______ _______ _______ _____ _____    ______ ____
ROOT
ATOM      1  C   UNL     1       1.024   8.969  20.755  0.00  0.00    +0.000 A 
ATOM      2  C   UNL     1       0.191   8.839  21.860  0.00  0.00    +0.000 A 
ATOM      3  N   UNL     1      -0.478   9.858  22.467  0.00  0.00    +0.000 NA
ATOM      4  C   UNL     1      -0.332  11.109  21.975  0.00  0.00    +0.000 A 
ATOM      5  C   UNL     1       0.516  11.412  20.912  0.00  0.00    +0.000 A 
ATOM      6  C   UNL     1       1.190  10.297  20.326  0.00  0.00    +0.000 A 
ENDROOT
BRANCH   5   7
ATOM      7  C   UNL     1       0.562  12.714  20.193  0.00  0.00    +0.000 A 
ATOM      8  C   UNL     1      -0.376  13.756  20.133  0.00  0.00    +0.000 A 
ATOM      9  C   UNL     1      -0.070  15.005  19.473  0.00  0.00    +0.000 A 
ATOM     10  C   UNL     1       1.192  15.233  18.877  0.00  0.00    +0.000 A 
ATOM     11  C   UNL     1       2.072  14.173  18.896  0.00  0.00    +0.000 A 
ATOM     12  C   UNL     1       1.741  12.953  19.504  0.00  0.00    +0.000 A 
ATOM     13  C   UNL     1       3.450  14.162  18.349  0.00  0.00    +0.000 C 
ATOM     14  C   UNL     1       4.034  15.385  17.722  0.00  0.00    +0.000 C 
ATOM     15  C   UNL     1       3.091  16.544  17.566  0.00  0.00    +0.000 C 
ATOM     16  C   UNL     1       1.681  16.505  18.213  0.00  0.00    +0.000 C 
ATOM     17  N   UNL     1       0.927  17.569  18.176  0.00  0.00    +0.000 NA
BRANCH  17  18
ATOM     18  O   UNL     1       1.533  18.630  17.461  0.00  0.00    +0.000 OA
ATOM     19  H   UNL     1       1.005  19.422  17.687  0.00  0.00    +0.000 HD
ENDBRANCH  17  18
ENDBRANCH   5   7
BRANCH   1  23
ATOM     20  C   UNL     1       2.872   5.603  18.761  0.00  0.00    +0.000 A 
ATOM     21  C   UNL     1       2.309   5.430  20.027  0.00  0.00    +0.000 A 
ATOM     22  C   UNL     1       1.692   6.520  20.664  0.00  0.00    +0.000 A 
ATOM     23  C   UNL     1       1.642   7.798  20.061  0.00  0.00    +0.000 A 
ATOM     24  C   UNL     1       2.211   7.925  18.772  0.00  0.00    +0.000 A 
ATOM     25  C   UNL     1       2.828   6.846  18.133  0.00  0.00    +0.000 A 
BRANCH  20  26
ATOM     26  S   UNL     1       3.731   4.262  17.973  0.00  0.00    +0.000 S 
ATOM     27  O   UNL     1       4.438   3.507  18.982  0.00  0.00    +0.000 OA
ATOM     28  O   UNL     1       4.422   4.829  16.822  0.00  0.00    +0.000 OA
BRANCH  26  29
ATOM     29  N   UNL     1       2.462   3.316  17.373  0.00  0.00    +0.000 NA
ATOM     30  H   UNL     1       1.685   3.896  17.060  0.00  0.00    +0.000 HD
BRANCH  29  32
ATOM     31  C   UNL     1       0.713   2.422  18.820  0.00  0.00    +0.000 C 
ATOM     32  C   UNL     1       2.067   2.154  18.185  0.00  0.00    +0.000 C 
ENDBRANCH  29  32
ENDBRANCH  26  29
ENDBRANCH  20  26
ENDBRANCH   1  23
BRANCH   4  33
ATOM     33  N   UNL     1      -1.109  12.072  22.613  0.00  0.00    +0.000 N 
ATOM     34  H   UNL     1      -0.555  12.925  22.628  0.00  0.00    +0.000 HD
ATOM     35  H   UNL     1      -1.392  11.777  23.540  0.00  0.00    +0.000 HD
ENDBRANCH   4  33
TORSDOF 7
ENDMDL
MODEL 5
REMARK VINA RESULT:      -7.9      2.109      3.055
REMARK  Name = 
REMARK  8 active torsions:
REMARK  status: ('A' for Active; 'I' for Inactive)
REMARK    1  A    between atoms: C_1  and  C_2
REMARK    2  A    between atoms: C_2  and  N_3
REMARK    3  A    between atoms: N_3  and  S_4
REMARK    4  A    between atoms: S_4  and  C_7
REMARK    5  A    between atoms: C_10  and  C_11
REMARK    6  A    between atoms: C_14  and  N_15
REMARK    7  A    between atoms: C_16  and  C_17
REMARK    8  A    between atoms: N_27  and  O_28
REMARK                            x       y       z     vdW  Elec       q    Type
REMARK                         _______ _______ _______ _____ _____    ______ ____
ROOT
ATOM      1  C   UNL     1       1.858   8.437  19.027  0.00  0.00    +0.000 A 
ATOM      2  C   UNL     1       2.373   9.230  18.008  0.00  0.00    +0.000 A 
ATOM      3  N   UNL     1       2.029  10.525  17.767  0.00  0.00    +0.000 NA
ATOM      4  C   UNL     1       1.108  11.108  18.567  0.00  0.00    +0.000 A 
ATOM      5  C   UNL     1       0.454  10.428  19.592  0.00  0.00    +0.000 A 
ATOM      6  C   UNL     1       0.860   9.072  19.787  0.00  0.00    +0.000 A 
ENDROOT
BRANCH   5   7
ATOM      7  C   UNL     1      -0.402  11.058  20.634  0.00  0.00    +0.000 A 
ATOM      8  C   UNL     1      -0.175  11.251  22.005  0.00  0.00    +0.000 A 
ATOM      9  C   UNL     1      -1.097  12.013  22.818  0.00  0.00    +0.000 A 
ATOM     10  C   UNL     1      -2.251  12.609  22.261  0.00  0.00    +0.000 A 
ATOM     11  C   UNL     1      -2.482  12.352  20.926  0.00  0.00    +0.000 A 
ATOM     12  C   UNL     1      -1.599  11.574  20.163  0.00  0.00    +0.000 A 
ATOM     13  C   UNL     1      -3.612  12.865  20.114  0.00  0.00    +0.000 C 
ATOM     14  C   UNL     1      -4.632  13.776  20.710  0.00  0.00    +0.000 C 
ATOM     15  C   UNL     1      -4.506  14.007  22.190  0.00  0.00    +0.000 C 
ATOM     16  C   UNL     1      -3.267  13.486  22.966  0.00  0.00    +0.000 C 
ATOM     17  N   UNL     1      -3.113  13.807  24.220  0.00  0.00    +0.000 NA
BRANCH  17  18
ATOM     18  O   UNL     1      -4.194  14.578  24.713  0.00  0.00    +0.000 OA
ATOM     19  H   UNL     1      -3.790  15.414  25.021  0.00  0.00    +0.000 HD
ENDBRANCH  17  18
ENDBRANCH   5   7
BRANCH   1  23
ATOM     20  C   UNL     1       3.249   4.421  19.834  0.00  0.00    +0.000 A 
ATOM     21  C   UNL     1       3.800   5.141  18.773  0.00  0.00    +0.000 A 
ATOM     22  C   UNL     1       3.360   6.452  18.524  0.00  0.00    +0.000 A 
ATOM     23  C   UNL     1       2.357   7.058  19.316  0.00  0.00    +0.000 A 
ATOM     24  C   UNL     1       1.838   6.298  20.390  0.00  0.00    +0.000 A 
ATOM     25  C   UNL     1       2.268   4.993  20.642  0.00  0.00    +0.000 A 
BRANCH  20  26
ATOM     26  S   UNL     1       3.728   2.732  20.115  0.00  0.00    +0.000 S 
ATOM     27  O   UNL     1       3.083   2.261  21.319  0.00  0.00    +0.000 OA
ATOM     28  O   UNL     1       5.175   2.678  19.953  0.00  0.00    +0.000 OA
BRANCH  26  29
ATOM     29  N   UNL     1       3.050   1.934  18.785  0.00  0.00    +0.000 NA
ATOM     30  H   UNL     1       3.773   1.586  18.155  0.00  0.00    +0.000 HD
BRANCH  29  32
ATOM     31  C   UNL     1       0.632   2.259  18.823  0.00  0.00    +0.000 C 
ATOM     32  C   UNL     1       1.929   2.609  18.113  0.00  0.00    +0.000 C 
ENDBRANCH  29  32
ENDBRANCH  26  29
ENDBRANCH  20  26
ENDBRANCH   1  23
BRANCH   4  33
ATOM     33  N   UNL     1       0.874  12.452  18.290  0.00  0.00    +0.000 N 
ATOM     34  H   UNL     1      -0.045  12.500  17.856  0.00  0.00    +0.000 HD
ATOM     35  H   UNL     1       1.600  12.850  17.707  0.00  0.00    +0.000 HD
ENDBRANCH   4  33
TORSDOF 7
ENDMDL
MODEL 6
REMARK VINA RESULT:      -7.8      1.357      1.755
REMARK  Name = 
REMARK  8 active torsions:
REMARK  status: ('A' for Active; 'I' for Inactive)
REMARK    1  A    between atoms: C_1  and  C_2
REMARK    2  A    between atoms: C_2  and  N_3
REMARK    3  A    between atoms: N_3  and  S_4
REMARK    4  A    between atoms: S_4  and  C_7
REMARK    5  A    between atoms: C_10  and  C_11
REMARK    6  A    between atoms: C_14  and  N_15
REMARK    7  A    between atoms: C_16  and  C_17
REMARK    8  A    between atoms: N_27  and  O_28
REMARK                            x       y       z     vdW  Elec       q    Type
REMARK                         _______ _______ _______ _____ _____    ______ ____
ROOT
ATOM      1  C   UNL     1       0.723  10.899  18.899  0.00  0.00    +0.000 A 
ATOM      2  C   UNL     1       1.373  12.042  18.451  0.00  0.00    +0.000 A 
ATOM      3  N   UNL     1       0.853  13.301  18.466  0.00  0.00    +0.000 NA
ATOM      4  C   UNL     1      -0.398  13.477  18.947  0.00  0.00    +0.000 A 
ATOM      5  C   UNL     1      -1.201  12.423  19.376  0.00  0.00    +0.000 A 
ATOM      6  C   UNL     1      -0.595  11.129  19.329  0.00  0.00    +0.000 A 
ENDROOT
BRANCH   5   7
ATOM      7  C   UNL     1      -2.490  12.565  20.107  0.00  0.00    +0.000 A 
ATOM      8  C   UNL     1      -3.811  12.537  19.636  0.00  0.00    +0.000 A 
ATOM      9  C   UNL     1      -4.934  12.564  20.547  0.00  0.00    +0.000 A 
ATOM     10  C   UNL     1      -4.744  12.601  21.947  0.00  0.00    +0.000 A 
ATOM     11  C   UNL     1      -3.438  12.690  22.381  0.00  0.00    +0.000 A 
ATOM     12  C   UNL     1      -2.364  12.706  21.479  0.00  0.00    +0.000 A 
ATOM     13  C   UNL     1      -2.980  12.735  23.790  0.00  0.00    +0.000 C 
ATOM     14  C   UNL     1      -3.956  12.654  24.916  0.00  0.00    +0.000 C 
ATOM     15  C   UNL     1      -5.405  12.670  24.517  0.00  0.00    +0.000 C 
ATOM     16  C   UNL     1      -5.812  12.566  23.023  0.00  0.00    +0.000 C 
ATOM     17  N   UNL     1      -7.072  12.451  22.707  0.00  0.00    +0.000 NA
BRANCH  17  18
ATOM     18  O   UNL     1      -7.916  12.498  23.843  0.00  0.00    +0.000 OA
ATOM     19  H   UNL     1      -8.516  13.253  23.681  0.00  0.00    +0.000 HD
ENDBRANCH  17  18
ENDBRANCH   5   7
BRANCH   1  23
ATOM     20  C   UNL     1       2.581   6.996  19.078  0.00  0.00    +0.000 A 
ATOM     21  C   UNL     1       2.692   7.759  17.914  0.00  0.00    +0.000 A 
ATOM     22  C   UNL     1       2.104   9.034  17.865  0.00  0.00    +0.000 A 
ATOM     23  C   UNL     1       1.385   9.560  18.964  0.00  0.00    +0.000 A 
ATOM     24  C   UNL     1       1.311   8.759  20.128  0.00  0.00    +0.000 A 
ATOM     25  C   UNL     1       1.891   7.489  20.183  0.00  0.00    +0.000 A 
BRANCH  20  26
ATOM     26  S   UNL     1       3.243   5.347  19.133  0.00  0.00    +0.000 S 
ATOM     27  O   UNL     1       2.906   4.670  17.902  0.00  0.00    +0.000 OA
ATOM     28  O   UNL     1       2.879   4.796  20.431  0.00  0.00    +0.000 OA
BRANCH  26  29
ATOM     29  N   UNL     1       4.913   5.624  19.163  0.00  0.00    +0.000 NA
ATOM     30  H   UNL     1       5.150   6.386  19.797  0.00  0.00    +0.000 HD
BRANCH  29  32
ATOM     31  C   UNL     1       6.530   4.491  17.728  0.00  0.00    +0.000 C 
ATOM     32  C   UNL     1       5.594   5.681  17.860  0.00  0.00    +0.000 C 
ENDBRANCH  29  32
ENDBRANCH  26  29
ENDBRANCH  20  26
ENDBRANCH   1  23
BRANCH   4  33
ATOM     33  N   UNL     1      -0.815  14.804  18.991  0.00  0.00    +0.000 N 
ATOM     34  H   UNL     1      -0.538  15.222  18.106  0.00  0.00    +0.000 HD
ATOM     35  H   UNL     1      -0.432  15.296  19.789  0.00  0.00    +0.000 HD
ENDBRANCH   4  33
TORSDOF 7
ENDMDL
MODEL 7
REMARK VINA RESULT:      -7.8      1.466      2.331
REMARK  Name = 
REMARK  8 active torsions:
REMARK  status: ('A' for Active; 'I' for Inactive)
REMARK    1  A    between atoms: C_1  and  C_2
REMARK    2  A    between atoms: C_2  and  N_3
REMARK    3  A    between atoms: N_3  and  S_4
REMARK    4  A    between atoms: S_4  and  C_7
REMARK    5  A    between atoms: C_10  and  C_11
REMARK    6  A    between atoms: C_14  and  N_15
REMARK    7  A    between atoms: C_16  and  C_17
REMARK    8  A    between atoms: N_27  and  O_28
REMARK                            x       y       z     vdW  Elec       q    Type
REMARK                         _______ _______ _______ _____ _____    ______ ____
ROOT
ATOM      1  C   UNL     1       1.705   9.621  18.772  0.00  0.00    +0.000 A 
ATOM      2  C   UNL     1       2.326  10.683  18.124  0.00  0.00    +0.000 A 
ATOM      3  N   UNL     1       1.930  11.984  18.187  0.00  0.00    +0.000 NA
ATOM      4  C   UNL     1       0.843  12.293  18.929  0.00  0.00    +0.000 A 
ATOM      5  C   UNL     1       0.077  11.334  19.587  0.00  0.00    +0.000 A 
ATOM      6  C   UNL     1       0.546   9.989  19.476  0.00  0.00    +0.000 A 
ENDROOT
BRANCH   5   7
ATOM      7  C   UNL     1      -0.992  11.621  20.583  0.00  0.00    +0.000 A 
ATOM      8  C   UNL     1      -0.948  11.646  21.985  0.00  0.00    +0.000 A 
ATOM      9  C   UNL     1      -2.085  12.083  22.764  0.00  0.00    +0.000 A 
ATOM     10  C   UNL     1      -3.279  12.519  22.144  0.00  0.00    +0.000 A 
ATOM     11  C   UNL     1      -3.317  12.427  20.769  0.00  0.00    +0.000 A 
ATOM     12  C   UNL     1      -2.218  11.959  20.033  0.00  0.00    +0.000 A 
ATOM     13  C   UNL     1      -4.443  12.825  19.891  0.00  0.00    +0.000 C 
ATOM     14  C   UNL     1      -5.686  13.420  20.463  0.00  0.00    +0.000 C 
ATOM     15  C   UNL     1      -5.759  13.446  21.964  0.00  0.00    +0.000 C 
ATOM     16  C   UNL     1      -4.521  13.066  22.819  0.00  0.00    +0.000 C 
ATOM     17  N   UNL     1      -4.563  13.219  24.113  0.00  0.00    +0.000 NA
BRANCH  17  18
ATOM     18  O   UNL     1      -5.825  13.681  24.558  0.00  0.00    +0.000 OA
ATOM     19  H   UNL     1      -5.628  14.463  25.111  0.00  0.00    +0.000 HD
ENDBRANCH  17  18
ENDBRANCH   5   7
BRANCH   1  23
ATOM     20  C   UNL     1       3.346   5.618  18.752  0.00  0.00    +0.000 A 
ATOM     21  C   UNL     1       2.562   6.036  19.829  0.00  0.00    +0.000 A 
ATOM     22  C   UNL     1       2.015   7.330  19.825  0.00  0.00    +0.000 A 
ATOM     23  C   UNL     1       2.252   8.230  18.760  0.00  0.00    +0.000 A 
ATOM     24  C   UNL     1       3.038   7.759  17.682  0.00  0.00    +0.000 A 
ATOM     25  C   UNL     1       3.589   6.475  17.681  0.00  0.00    +0.000 A 
BRANCH  20  26
ATOM     26  S   UNL     1       4.118   4.017  18.776  0.00  0.00    +0.000 S 
ATOM     27  O   UNL     1       5.442   4.149  19.340  0.00  0.00    +0.000 OA
ATOM     28  O   UNL     1       3.906   3.433  17.458  0.00  0.00    +0.000 OA
BRANCH  26  29
ATOM     29  N   UNL     1       3.146   3.157  19.862  0.00  0.00    +0.000 NA
ATOM     30  H   UNL     1       3.690   2.809  20.650  0.00  0.00    +0.000 HD
BRANCH  29  32
ATOM     31  C   UNL     1       0.830   2.778  19.191  0.00  0.00    +0.000 C 
ATOM     32  C   UNL     1       2.221   2.172  19.278  0.00  0.00    +0.000 C 
ENDBRANCH  29  32
ENDBRANCH  26  29
ENDBRANCH  20  26
ENDBRANCH   1  23
BRANCH   4  33
ATOM     33  N   UNL     1       0.558  13.654  18.992  0.00  0.00    +0.000 N 
ATOM     34  H   UNL     1      -0.230  13.753  19.628  0.00  0.00    +0.000 HD
ATOM     35  H   UNL     1       0.370  14.044  18.077  0.00  0.00    +0.000 HD
ENDBRANCH   4  33
TORSDOF 7
ENDMDL
MODEL 8
REMARK VINA RESULT:      -7.8      2.173      3.167
REMARK  Name = 
REMARK  8 active torsions:
REMARK  status: ('A' for Active; 'I' for Inactive)
REMARK    1  A    between atoms: C_1  and  C_2
REMARK    2  A    between atoms: C_2  and  N_3
REMARK    3  A    between atoms: N_3  and  S_4
REMARK    4  A    between atoms: S_4  and  C_7
REMARK    5  A    between atoms: C_10  and  C_11
REMARK    6  A    between atoms: C_14  and  N_15
REMARK    7  A    between atoms: C_16  and  C_17
REMARK    8  A    between atoms: N_27  and  O_28
REMARK                            x       y       z     vdW  Elec       q    Type
REMARK                         _______ _______ _______ _____ _____    ______ ____
ROOT
ATOM      1  C   UNL     1       2.073   9.445  18.466  0.00  0.00    +0.000 A 
ATOM      2  C   UNL     1       2.639  10.551  17.843  0.00  0.00    +0.000 A 
ATOM      3  N   UNL     1       2.229  11.839  18.001  0.00  0.00    +0.000 NA
ATOM      4  C   UNL     1       1.184  12.089  18.822  0.00  0.00    +0.000 A 
ATOM      5  C   UNL     1       0.472  11.082  19.470  0.00  0.00    +0.000 A 
ATOM      6  C   UNL     1       0.953   9.753  19.256  0.00  0.00    +0.000 A 
ENDROOT
BRANCH   5   7
ATOM      7  C   UNL     1      -0.540  11.296  20.541  0.00  0.00    +0.000 A 
ATOM      8  C   UNL     1      -0.452  11.104  21.928  0.00  0.00    +0.000 A 
ATOM      9  C   UNL     1      -1.526  11.503  22.810  0.00  0.00    +0.000 A 
ATOM     10  C   UNL     1      -2.697  12.119  22.313  0.00  0.00    +0.000 A 
ATOM     11  C   UNL     1      -2.784  12.239  20.942  0.00  0.00    +0.000 A 
ATOM     12  C   UNL     1      -1.750  11.807  20.099  0.00  0.00    +0.000 A 
ATOM     13  C   UNL     1      -3.899  12.852  20.181  0.00  0.00    +0.000 C 
ATOM     14  C   UNL     1      -5.072  13.447  20.886  0.00  0.00    +0.000 C 
ATOM     15  C   UNL     1      -5.097  13.250  22.376  0.00  0.00    +0.000 C 
ATOM     16  C   UNL     1      -3.870  12.650  23.113  0.00  0.00    +0.000 C 
ATOM     17  N   UNL     1      -3.861  12.607  24.416  0.00  0.00    +0.000 NA
BRANCH  17  18
ATOM     18  O   UNL     1      -5.067  13.092  24.977  0.00  0.00    +0.000 OA
ATOM     19  H   UNL     1      -5.025  14.063  24.870  0.00  0.00    +0.000 HD
ENDBRANCH  17  18
ENDBRANCH   5   7
BRANCH   1  23
ATOM     20  C   UNL     1       3.762   5.475  18.139  0.00  0.00    +0.000 A 
ATOM     21  C   UNL     1       2.856   5.756  19.163  0.00  0.00    +0.000 A 
ATOM     22  C   UNL     1       2.294   7.040  19.256  0.00  0.00    +0.000 A 
ATOM     23  C   UNL     1       2.637   8.066  18.344  0.00  0.00    +0.000 A 
ATOM     24  C   UNL     1       3.547   7.732  17.312  0.00  0.00    +0.000 A 
ATOM     25  C   UNL     1       4.112   6.459  17.216  0.00  0.00    +0.000 A 
BRANCH  20  26
ATOM     26  S   UNL     1       4.550   3.884  18.052  0.00  0.00    +0.000 S 
ATOM     27  O   UNL     1       4.784   3.557  16.664  0.00  0.00    +0.000 OA
ATOM     28  O   UNL     1       3.795   2.997  18.927  0.00  0.00    +0.000 OA
BRANCH  26  29
ATOM     29  N   UNL     1       6.039   4.171  18.803  0.00  0.00    +0.000 NA
ATOM     30  H   UNL     1       5.922   4.703  19.665  0.00  0.00    +0.000 HD
BRANCH  29  32
ATOM     31  C   UNL     1       7.625   5.990  18.443  0.00  0.00    +0.000 C 
ATOM     32  C   UNL     1       7.132   4.644  17.938  0.00  0.00    +0.000 C 
ENDBRANCH  29  32
ENDBRANCH  26  29
ENDBRANCH  20  26
ENDBRANCH   1  23
BRANCH   4  33
ATOM     33  N   UNL     1       0.884  13.439  18.978  0.00  0.00    +0.000 N 
ATOM     34  H   UNL     1       1.357  13.743  19.826  0.00  0.00    +0.000 HD
ATOM     35  H   UNL     1      -0.115  13.604  19.010  0.00  0.00    +0.000 HD
ENDBRANCH   4  33
TORSDOF 7
ENDMDL
MODEL 9
REMARK VINA RESULT:      -7.8      3.915      5.946
REMARK  Name = 
REMARK  8 active torsions:
REMARK  status: ('A' for Active; 'I' for Inactive)
REMARK    1  A    between atoms: C_1  and  C_2
REMARK    2  A    between atoms: C_2  and  N_3
REMARK    3  A    between atoms: N_3  and  S_4
REMARK    4  A    between atoms: S_4  and  C_7
REMARK    5  A    between atoms: C_10  and  C_11
REMARK    6  A    between atoms: C_14  and  N_15
REMARK    7  A    between atoms: C_16  and  C_17
REMARK    8  A    between atoms: N_27  and  O_28
REMARK                            x       y       z     vdW  Elec       q    Type
REMARK                         _______ _______ _______ _____ _____    ______ ____
ROOT
ATOM      1  C   UNL     1       1.175   8.645  20.649  0.00  0.00    +0.000 A 
ATOM      2  C   UNL     1       0.314   8.472  21.726  0.00  0.00    +0.000 A 
ATOM      3  N   UNL     1      -0.398   9.462  22.332  0.00  0.00    +0.000 NA
ATOM      4  C   UNL     1      -0.270  10.726  21.868  0.00  0.00    +0.000 A 
ATOM      5  C   UNL     1       0.600  11.070  20.836  0.00  0.00    +0.000 A 
ATOM      6  C   UNL     1       1.319   9.984  20.249  0.00  0.00    +0.000 A 
ENDROOT
BRANCH   5   7
ATOM      7  C   UNL     1       0.634  12.387  20.143  0.00  0.00    +0.000 A 
ATOM      8  C   UNL     1      -0.329  13.406  20.075  0.00  0.00    +0.000 A 
ATOM      9  C   UNL     1      -0.037  14.675  19.447  0.00  0.00    +0.000 A 
ATOM     10  C   UNL     1       1.236  14.946  18.893  0.00  0.00    +0.000 A 
ATOM     11  C   UNL     1       2.142  13.908  18.919  0.00  0.00    +0.000 A 
ATOM     12  C   UNL     1       1.825  12.669  19.494  0.00  0.00    +0.000 A 
ATOM     13  C   UNL     1       3.535  13.943  18.412  0.00  0.00    +0.000 C 
ATOM     14  C   UNL     1       4.106  15.192  17.826  0.00  0.00    +0.000 C 
ATOM     15  C   UNL     1       3.137  16.330  17.663  0.00  0.00    +0.000 C 
ATOM     16  C   UNL     1       1.711  16.243  18.267  0.00  0.00    +0.000 C 
ATOM     17  N   UNL     1       0.932  17.288  18.228  0.00  0.00    +0.000 NA
BRANCH  17  18
ATOM     18  O   UNL     1       1.530  18.378  17.551  0.00  0.00    +0.000 OA
ATOM     19  H   UNL     1       1.965  18.904  18.252  0.00  0.00    +0.000 HD
ENDBRANCH  17  18
ENDBRANCH   5   7
BRANCH   1  23
ATOM     20  C   UNL     1       3.165   5.365  18.648  0.00  0.00    +0.000 A 
ATOM     21  C   UNL     1       2.564   5.152  19.890  0.00  0.00    +0.000 A 
ATOM     22  C   UNL     1       1.902   6.214  20.529  0.00  0.00    +0.000 A 
ATOM     23  C   UNL     1       1.842   7.503  19.951  0.00  0.00    +0.000 A 
ATOM     24  C   UNL     1       2.450   7.670  18.685  0.00  0.00    +0.000 A 
ATOM     25  C   UNL     1       3.113   6.620  18.045  0.00  0.00    +0.000 A 
BRANCH  20  26
ATOM     26  S   UNL     1       4.080   4.061  17.861  0.00  0.00    +0.000 S 
ATOM     27  O   UNL     1       4.423   4.478  16.520  0.00  0.00    +0.000 OA
ATOM     28  O   UNL     1       3.347   2.827  18.111  0.00  0.00    +0.000 OA
BRANCH  26  29
ATOM     29  N   UNL     1       5.494   3.994  18.789  0.00  0.00    +0.000 NA
ATOM     30  H   UNL     1       5.292   3.731  19.753  0.00  0.00    +0.000 HD
BRANCH  29  32
ATOM     31  C   UNL     1       7.630   4.683  17.830  0.00  0.00    +0.000 C 
ATOM     32  C   UNL     1       6.428   5.123  18.648  0.00  0.00    +0.000 C 
ENDBRANCH  29  32
ENDBRANCH  26  29
ENDBRANCH  20  26
ENDBRANCH   1  23
BRANCH   4  33
ATOM     33  N   UNL     1      -1.089  11.657  22.501  0.00  0.00    +0.000 N 
ATOM     34  H   UNL     1      -1.083  11.419  23.491  0.00  0.00    +0.000 HD
ATOM     35  H   UNL     1      -2.024  11.666  22.110  0.00  0.00    +0.000 HD
ENDBRANCH   4  33
TORSDOF 7
ENDMDL
