MODEL 1
REMARK VINA RESULT:      -9.1      0.000      0.000
REMARK  Name = 
REMARK  3 active torsions:
REMARK  status: ('A' for Active; 'I' for Inactive)
REMARK    1  A    between atoms: C_5  and  C_6
REMARK    2  A    between atoms: C_12  and  C_13
REMARK    3  A    between atoms: C_17  and  N_18
REMARK                            x       y       z     vdW  Elec       q    Type
REMARK                         _______ _______ _______ _____ _____    ______ ____
ROOT
ATOM      1  C   UNL     1       4.998   4.859  17.606  0.00  0.00    +0.000 A 
ATOM      2  C   UNL     1       4.974   3.667  18.349  0.00  0.00    +0.000 A 
ATOM      3  C   UNL     1       4.117   3.496  19.445  0.00  0.00    +0.000 A 
ATOM      4  C   UNL     1       3.279   4.566  19.791  0.00  0.00    +0.000 A 
ATOM      5  N   UNL     1       2.349   4.689  20.792  0.00  0.00    +0.000 N 
ATOM      6  C   UNL     1       1.761   5.928  20.745  0.00  0.00    +0.000 A 
ATOM      7  C   UNL     1       2.323   6.641  19.698  0.00  0.00    +0.000 A 
ATOM      8  C   UNL     1       3.279   5.771  19.090  0.00  0.00    +0.000 A 
ATOM      9  C   UNL     1       4.155   5.907  17.996  0.00  0.00    +0.000 A 
ATOM     10  H   UNL     1       2.125   3.961  21.458  0.00  0.00    +0.000 HD
ENDROOT
BRANCH   1  15
ATOM     11  N   UNL     1       7.361   4.754  13.050  0.00  0.00    +0.000 N 
ATOM     12  C   UNL     1       6.989   4.945  14.330  0.00  0.00    +0.000 A 
ATOM     13  N   UNL     1       7.623   5.701  15.194  0.00  0.00    +0.000 NA
ATOM     14  N   UNL     1       7.006   5.722  16.432  0.00  0.00    +0.000 NA
ATOM     15  C   UNL     1       5.903   5.001  16.457  0.00  0.00    +0.000 A 
ATOM     16  S   UNL     1       5.605   4.171  14.971  0.00  0.00    +0.000 S 
ATOM     17  H   UNL     1       8.312   5.019  12.821  0.00  0.00    +0.000 HD
ATOM     18  H   UNL     1       7.030   3.924  12.576  0.00  0.00    +0.000 HD
ENDBRANCH   1  15
BRANCH   7  19
ATOM     19  C   UNL     1       1.926   7.992  19.299  0.00  0.00    +0.000 A 
ATOM     20  C   UNL     1       2.355   8.552  18.101  0.00  0.00    +0.000 A 
ATOM     21  C   UNL     1       2.026   9.875  17.831  0.00  0.00    +0.000 A 
ATOM     22  C   UNL     1       1.317  10.606  18.777  0.00  0.00    +0.000 A 
ATOM     23  C   UNL     1       0.883   9.969  19.932  0.00  0.00    +0.000 A 
ATOM     24  N   UNL     1       1.138   8.664  20.178  0.00  0.00    +0.000 NA
BRANCH  23  25
ATOM     25  N   UNL     1       0.108  10.683  20.857  0.00  0.00    +0.000 N 
ATOM     26  C   UNL     1      -1.038  11.451  20.461  0.00  0.00    +0.000 C 
ATOM     27  C   UNL     1      -1.393  12.201  21.735  0.00  0.00    +0.000 C 
ATOM     28  C   UNL     1      -1.025  11.215  22.834  0.00  0.00    +0.000 C 
ATOM     29  C   UNL     1       0.135  10.457  22.231  0.00  0.00    +0.000 C 
ATOM     30  O   UNL     1       0.882   9.727  22.865  0.00  0.00    +0.000 OA
ENDBRANCH  23  25
ENDBRANCH   7  19
TORSDOF 3
ENDMDL
MODEL 2
REMARK VINA RESULT:      -8.9      3.417      8.472
REMARK  Name = 
REMARK  3 active torsions:
REMARK  status: ('A' for Active; 'I' for Inactive)
REMARK    1  A    between atoms: C_5  and  C_6
REMARK    2  A    between atoms: C_12  and  C_13
REMARK    3  A    between atoms: C_17  and  N_18
REMARK                            x       y       z     vdW  Elec       q    Type
REMARK                         _______ _______ _______ _____ _____    ______ ____
ROOT
ATOM      1  C   UNL     1       1.940   6.716  20.117  0.00  0.00    +0.000 A 
ATOM      2  C   UNL     1       1.215   5.736  20.815  0.00  0.00    +0.000 A 
ATOM      3  C   UNL     1       1.601   4.388  20.811  0.00  0.00    +0.000 A 
ATOM      4  C   UNL     1       2.742   4.038  20.074  0.00  0.00    +0.000 A 
ATOM      5  N   UNL     1       3.353   2.824  19.890  0.00  0.00    +0.000 N 
ATOM      6  C   UNL     1       4.455   2.963  19.085  0.00  0.00    +0.000 A 
ATOM      7  C   UNL     1       4.566   4.295  18.720  0.00  0.00    +0.000 A 
ATOM      8  C   UNL     1       3.483   4.975  19.356  0.00  0.00    +0.000 A 
ATOM      9  C   UNL     1       3.064   6.319  19.382  0.00  0.00    +0.000 A 
ATOM     10  H   UNL     1       3.038   1.955  20.304  0.00  0.00    +0.000 HD
ENDROOT
BRANCH   1  15
ATOM     11  N   UNL     1       0.361  11.442  21.351  0.00  0.00    +0.000 N 
ATOM     12  C   UNL     1       0.778  10.317  20.741  0.00  0.00    +0.000 A 
ATOM     13  N   UNL     1       1.094  10.220  19.471  0.00  0.00    +0.000 NA
ATOM     14  N   UNL     1       1.502   8.946  19.122  0.00  0.00    +0.000 NA
ATOM     15  C   UNL     1       1.511   8.120  20.149  0.00  0.00    +0.000 A 
ATOM     16  S   UNL     1       0.924   8.847  21.603  0.00  0.00    +0.000 S 
ATOM     17  H   UNL     1       0.047  12.187  20.740  0.00  0.00    +0.000 HD
ATOM     18  H   UNL     1      -0.167  11.351  22.209  0.00  0.00    +0.000 HD
ENDBRANCH   1  15
BRANCH   7  19
ATOM     19  C   UNL     1       5.642   4.850  17.897  0.00  0.00    +0.000 A 
ATOM     20  C   UNL     1       6.518   5.809  18.393  0.00  0.00    +0.000 A 
ATOM     21  C   UNL     1       7.451   6.367  17.529  0.00  0.00    +0.000 A 
ATOM     22  C   UNL     1       7.457   5.982  16.193  0.00  0.00    +0.000 A 
ATOM     23  C   UNL     1       6.584   4.985  15.777  0.00  0.00    +0.000 A 
ATOM     24  N   UNL     1       5.715   4.385  16.622  0.00  0.00    +0.000 NA
BRANCH  23  25
ATOM     25  N   UNL     1       6.634   4.543  14.448  0.00  0.00    +0.000 N 
ATOM     26  C   UNL     1       5.541   3.843  13.834  0.00  0.00    +0.000 C 
ATOM     27  C   UNL     1       6.139   3.386  12.514  0.00  0.00    +0.000 C 
ATOM     28  C   UNL     1       7.095   4.513  12.154  0.00  0.00    +0.000 C 
ATOM     29  C   UNL     1       7.545   5.016  13.507  0.00  0.00    +0.000 C 
ATOM     30  O   UNL     1       8.494   5.767  13.679  0.00  0.00    +0.000 OA
ENDBRANCH  23  25
ENDBRANCH   7  19
TORSDOF 3
ENDMDL
MODEL 3
REMARK VINA RESULT:      -8.7      3.125      7.414
REMARK  Name = 
REMARK  3 active torsions:
REMARK  status: ('A' for Active; 'I' for Inactive)
REMARK    1  A    between atoms: C_5  and  C_6
REMARK    2  A    between atoms: C_12  and  C_13
REMARK    3  A    between atoms: C_17  and  N_18
REMARK                            x       y       z     vdW  Elec       q    Type
REMARK                         _______ _______ _______ _____ _____    ______ ____
ROOT
ATOM      1  C   UNL     1       1.680   5.592  19.961  0.00  0.00    +0.000 A 
ATOM      2  C   UNL     1       0.906   4.562  20.522  0.00  0.00    +0.000 A 
ATOM      3  C   UNL     1       1.107   3.217  20.182  0.00  0.00    +0.000 A 
ATOM      4  C   UNL     1       2.109   2.924  19.245  0.00  0.00    +0.000 A 
ATOM      5  N   UNL     1       2.530   1.725  18.729  0.00  0.00    +0.000 N 
ATOM      6  C   UNL     1       3.552   1.924  17.836  0.00  0.00    +0.000 A 
ATOM      7  C   UNL     1       3.802   3.284  17.753  0.00  0.00    +0.000 A 
ATOM      8  C   UNL     1       2.890   3.914  18.654  0.00  0.00    +0.000 A 
ATOM      9  C   UNL     1       2.659   5.254  19.019  0.00  0.00    +0.000 A 
ATOM     10  H   UNL     1       2.146   0.824  18.986  0.00  0.00    +0.000 HD
ENDROOT
BRANCH   1  15
ATOM     11  N   UNL     1       1.056  10.681  20.208  0.00  0.00    +0.000 N 
ATOM     12  C   UNL     1       1.157   9.360  20.445  0.00  0.00    +0.000 A 
ATOM     13  N   UNL     1       0.874   8.774  21.584  0.00  0.00    +0.000 NA
ATOM     14  N   UNL     1       1.057   7.405  21.536  0.00  0.00    +0.000 NA
ATOM     15  C   UNL     1       1.447   6.990  20.347  0.00  0.00    +0.000 A 
ATOM     16  S   UNL     1       1.703   8.285  19.231  0.00  0.00    +0.000 S 
ATOM     17  H   UNL     1       0.988  11.274  21.027  0.00  0.00    +0.000 HD
ATOM     18  H   UNL     1       1.599  11.072  19.448  0.00  0.00    +0.000 HD
ENDBRANCH   1  15
BRANCH   7  19
ATOM     19  C   UNL     1       4.852   3.892  16.934  0.00  0.00    +0.000 A 
ATOM     20  C   UNL     1       5.153   3.414  15.664  0.00  0.00    +0.000 A 
ATOM     21  C   UNL     1       6.229   3.971  14.982  0.00  0.00    +0.000 A 
ATOM     22  C   UNL     1       6.990   4.955  15.601  0.00  0.00    +0.000 A 
ATOM     23  C   UNL     1       6.605   5.416  16.853  0.00  0.00    +0.000 A 
ATOM     24  N   UNL     1       5.521   4.931  17.500  0.00  0.00    +0.000 NA
BRANCH  23  25
ATOM     25  N   UNL     1       7.328   6.457  17.451  0.00  0.00    +0.000 N 
ATOM     26  C   UNL     1       7.107   7.834  17.113  0.00  0.00    +0.000 C 
ATOM     27  C   UNL     1       8.248   8.540  17.826  0.00  0.00    +0.000 C 
ATOM     28  C   UNL     1       8.441   7.709  19.085  0.00  0.00    +0.000 C 
ATOM     29  C   UNL     1       8.051   6.320  18.634  0.00  0.00    +0.000 C 
ATOM     30  O   UNL     1       8.279   5.302  19.270  0.00  0.00    +0.000 OA
ENDBRANCH  23  25
ENDBRANCH   7  19
TORSDOF 3
ENDMDL
MODEL 4
REMARK VINA RESULT:      -8.6      0.875      1.151
REMARK  Name = 
REMARK  3 active torsions:
REMARK  status: ('A' for Active; 'I' for Inactive)
REMARK    1  A    between atoms: C_5  and  C_6
REMARK    2  A    between atoms: C_12  and  C_13
REMARK    3  A    between atoms: C_17  and  N_18
REMARK                            x       y       z     vdW  Elec       q    Type
REMARK                         _______ _______ _______ _____ _____    ______ ____
ROOT
ATOM      1  C   UNL     1       5.076   4.775  17.623  0.00  0.00    +0.000 A 
ATOM      2  C   UNL     1       5.095   3.559  18.328  0.00  0.00    +0.000 A 
ATOM      3  C   UNL     1       4.242   3.321  19.415  0.00  0.00    +0.000 A 
ATOM      4  C   UNL     1       3.363   4.347  19.791  0.00  0.00    +0.000 A 
ATOM      5  N   UNL     1       2.427   4.403  20.792  0.00  0.00    +0.000 N 
ATOM      6  C   UNL     1       1.792   5.620  20.782  0.00  0.00    +0.000 A 
ATOM      7  C   UNL     1       2.329   6.386  19.760  0.00  0.00    +0.000 A 
ATOM      8  C   UNL     1       3.320   5.573  19.129  0.00  0.00    +0.000 A 
ATOM      9  C   UNL     1       4.193   5.776  18.043  0.00  0.00    +0.000 A 
ATOM     10  H   UNL     1       2.228   3.647  21.434  0.00  0.00    +0.000 HD
ENDROOT
BRANCH   1  15
ATOM     11  N   UNL     1       7.385   5.040  13.047  0.00  0.00    +0.000 N 
ATOM     12  C   UNL     1       7.038   5.106  14.346  0.00  0.00    +0.000 A 
ATOM     13  N   UNL     1       7.732   5.709  15.281  0.00  0.00    +0.000 NA
ATOM     14  N   UNL     1       7.130   5.627  16.523  0.00  0.00    +0.000 NA
ATOM     15  C   UNL     1       5.979   4.986  16.484  0.00  0.00    +0.000 A 
ATOM     16  S   UNL     1       5.609   4.360  14.916  0.00  0.00    +0.000 S 
ATOM     17  H   UNL     1       8.350   5.264  12.833  0.00  0.00    +0.000 HD
ATOM     18  H   UNL     1       6.991   4.297  12.485  0.00  0.00    +0.000 HD
ENDBRANCH   1  15
BRANCH   7  19
ATOM     19  C   UNL     1       1.883   7.734  19.403  0.00  0.00    +0.000 A 
ATOM     20  C   UNL     1       2.280   8.341  18.216  0.00  0.00    +0.000 A 
ATOM     21  C   UNL     1       1.903   9.659  17.986  0.00  0.00    +0.000 A 
ATOM     22  C   UNL     1       1.181  10.339  18.959  0.00  0.00    +0.000 A 
ATOM     23  C   UNL     1       0.781   9.656  20.101  0.00  0.00    +0.000 A 
ATOM     24  N   UNL     1       1.082   8.355  20.308  0.00  0.00    +0.000 NA
BRANCH  23  25
ATOM     25  N   UNL     1      -0.007  10.318  21.052  0.00  0.00    +0.000 N 
ATOM     26  C   UNL     1       0.109  10.053  22.458  0.00  0.00    +0.000 C 
ATOM     27  C   UNL     1      -1.070  10.815  23.040  0.00  0.00    +0.000 C 
ATOM     28  C   UNL     1      -1.184  12.029  22.131  0.00  0.00    +0.000 C 
ATOM     29  C   UNL     1      -0.701  11.499  20.800  0.00  0.00    +0.000 C 
ATOM     30  O   UNL     1      -0.847  12.080  19.735  0.00  0.00    +0.000 OA
ENDBRANCH  23  25
ENDBRANCH   7  19
TORSDOF 3
ENDMDL
MODEL 5
REMARK VINA RESULT:      -8.5      3.962      8.228
REMARK  Name = 
REMARK  3 active torsions:
REMARK  status: ('A' for Active; 'I' for Inactive)
REMARK    1  A    between atoms: C_5  and  C_6
REMARK    2  A    between atoms: C_12  and  C_13
REMARK    3  A    between atoms: C_17  and  N_18
REMARK                            x       y       z     vdW  Elec       q    Type
REMARK                         _______ _______ _______ _____ _____    ______ ____
ROOT
ATOM      1  C   UNL     1      -2.024  10.928  18.598  0.00  0.00    +0.000 A 
ATOM      2  C   UNL     1      -2.325  11.803  19.655  0.00  0.00    +0.000 A 
ATOM      3  C   UNL     1      -1.561  11.832  20.830  0.00  0.00    +0.000 A 
ATOM      4  C   UNL     1      -0.478  10.946  20.927  0.00  0.00    +0.000 A 
ATOM      5  N   UNL     1       0.434  10.752  21.933  0.00  0.00    +0.000 N 
ATOM      6  C   UNL     1       1.327   9.771  21.582  0.00  0.00    +0.000 A 
ATOM      7  C   UNL     1       0.988   9.299  20.324  0.00  0.00    +0.000 A 
ATOM      8  C   UNL     1      -0.152  10.053  19.908  0.00  0.00    +0.000 A 
ATOM      9  C   UNL     1      -0.943  10.051  18.743  0.00  0.00    +0.000 A 
ATOM     10  H   UNL     1       0.450  11.272  22.801  0.00  0.00    +0.000 HD
ENDROOT
BRANCH   1  15
ATOM     11  N   UNL     1      -4.207  10.071  14.032  0.00  0.00    +0.000 N 
ATOM     12  C   UNL     1      -3.849  10.516  15.251  0.00  0.00    +0.000 A 
ATOM     13  N   UNL     1      -4.499  11.420  15.944  0.00  0.00    +0.000 NA
ATOM     14  N   UNL     1      -3.909  11.675  17.168  0.00  0.00    +0.000 NA
ATOM     15  C   UNL     1      -2.841  10.931  17.378  0.00  0.00    +0.000 A 
ATOM     16  S   UNL     1      -2.443   9.928  16.027  0.00  0.00    +0.000 S 
ATOM     17  H   UNL     1      -4.878  10.641  13.531  0.00  0.00    +0.000 HD
ATOM     18  H   UNL     1      -3.495   9.650  13.450  0.00  0.00    +0.000 HD
ENDBRANCH   1  15
BRANCH   7  19
ATOM     19  C   UNL     1       1.731   8.275  19.587  0.00  0.00    +0.000 A 
ATOM     20  C   UNL     1       2.424   8.576  18.420  0.00  0.00    +0.000 A 
ATOM     21  C   UNL     1       3.022   7.538  17.716  0.00  0.00    +0.000 A 
ATOM     22  C   UNL     1       2.878   6.234  18.174  0.00  0.00    +0.000 A 
ATOM     23  C   UNL     1       2.209   6.012  19.371  0.00  0.00    +0.000 A 
ATOM     24  N   UNL     1       1.680   7.018  20.102  0.00  0.00    +0.000 NA
BRANCH  23  25
ATOM     25  N   UNL     1       2.122   4.706  19.873  0.00  0.00    +0.000 N 
ATOM     26  C   UNL     1       2.280   4.412  21.269  0.00  0.00    +0.000 C 
ATOM     27  C   UNL     1       2.331   2.893  21.286  0.00  0.00    +0.000 C 
ATOM     28  C   UNL     1       1.396   2.499  20.153  0.00  0.00    +0.000 C 
ATOM     29  C   UNL     1       1.548   3.644  19.178  0.00  0.00    +0.000 C 
ATOM     30  O   UNL     1       1.148   3.620  18.024  0.00  0.00    +0.000 OA
ENDBRANCH  23  25
ENDBRANCH   7  19
TORSDOF 3
ENDMDL
MODEL 6
REMARK VINA RESULT:      -8.5      3.115      4.647
REMARK  Name = 
REMARK  3 active torsions:
REMARK  status: ('A' for Active; 'I' for Inactive)
REMARK    1  A    between atoms: C_5  and  C_6
REMARK    2  A    between atoms: C_12  and  C_13
REMARK    3  A    between atoms: C_17  and  N_18
REMARK                            x       y       z     vdW  Elec       q    Type
REMARK                         _______ _______ _______ _____ _____    ______ ____
ROOT
ATOM      1  C   UNL     1       2.883   6.310  18.993  0.00  0.00    +0.000 A 
ATOM      2  C   UNL     1       3.318   6.642  17.699  0.00  0.00    +0.000 A 
ATOM      3  C   UNL     1       3.052   7.895  17.129  0.00  0.00    +0.000 A 
ATOM      4  C   UNL     1       2.322   8.818  17.892  0.00  0.00    +0.000 A 
ATOM      5  N   UNL     1       1.921  10.098  17.607  0.00  0.00    +0.000 N 
ATOM      6  C   UNL     1       1.225  10.625  18.666  0.00  0.00    +0.000 A 
ATOM      7  C   UNL     1       1.156   9.668  19.665  0.00  0.00    +0.000 A 
ATOM      8  C   UNL     1       1.860   8.526  19.174  0.00  0.00    +0.000 A 
ATOM      9  C   UNL     1       2.144   7.256  19.713  0.00  0.00    +0.000 A 
ATOM     10  H   UNL     1       2.125  10.584  16.743  0.00  0.00    +0.000 HD
ENDROOT
BRANCH   1  15
ATOM     11  N   UNL     1       4.894   1.792  20.366  0.00  0.00    +0.000 N 
ATOM     12  C   UNL     1       4.138   2.892  20.194  0.00  0.00    +0.000 A 
ATOM     13  N   UNL     1       3.037   3.160  20.855  0.00  0.00    +0.000 NA
ATOM     14  N   UNL     1       2.474   4.366  20.480  0.00  0.00    +0.000 NA
ATOM     15  C   UNL     1       3.186   4.990  19.562  0.00  0.00    +0.000 A 
ATOM     16  S   UNL     1       4.555   4.078  19.035  0.00  0.00    +0.000 S 
ATOM     17  H   UNL     1       4.456   1.025  20.863  0.00  0.00    +0.000 HD
ATOM     18  H   UNL     1       5.505   1.510  19.611  0.00  0.00    +0.000 HD
ENDBRANCH   1  15
BRANCH   7  19
ATOM     19  C   UNL     1       0.529   9.867  20.973  0.00  0.00    +0.000 A 
ATOM     20  C   UNL     1       0.593   8.898  21.967  0.00  0.00    +0.000 A 
ATOM     21  C   UNL     1      -0.110   9.108  23.147  0.00  0.00    +0.000 A 
ATOM     22  C   UNL     1      -0.882  10.256  23.283  0.00  0.00    +0.000 A 
ATOM     23  C   UNL     1      -0.864  11.203  22.267  0.00  0.00    +0.000 A 
ATOM     24  N   UNL     1      -0.132  11.043  21.141  0.00  0.00    +0.000 NA
BRANCH  23  25
ATOM     25  N   UNL     1      -1.586  12.393  22.429  0.00  0.00    +0.000 N 
ATOM     26  C   UNL     1      -2.996  12.401  22.697  0.00  0.00    +0.000 C 
ATOM     27  C   UNL     1      -3.353  13.873  22.564  0.00  0.00    +0.000 C 
ATOM     28  C   UNL     1      -2.107  14.581  23.075  0.00  0.00    +0.000 C 
ATOM     29  C   UNL     1      -0.998  13.628  22.695  0.00  0.00    +0.000 C 
ATOM     30  O   UNL     1       0.190  13.914  22.713  0.00  0.00    +0.000 OA
ENDBRANCH  23  25
ENDBRANCH   7  19
TORSDOF 3
ENDMDL
MODEL 7
REMARK VINA RESULT:      -8.5      1.104      1.120
REMARK  Name = 
REMARK  3 active torsions:
REMARK  status: ('A' for Active; 'I' for Inactive)
REMARK    1  A    between atoms: C_5  and  C_6
REMARK    2  A    between atoms: C_12  and  C_13
REMARK    3  A    between atoms: C_17  and  N_18
REMARK                            x       y       z     vdW  Elec       q    Type
REMARK                         _______ _______ _______ _____ _____    ______ ____
ROOT
ATOM      1  C   UNL     1       4.830   4.858  18.165  0.00  0.00    +0.000 A 
ATOM      2  C   UNL     1       4.669   3.747  19.009  0.00  0.00    +0.000 A 
ATOM      3  C   UNL     1       3.714   3.731  20.035  0.00  0.00    +0.000 A 
ATOM      4  C   UNL     1       2.918   4.874  20.204  0.00  0.00    +0.000 A 
ATOM      5  N   UNL     1       1.918   5.144  21.102  0.00  0.00    +0.000 N 
ATOM      6  C   UNL     1       1.414   6.403  20.889  0.00  0.00    +0.000 A 
ATOM      7  C   UNL     1       2.106   6.979  19.835  0.00  0.00    +0.000 A 
ATOM      8  C   UNL     1       3.054   6.003  19.398  0.00  0.00    +0.000 A 
ATOM      9  C   UNL     1       4.025   5.983  18.379  0.00  0.00    +0.000 A 
ATOM     10  H   UNL     1       1.592   4.498  21.810  0.00  0.00    +0.000 HD
ENDROOT
BRANCH   1  15
ATOM     11  N   UNL     1       7.553   5.356  13.842  0.00  0.00    +0.000 N 
ATOM     12  C   UNL     1       7.092   5.081  15.076  0.00  0.00    +0.000 A 
ATOM     13  N   UNL     1       7.798   4.544  16.042  0.00  0.00    +0.000 NA
ATOM     14  N   UNL     1       7.070   4.386  17.207  0.00  0.00    +0.000 NA
ATOM     15  C   UNL     1       5.836   4.837  17.094  0.00  0.00    +0.000 A 
ATOM     16  S   UNL     1       5.468   5.405  15.504  0.00  0.00    +0.000 S 
ATOM     17  H   UNL     1       8.421   4.903  13.581  0.00  0.00    +0.000 HD
ATOM     18  H   UNL     1       6.882   5.443  13.090  0.00  0.00    +0.000 HD
ENDBRANCH   1  15
BRANCH   7  19
ATOM     19  C   UNL     1       1.831   8.305  19.280  0.00  0.00    +0.000 A 
ATOM     20  C   UNL     1       2.369   8.710  18.063  0.00  0.00    +0.000 A 
ATOM     21  C   UNL     1       2.151  10.017  17.643  0.00  0.00    +0.000 A 
ATOM     22  C   UNL     1       1.440  10.885  18.463  0.00  0.00    +0.000 A 
ATOM     23  C   UNL     1       0.894  10.399  19.644  0.00  0.00    +0.000 A 
ATOM     24  N   UNL     1       1.041   9.113  20.034  0.00  0.00    +0.000 NA
BRANCH  23  25
ATOM     25  N   UNL     1       0.118  11.253  20.440  0.00  0.00    +0.000 N 
ATOM     26  C   UNL     1      -1.226  10.926  20.826  0.00  0.00    +0.000 C 
ATOM     27  C   UNL     1      -1.713  12.216  21.463  0.00  0.00    +0.000 C 
ATOM     28  C   UNL     1      -0.460  12.777  22.120  0.00  0.00    +0.000 C 
ATOM     29  C   UNL     1       0.643  12.289  21.208  0.00  0.00    +0.000 C 
ATOM     30  O   UNL     1       1.792  12.705  21.237  0.00  0.00    +0.000 OA
ENDBRANCH  23  25
ENDBRANCH   7  19
TORSDOF 3
ENDMDL
MODEL 8
REMARK VINA RESULT:      -8.4      3.109      4.646
REMARK  Name = 
REMARK  3 active torsions:
REMARK  status: ('A' for Active; 'I' for Inactive)
REMARK    1  A    between atoms: C_5  and  C_6
REMARK    2  A    between atoms: C_12  and  C_13
REMARK    3  A    between atoms: C_17  and  N_18
REMARK                            x       y       z     vdW  Elec       q    Type
REMARK                         _______ _______ _______ _____ _____    ______ ____
ROOT
ATOM      1  C   UNL     1       2.929   6.322  18.966  0.00  0.00    +0.000 A 
ATOM      2  C   UNL     1       3.380   6.689  17.687  0.00  0.00    +0.000 A 
ATOM      3  C   UNL     1       3.103   7.949  17.139  0.00  0.00    +0.000 A 
ATOM      4  C   UNL     1       2.344   8.843  17.908  0.00  0.00    +0.000 A 
ATOM      5  N   UNL     1       1.927  10.123  17.643  0.00  0.00    +0.000 N 
ATOM      6  C   UNL     1       1.204  10.616  18.701  0.00  0.00    +0.000 A 
ATOM      7  C   UNL     1       1.135   9.636  19.679  0.00  0.00    +0.000 A 
ATOM      8  C   UNL     1       1.866   8.517  19.176  0.00  0.00    +0.000 A 
ATOM      9  C   UNL     1       2.162   7.241  19.693  0.00  0.00    +0.000 A 
ATOM     10  H   UNL     1       2.136  10.630  16.793  0.00  0.00    +0.000 HD
ENDROOT
BRANCH   1  15
ATOM     11  N   UNL     1       4.971   1.789  20.240  0.00  0.00    +0.000 N 
ATOM     12  C   UNL     1       4.211   2.891  20.098  0.00  0.00    +0.000 A 
ATOM     13  N   UNL     1       3.127   3.152  20.789  0.00  0.00    +0.000 NA
ATOM     14  N   UNL     1       2.556   4.362  20.440  0.00  0.00    +0.000 NA
ATOM     15  C   UNL     1       3.245   4.996  19.513  0.00  0.00    +0.000 A 
ATOM     16  S   UNL     1       4.602   4.090  18.943  0.00  0.00    +0.000 S 
ATOM     17  H   UNL     1       4.544   1.016  20.738  0.00  0.00    +0.000 HD
ATOM     18  H   UNL     1       5.563   1.515  19.466  0.00  0.00    +0.000 HD
ENDBRANCH   1  15
BRANCH   7  19
ATOM     19  C   UNL     1       0.482   9.798  20.979  0.00  0.00    +0.000 A 
ATOM     20  C   UNL     1       0.267   8.716  21.825  0.00  0.00    +0.000 A 
ATOM     21  C   UNL     1      -0.449   8.922  22.998  0.00  0.00    +0.000 A 
ATOM     22  C   UNL     1      -0.958  10.186  23.271  0.00  0.00    +0.000 A 
ATOM     23  C   UNL     1      -0.666  11.230  22.403  0.00  0.00    +0.000 A 
ATOM     24  N   UNL     1       0.085  11.059  21.292  0.00  0.00    +0.000 NA
BRANCH  23  25
ATOM     25  N   UNL     1      -1.118  12.521  22.710  0.00  0.00    +0.000 N 
ATOM     26  C   UNL     1      -0.361  13.695  22.379  0.00  0.00    +0.000 C 
ATOM     27  C   UNL     1      -1.123  14.797  23.096  0.00  0.00    +0.000 C 
ATOM     28  C   UNL     1      -2.569  14.332  23.013  0.00  0.00    +0.000 C 
ATOM     29  C   UNL     1      -2.439  12.825  23.028  0.00  0.00    +0.000 C 
ATOM     30  O   UNL     1      -3.372  12.058  23.210  0.00  0.00    +0.000 OA
ENDBRANCH  23  25
ENDBRANCH   7  19
TORSDOF 3
ENDMDL
MODEL 9
REMARK VINA RESULT:      -8.4      3.208      5.071
REMARK  Name = 
REMARK  3 active torsions:
REMARK  status: ('A' for Active; 'I' for Inactive)
REMARK    1  A    between atoms: C_5  and  C_6
REMARK    2  A    between atoms: C_12  and  C_13
REMARK    3  A    between atoms: C_17  and  N_18
REMARK                            x       y       z     vdW  Elec       q    Type
REMARK                         _______ _______ _______ _____ _____    ______ ____
ROOT
ATOM      1  C   UNL     1       2.602   6.528  19.184  0.00  0.00    +0.000 A 
ATOM      2  C   UNL     1       3.112   6.822  17.909  0.00  0.00    +0.000 A 
ATOM      3  C   UNL     1       2.936   8.080  17.314  0.00  0.00    +0.000 A 
ATOM      4  C   UNL     1       2.220   9.048  18.034  0.00  0.00    +0.000 A 
ATOM      5  N   UNL     1       1.899  10.343  17.719  0.00  0.00    +0.000 N 
ATOM      6  C   UNL     1       1.183  10.917  18.739  0.00  0.00    +0.000 A 
ATOM      7  C   UNL     1       1.020   9.977  19.743  0.00  0.00    +0.000 A 
ATOM      8  C   UNL     1       1.686   8.795  19.296  0.00  0.00    +0.000 A 
ATOM      9  C   UNL     1       1.880   7.519  19.860  0.00  0.00    +0.000 A 
ATOM     10  H   UNL     1       2.166  10.808  16.860  0.00  0.00    +0.000 HD
ENDROOT
BRANCH   1  15
ATOM     11  N   UNL     1       2.384   2.141  21.840  0.00  0.00    +0.000 N 
ATOM     12  C   UNL     1       2.694   3.163  21.021  0.00  0.00    +0.000 A 
ATOM     13  N   UNL     1       3.655   3.150  20.129  0.00  0.00    +0.000 NA
ATOM     14  N   UNL     1       3.737   4.335  19.420  0.00  0.00    +0.000 NA
ATOM     15  C   UNL     1       2.811   5.202  19.780  0.00  0.00    +0.000 A 
ATOM     16  S   UNL     1       1.832   4.640  21.089  0.00  0.00    +0.000 S 
ATOM     17  H   UNL     1       3.088   1.417  21.931  0.00  0.00    +0.000 HD
ATOM     18  H   UNL     1       1.881   2.348  22.693  0.00  0.00    +0.000 HD
ENDBRANCH   1  15
BRANCH   7  19
ATOM     19  C   UNL     1       0.345  10.224  21.018  0.00  0.00    +0.000 A 
ATOM     20  C   UNL     1       0.426   9.321  22.072  0.00  0.00    +0.000 A 
ATOM     21  C   UNL     1      -0.321   9.567  23.218  0.00  0.00    +0.000 A 
ATOM     22  C   UNL     1      -1.152  10.680  23.261  0.00  0.00    +0.000 A 
ATOM     23  C   UNL     1      -1.150  11.563  22.189  0.00  0.00    +0.000 A 
ATOM     24  N   UNL     1      -0.377  11.372  21.096  0.00  0.00    +0.000 NA
BRANCH  23  25
ATOM     25  N   UNL     1      -1.933  12.724  22.258  0.00  0.00    +0.000 N 
ATOM     26  C   UNL     1      -3.364  12.686  22.152  0.00  0.00    +0.000 C 
ATOM     27  C   UNL     1      -3.730  14.158  22.053  0.00  0.00    +0.000 C 
ATOM     28  C   UNL     1      -2.684  14.837  22.926  0.00  0.00    +0.000 C 
ATOM     29  C   UNL     1      -1.479  13.938  22.768  0.00  0.00    +0.000 C 
ATOM     30  O   UNL     1      -0.348  14.239  23.116  0.00  0.00    +0.000 OA
ENDBRANCH  23  25
ENDBRANCH   7  19
TORSDOF 3
ENDMDL
