MODEL 1
REMARK VINA RESULT:      -6.7      0.000      0.000
REMARK  Name = 
REMARK  5 active torsions:
REMARK  status: ('A' for Active; 'I' for Inactive)
REMARK    1  A    between atoms: C_1  and  O_2
REMARK    2  A    between atoms: O_2  and  C_3
REMARK    3  A    between atoms: C_3  and  C_4
REMARK    4  A    between atoms: C_12  and  C_13
REMARK    5  A    between atoms: C_13  and  C_14
REMARK                            x       y       z     vdW  Elec       q    Type
REMARK                         _______ _______ _______ _____ _____    ______ ____
ROOT
ATOM      1  C   UNL     1       6.018   4.950  15.572  0.00  0.00    +0.000 A 
ATOM      2  N   UNL     1       6.774   5.926  16.082  0.00  0.00    +0.000 NA
ATOM      3  S   UNL     1       5.880   6.642  17.277  0.00  0.00    +0.000 S 
ATOM      4  C   UNL     1       4.491   5.619  17.028  0.00  0.00    +0.000 A 
ATOM      5  N   UNL     1       3.343   5.701  17.761  0.00  0.00    +0.000 N 
ATOM      6  C   UNL     1       2.850   6.975  18.280  0.00  0.00    +0.000 C 
ATOM      7  C   UNL     1       2.473   6.774  19.742  0.00  0.00    +0.000 C 
ATOM      8  C   UNL     1       1.485   5.614  19.904  0.00  0.00    +0.000 C 
ATOM      9  C   UNL     1       1.959   4.314  19.207  0.00  0.00    +0.000 C 
ATOM     10  C   UNL     1       2.362   4.623  17.746  0.00  0.00    +0.000 C 
ATOM     11  N   UNL     1       4.737   4.725  16.090  0.00  0.00    +0.000 NA
ENDROOT
BRANCH   1  12
ATOM     12  C   UNL     1       6.534   4.104  14.448  0.00  0.00    +0.000 C 
BRANCH  12  14
ATOM     13  C   UNL     1       6.204   3.329  12.226  0.00  0.00    +0.000 C 
ATOM     14  O   UNL     1       5.595   3.881  13.384  0.00  0.00    +0.000 OA
ENDBRANCH  12  14
ENDBRANCH   1  12
BRANCH   9  15
ATOM     15  C   UNL     1       3.080   3.651  20.043  0.00  0.00    +0.000 C 
BRANCH  15  16
ATOM     16  C   UNL     1       2.628   2.842  21.248  0.00  0.00    +0.000 C 
ATOM     17  F   UNL     1       2.331   3.597  22.321  0.00  0.00    +0.000 F 
ATOM     18  F   UNL     1       1.550   2.087  20.945  0.00  0.00    +0.000 F 
ATOM     19  F   UNL     1       3.616   1.996  21.632  0.00  0.00    +0.000 F 
ENDBRANCH  15  16
ENDBRANCH   9  15
TORSDOF 4
ENDMDL
MODEL 2
REMARK VINA RESULT:      -6.6      3.649      4.673
REMARK  Name = 
REMARK  5 active torsions:
REMARK  status: ('A' for Active; 'I' for Inactive)
REMARK    1  A    between atoms: C_1  and  O_2
REMARK    2  A    between atoms: O_2  and  C_3
REMARK    3  A    between atoms: C_3  and  C_4
REMARK    4  A    between atoms: C_12  and  C_13
REMARK    5  A    between atoms: C_13  and  C_14
REMARK                            x       y       z     vdW  Elec       q    Type
REMARK                         _______ _______ _______ _____ _____    ______ ____
ROOT
ATOM      1  C   UNL     1       7.254   6.532  17.611  0.00  0.00    +0.000 A 
ATOM      2  N   UNL     1       7.434   6.069  16.372  0.00  0.00    +0.000 NA
ATOM      3  S   UNL     1       6.212   4.988  16.088  0.00  0.00    +0.000 S 
ATOM      4  C   UNL     1       5.510   5.171  17.673  0.00  0.00    +0.000 A 
ATOM      5  N   UNL     1       4.389   4.513  18.091  0.00  0.00    +0.000 N 
ATOM      6  C   UNL     1       4.076   3.161  17.636  0.00  0.00    +0.000 C 
ATOM      7  C   UNL     1       2.611   3.131  17.221  0.00  0.00    +0.000 C 
ATOM      8  C   UNL     1       1.705   3.630  18.352  0.00  0.00    +0.000 C 
ATOM      9  C   UNL     1       2.154   4.998  18.925  0.00  0.00    +0.000 C 
ATOM     10  C   UNL     1       3.660   4.948  19.276  0.00  0.00    +0.000 C 
ATOM     11  N   UNL     1       6.170   6.075  18.371  0.00  0.00    +0.000 NA
ENDROOT
BRANCH   1  12
ATOM     12  C   UNL     1       8.208   7.533  18.189  0.00  0.00    +0.000 C 
BRANCH  12  14
ATOM     13  C   UNL     1       8.785   9.820  18.483  0.00  0.00    +0.000 C 
ATOM     14  O   UNL     1       7.986   8.888  17.768  0.00  0.00    +0.000 OA
ENDBRANCH  12  14
ENDBRANCH   1  12
BRANCH   9  15
ATOM     15  C   UNL     1       1.773   6.129  17.941  0.00  0.00    +0.000 C 
BRANCH  15  16
ATOM     16  C   UNL     1       2.264   7.522  18.298  0.00  0.00    +0.000 C 
ATOM     17  F   UNL     1       2.319   7.749  19.624  0.00  0.00    +0.000 F 
ATOM     18  F   UNL     1       3.488   7.750  17.776  0.00  0.00    +0.000 F 
ATOM     19  F   UNL     1       1.426   8.454  17.781  0.00  0.00    +0.000 F 
ENDBRANCH  15  16
ENDBRANCH   9  15
TORSDOF 4
ENDMDL
MODEL 3
REMARK VINA RESULT:      -6.6      3.733      6.232
REMARK  Name = 
REMARK  5 active torsions:
REMARK  status: ('A' for Active; 'I' for Inactive)
REMARK    1  A    between atoms: C_1  and  O_2
REMARK    2  A    between atoms: O_2  and  C_3
REMARK    3  A    between atoms: C_3  and  C_4
REMARK    4  A    between atoms: C_12  and  C_13
REMARK    5  A    between atoms: C_13  and  C_14
REMARK                            x       y       z     vdW  Elec       q    Type
REMARK                         _______ _______ _______ _____ _____    ______ ____
ROOT
ATOM      1  C   UNL     1       2.453   5.379  19.489  0.00  0.00    +0.000 A 
ATOM      2  N   UNL     1       2.077   4.106  19.355  0.00  0.00    +0.000 NA
ATOM      3  S   UNL     1       2.970   3.476  18.111  0.00  0.00    +0.000 S 
ATOM      4  C   UNL     1       3.807   4.970  17.786  0.00  0.00    +0.000 A 
ATOM      5  N   UNL     1       4.757   5.116  16.817  0.00  0.00    +0.000 N 
ATOM      6  C   UNL     1       4.693   4.377  15.559  0.00  0.00    +0.000 C 
ATOM      7  C   UNL     1       6.072   3.790  15.286  0.00  0.00    +0.000 C 
ATOM      8  C   UNL     1       7.151   4.878  15.313  0.00  0.00    +0.000 C 
ATOM      9  C   UNL     1       7.097   5.752  16.591  0.00  0.00    +0.000 C 
ATOM     10  C   UNL     1       5.654   6.265  16.811  0.00  0.00    +0.000 C 
ATOM     11  N   UNL     1       3.442   5.901  18.645  0.00  0.00    +0.000 NA
ENDROOT
BRANCH   1  12
ATOM     12  C   UNL     1       1.820   6.249  20.533  0.00  0.00    +0.000 C 
BRANCH  12  14
ATOM     13  C   UNL     1       1.350   8.449  21.297  0.00  0.00    +0.000 C 
ATOM     14  O   UNL     1       1.781   7.647  20.207  0.00  0.00    +0.000 OA
ENDBRANCH  12  14
ENDBRANCH   1  12
BRANCH   9  15
ATOM     15  C   UNL     1       7.674   4.963  17.790  0.00  0.00    +0.000 C 
BRANCH  15  16
ATOM     16  C   UNL     1       7.825   5.734  19.091  0.00  0.00    +0.000 C 
ATOM     17  F   UNL     1       8.222   7.008  18.916  0.00  0.00    +0.000 F 
ATOM     18  F   UNL     1       6.668   5.739  19.786  0.00  0.00    +0.000 F 
ATOM     19  F   UNL     1       8.762   5.142  19.873  0.00  0.00    +0.000 F 
ENDBRANCH  15  16
ENDBRANCH   9  15
TORSDOF 4
ENDMDL
MODEL 4
REMARK VINA RESULT:      -6.6      3.715      6.120
REMARK  Name = 
REMARK  5 active torsions:
REMARK  status: ('A' for Active; 'I' for Inactive)
REMARK    1  A    between atoms: C_1  and  O_2
REMARK    2  A    between atoms: O_2  and  C_3
REMARK    3  A    between atoms: C_3  and  C_4
REMARK    4  A    between atoms: C_12  and  C_13
REMARK    5  A    between atoms: C_13  and  C_14
REMARK                            x       y       z     vdW  Elec       q    Type
REMARK                         _______ _______ _______ _____ _____    ______ ____
ROOT
ATOM      1  C   UNL     1       1.360   8.547  20.299  0.00  0.00    +0.000 A 
ATOM      2  N   UNL     1       1.236   9.233  19.161  0.00  0.00    +0.000 NA
ATOM      3  S   UNL     1       2.120   8.423  18.020  0.00  0.00    +0.000 S 
ATOM      4  C   UNL     1       2.662   7.192  19.129  0.00  0.00    +0.000 A 
ATOM      5  N   UNL     1       3.467   6.148  18.776  0.00  0.00    +0.000 N 
ATOM      6  C   UNL     1       4.497   6.284  17.749  0.00  0.00    +0.000 C 
ATOM      7  C   UNL     1       4.385   5.091  16.809  0.00  0.00    +0.000 C 
ATOM      8  C   UNL     1       4.451   3.769  17.583  0.00  0.00    +0.000 C 
ATOM      9  C   UNL     1       3.454   3.714  18.768  0.00  0.00    +0.000 C 
ATOM     10  C   UNL     1       3.609   4.983  19.639  0.00  0.00    +0.000 C 
ATOM     11  N   UNL     1       2.131   7.378  20.322  0.00  0.00    +0.000 NA
ENDROOT
BRANCH   1  12
ATOM     12  C   UNL     1       0.682   9.025  21.548  0.00  0.00    +0.000 C 
BRANCH  12  14
ATOM     13  C   UNL     1      -0.374  11.029  22.267  0.00  0.00    +0.000 C 
ATOM     14  O   UNL     1       0.830  10.430  21.811  0.00  0.00    +0.000 OA
ENDBRANCH  12  14
ENDBRANCH   1  12
BRANCH   9  15
ATOM     15  C   UNL     1       2.020   3.485  18.236  0.00  0.00    +0.000 C 
BRANCH  15  16
ATOM     16  C   UNL     1       1.060   2.776  19.178  0.00  0.00    +0.000 C 
ATOM     17  F   UNL     1       0.088   2.096  18.541  0.00  0.00    +0.000 F 
ATOM     18  F   UNL     1       1.721   1.919  19.985  0.00  0.00    +0.000 F 
ATOM     19  F   UNL     1       0.440   3.682  19.974  0.00  0.00    +0.000 F 
ENDBRANCH  15  16
ENDBRANCH   9  15
TORSDOF 4
ENDMDL
MODEL 5
REMARK VINA RESULT:      -6.5      3.781      6.239
REMARK  Name = 
REMARK  5 active torsions:
REMARK  status: ('A' for Active; 'I' for Inactive)
REMARK    1  A    between atoms: C_1  and  O_2
REMARK    2  A    between atoms: O_2  and  C_3
REMARK    3  A    between atoms: C_3  and  C_4
REMARK    4  A    between atoms: C_12  and  C_13
REMARK    5  A    between atoms: C_13  and  C_14
REMARK                            x       y       z     vdW  Elec       q    Type
REMARK                         _______ _______ _______ _____ _____    ______ ____
ROOT
ATOM      1  C   UNL     1       2.337   3.875  19.077  0.00  0.00    +0.000 A 
ATOM      2  N   UNL     1       2.287   2.590  18.720  0.00  0.00    +0.000 NA
ATOM      3  S   UNL     1       3.355   2.404  17.468  0.00  0.00    +0.000 S 
ATOM      4  C   UNL     1       3.814   4.085  17.441  0.00  0.00    +0.000 A 
ATOM      5  N   UNL     1       4.737   4.610  16.583  0.00  0.00    +0.000 N 
ATOM      6  C   UNL     1       4.903   4.098  15.225  0.00  0.00    +0.000 C 
ATOM      7  C   UNL     1       6.393   3.904  14.974  0.00  0.00    +0.000 C 
ATOM      8  C   UNL     1       7.173   5.194  15.251  0.00  0.00    +0.000 C 
ATOM      9  C   UNL     1       6.858   5.804  16.640  0.00  0.00    +0.000 C 
ATOM     10  C   UNL     1       5.326   5.921  16.823  0.00  0.00    +0.000 C 
ATOM     11  N   UNL     1       3.200   4.748  18.402  0.00  0.00    +0.000 NA
ENDROOT
BRANCH   1  12
ATOM     12  C   UNL     1       1.471   4.385  20.189  0.00  0.00    +0.000 C 
BRANCH  12  14
ATOM     13  C   UNL     1       1.580   2.709  21.870  0.00  0.00    +0.000 C 
ATOM     14  O   UNL     1       1.922   4.039  21.508  0.00  0.00    +0.000 OA
ENDBRANCH  12  14
ENDBRANCH   1  12
BRANCH   9  15
ATOM     15  C   UNL     1       7.563   4.982  17.745  0.00  0.00    +0.000 C 
BRANCH  15  16
ATOM     16  C   UNL     1       7.809   5.701  19.061  0.00  0.00    +0.000 C 
ATOM     17  F   UNL     1       8.773   5.134  19.811  0.00  0.00    +0.000 F 
ATOM     18  F   UNL     1       8.138   6.994  18.851  0.00  0.00    +0.000 F 
ATOM     19  F   UNL     1       6.680   5.690  19.812  0.00  0.00    +0.000 F 
ENDBRANCH  15  16
ENDBRANCH   9  15
TORSDOF 4
ENDMDL
MODEL 6
REMARK VINA RESULT:      -6.5      1.105      1.332
REMARK  Name = 
REMARK  5 active torsions:
REMARK  status: ('A' for Active; 'I' for Inactive)
REMARK    1  A    between atoms: C_1  and  O_2
REMARK    2  A    between atoms: O_2  and  C_3
REMARK    3  A    between atoms: C_3  and  C_4
REMARK    4  A    between atoms: C_12  and  C_13
REMARK    5  A    between atoms: C_13  and  C_14
REMARK                            x       y       z     vdW  Elec       q    Type
REMARK                         _______ _______ _______ _____ _____    ______ ____
ROOT
ATOM      1  C   UNL     1       5.909   4.983  15.659  0.00  0.00    +0.000 A 
ATOM      2  N   UNL     1       6.560   6.078  16.057  0.00  0.00    +0.000 NA
ATOM      3  S   UNL     1       5.635   6.775  17.240  0.00  0.00    +0.000 S 
ATOM      4  C   UNL     1       4.372   5.579  17.137  0.00  0.00    +0.000 A 
ATOM      5  N   UNL     1       3.253   5.581  17.918  0.00  0.00    +0.000 N 
ATOM      6  C   UNL     1       2.631   6.824  18.366  0.00  0.00    +0.000 C 
ATOM      7  C   UNL     1       2.341   6.696  19.856  0.00  0.00    +0.000 C 
ATOM      8  C   UNL     1       1.509   5.443  20.151  0.00  0.00    +0.000 C 
ATOM      9  C   UNL     1       2.110   4.158  19.529  0.00  0.00    +0.000 C 
ATOM     10  C   UNL     1       2.412   4.396  18.031  0.00  0.00    +0.000 C 
ATOM     11  N   UNL     1       4.687   4.648  16.256  0.00  0.00    +0.000 NA
ENDROOT
BRANCH   1  12
ATOM     12  C   UNL     1       6.479   4.118  14.575  0.00  0.00    +0.000 C 
BRANCH  12  14
ATOM     13  C   UNL     1       6.257   3.414  12.317  0.00  0.00    +0.000 C 
ATOM     14  O   UNL     1       5.580   3.849  13.487  0.00  0.00    +0.000 OA
ENDBRANCH  12  14
ENDBRANCH   1  12
BRANCH   9  15
ATOM     15  C   UNL     1       3.336   3.701  20.354  0.00  0.00    +0.000 C 
BRANCH  15  16
ATOM     16  C   UNL     1       4.110   2.515  19.803  0.00  0.00    +0.000 C 
ATOM     17  F   UNL     1       4.743   1.800  20.752  0.00  0.00    +0.000 F 
ATOM     18  F   UNL     1       3.298   1.685  19.115  0.00  0.00    +0.000 F 
ATOM     19  F   UNL     1       5.066   2.947  18.944  0.00  0.00    +0.000 F 
ENDBRANCH  15  16
ENDBRANCH   9  15
TORSDOF 4
ENDMDL
MODEL 7
REMARK VINA RESULT:      -6.4      3.008      4.025
REMARK  Name = 
REMARK  5 active torsions:
REMARK  status: ('A' for Active; 'I' for Inactive)
REMARK    1  A    between atoms: C_1  and  O_2
REMARK    2  A    between atoms: O_2  and  C_3
REMARK    3  A    between atoms: C_3  and  C_4
REMARK    4  A    between atoms: C_12  and  C_13
REMARK    5  A    between atoms: C_13  and  C_14
REMARK                            x       y       z     vdW  Elec       q    Type
REMARK                         _______ _______ _______ _____ _____    ______ ____
ROOT
ATOM      1  C   UNL     1       6.969   6.843  17.633  0.00  0.00    +0.000 A 
ATOM      2  N   UNL     1       6.411   7.178  16.467  0.00  0.00    +0.000 NA
ATOM      3  S   UNL     1       5.230   6.057  16.166  0.00  0.00    +0.000 S 
ATOM      4  C   UNL     1       5.549   5.144  17.617  0.00  0.00    +0.000 A 
ATOM      5  N   UNL     1       4.854   4.029  17.985  0.00  0.00    +0.000 N 
ATOM      6  C   UNL     1       4.323   3.093  16.997  0.00  0.00    +0.000 C 
ATOM      7  C   UNL     1       2.880   2.782  17.370  0.00  0.00    +0.000 C 
ATOM      8  C   UNL     1       2.778   2.283  18.816  0.00  0.00    +0.000 C 
ATOM      9  C   UNL     1       3.487   3.216  19.828  0.00  0.00    +0.000 C 
ATOM     10  C   UNL     1       4.927   3.512  19.345  0.00  0.00    +0.000 C 
ATOM     11  N   UNL     1       6.499   5.722  18.328  0.00  0.00    +0.000 NA
ENDROOT
BRANCH   1  12
ATOM     12  C   UNL     1       8.094   7.659  18.194  0.00  0.00    +0.000 C 
BRANCH  12  14
ATOM     13  C   UNL     1       8.916   9.834  18.684  0.00  0.00    +0.000 C 
ATOM     14  O   UNL     1       8.031   9.061  17.887  0.00  0.00    +0.000 OA
ENDBRANCH  12  14
ENDBRANCH   1  12
BRANCH   9  15
ATOM     15  C   UNL     1       2.629   4.482  20.064  0.00  0.00    +0.000 C 
BRANCH  15  16
ATOM     16  C   UNL     1       1.204   4.248  20.537  0.00  0.00    +0.000 C 
ATOM     17  F   UNL     1       1.113   3.363  21.548  0.00  0.00    +0.000 F 
ATOM     18  F   UNL     1       0.630   5.405  20.931  0.00  0.00    +0.000 F 
ATOM     19  F   UNL     1       0.456   3.752  19.521  0.00  0.00    +0.000 F 
ENDBRANCH  15  16
ENDBRANCH   9  15
TORSDOF 4
ENDMDL
MODEL 8
REMARK VINA RESULT:      -6.4      2.818      3.911
REMARK  Name = 
REMARK  5 active torsions:
REMARK  status: ('A' for Active; 'I' for Inactive)
REMARK    1  A    between atoms: C_1  and  O_2
REMARK    2  A    between atoms: O_2  and  C_3
REMARK    3  A    between atoms: C_3  and  C_4
REMARK    4  A    between atoms: C_12  and  C_13
REMARK    5  A    between atoms: C_13  and  C_14
REMARK                            x       y       z     vdW  Elec       q    Type
REMARK                         _______ _______ _______ _____ _____    ______ ____
ROOT
ATOM      1  C   UNL     1       6.490   5.691  17.523  0.00  0.00    +0.000 A 
ATOM      2  N   UNL     1       6.164   5.639  16.230  0.00  0.00    +0.000 NA
ATOM      3  S   UNL     1       4.950   4.522  16.090  0.00  0.00    +0.000 S 
ATOM      4  C   UNL     1       4.942   4.130  17.788  0.00  0.00    +0.000 A 
ATOM      5  N   UNL     1       4.096   3.223  18.358  0.00  0.00    +0.000 N 
ATOM      6  C   UNL     1       3.651   2.031  17.641  0.00  0.00    +0.000 C 
ATOM      7  C   UNL     1       2.143   1.909  17.820  0.00  0.00    +0.000 C 
ATOM      8  C   UNL     1       1.760   1.920  19.304  0.00  0.00    +0.000 C 
ATOM      9  C   UNL     1       2.377   3.111  20.078  0.00  0.00    +0.000 C 
ATOM     10  C   UNL     1       3.898   3.182  19.801  0.00  0.00    +0.000 C 
ATOM     11  N   UNL     1       5.811   4.878  18.441  0.00  0.00    +0.000 NA
ENDROOT
BRANCH   1  12
ATOM     12  C   UNL     1       7.578   6.608  17.993  0.00  0.00    +0.000 C 
BRANCH  12  14
ATOM     13  C   UNL     1       8.025   8.937  17.833  0.00  0.00    +0.000 C 
ATOM     14  O   UNL     1       7.843   7.721  17.123  0.00  0.00    +0.000 OA
ENDBRANCH  12  14
ENDBRANCH   1  12
BRANCH   9  15
ATOM     15  C   UNL     1       1.612   4.411  19.735  0.00  0.00    +0.000 C 
BRANCH  15  16
ATOM     16  C   UNL     1       1.971   5.638  20.557  0.00  0.00    +0.000 C 
ATOM     17  F   UNL     1       2.519   5.342  21.751  0.00  0.00    +0.000 F 
ATOM     18  F   UNL     1       2.824   6.438  19.883  0.00  0.00    +0.000 F 
ATOM     19  F   UNL     1       0.855   6.365  20.814  0.00  0.00    +0.000 F 
ENDBRANCH  15  16
ENDBRANCH   9  15
TORSDOF 4
ENDMDL
MODEL 9
REMARK VINA RESULT:      -6.3      1.264      1.659
REMARK  Name = 
REMARK  5 active torsions:
REMARK  status: ('A' for Active; 'I' for Inactive)
REMARK    1  A    between atoms: C_1  and  O_2
REMARK    2  A    between atoms: O_2  and  C_3
REMARK    3  A    between atoms: C_3  and  C_4
REMARK    4  A    between atoms: C_12  and  C_13
REMARK    5  A    between atoms: C_13  and  C_14
REMARK                            x       y       z     vdW  Elec       q    Type
REMARK                         _______ _______ _______ _____ _____    ______ ____
ROOT
ATOM      1  C   UNL     1       6.186   5.283  15.575  0.00  0.00    +0.000 A 
ATOM      2  N   UNL     1       6.889   6.236  16.190  0.00  0.00    +0.000 NA
ATOM      3  S   UNL     1       5.951   6.785  17.439  0.00  0.00    +0.000 S 
ATOM      4  C   UNL     1       4.615   5.728  17.069  0.00  0.00    +0.000 A 
ATOM      5  N   UNL     1       3.458   5.681  17.791  0.00  0.00    +0.000 N 
ATOM      6  C   UNL     1       2.899   6.871  18.427  0.00  0.00    +0.000 C 
ATOM      7  C   UNL     1       2.519   6.507  19.857  0.00  0.00    +0.000 C 
ATOM      8  C   UNL     1       1.586   5.291  19.887  0.00  0.00    +0.000 C 
ATOM      9  C   UNL     1       2.130   4.092  19.071  0.00  0.00    +0.000 C 
ATOM     10  C   UNL     1       2.531   4.565  17.653  0.00  0.00    +0.000 C 
ATOM     11  N   UNL     1       4.913   4.946  16.050  0.00  0.00    +0.000 NA
ENDROOT
BRANCH   1  12
ATOM     12  C   UNL     1       6.753   4.579  14.378  0.00  0.00    +0.000 C 
BRANCH  12  14
ATOM     13  C   UNL     1       6.161   3.416  12.393  0.00  0.00    +0.000 C 
ATOM     14  O   UNL     1       5.869   3.627  13.767  0.00  0.00    +0.000 OA
ENDBRANCH  12  14
ENDBRANCH   1  12
BRANCH   9  15
ATOM     15  C   UNL     1       3.273   3.401  19.851  0.00  0.00    +0.000 C 
BRANCH  15  16
ATOM     16  C   UNL     1       3.899   2.185  19.189  0.00  0.00    +0.000 C 
ATOM     17  F   UNL     1       4.579   2.478  18.064  0.00  0.00    +0.000 F 
ATOM     18  F   UNL     1       4.734   1.549  20.038  0.00  0.00    +0.000 F 
ATOM     19  F   UNL     1       2.932   1.302  18.837  0.00  0.00    +0.000 F 
ENDBRANCH  15  16
ENDBRANCH   9  15
TORSDOF 4
ENDMDL
