MODEL 1
REMARK VINA RESULT:      -7.2      0.000      0.000
REMARK  Name = 
REMARK  7 active torsions:
REMARK  status: ('A' for Active; 'I' for Inactive)
REMARK    1  A    between atoms: C_1  and  C_2
REMARK    2  A    between atoms: C_2  and  N_3
REMARK    3  A    between atoms: C_2  and  C_27
REMARK    4  A    between atoms: C_7  and  C_8
REMARK    5  A    between atoms: C_19  and  N_20
REMARK    6  A    between atoms: N_20  and  C_21
REMARK    7  A    between atoms: C_24  and  C_25
REMARK                            x       y       z     vdW  Elec       q    Type
REMARK                         _______ _______ _______ _____ _____    ______ ____
ROOT
ATOM      1  N   UNL     1       2.017  13.916  19.606  0.00  0.00    +0.000 N 
ATOM      2  C   UNL     1       1.275  12.975  20.290  0.00  0.00    +0.000 A 
ATOM      3  N   UNL     1       1.498  11.724  19.942  0.00  0.00    +0.000 NA
ATOM      4  C   UNL     1       0.819  10.730  20.610  0.00  0.00    +0.000 A 
ATOM      5  C   UNL     1       0.845   9.351  20.503  0.00  0.00    +0.000 A 
ATOM      6  C   UNL     1      -0.072   8.882  21.461  0.00  0.00    +0.000 A 
ATOM      7  N   UNL     1      -0.613   9.866  22.176  0.00  0.00    +0.000 NA
ATOM      8  N   UNL     1      -0.082  11.001  21.636  0.00  0.00    +0.000 N 
ATOM      9  C   UNL     1      -0.365  12.316  22.035  0.00  0.00    +0.000 A 
ATOM     10  C   UNL     1       0.282  13.293  21.364  0.00  0.00    +0.000 A 
ATOM     11  H   UNL     1       2.563  13.538  18.839  0.00  0.00    +0.000 HD
ENDROOT
BRANCH   5  12
ATOM     12  C   UNL     1       1.626   8.563  19.614  0.00  0.00    +0.000 C 
ATOM     13  C   UNL     1       1.998   7.289  19.805  0.00  0.00    +0.000 C 
ATOM     14  N   UNL     1       1.715   6.484  20.867  0.00  0.00    +0.000 N 
ATOM     15  C   UNL     1       2.321   5.257  20.706  0.00  0.00    +0.000 C 
ATOM     16  O   UNL     1       2.315   4.344  21.510  0.00  0.00    +0.000 OA
ATOM     17  N   UNL     1       2.950   5.264  19.488  0.00  0.00    +0.000 N 
ATOM     18  C   UNL     1       2.834   6.478  18.872  0.00  0.00    +0.000 C 
ATOM     19  O   UNL     1       3.317   6.844  17.819  0.00  0.00    +0.000 OA
ATOM     20  H   UNL     1       1.256   6.790  21.717  0.00  0.00    +0.000 HD
ATOM     21  H   UNL     1       3.500   4.502  19.138  0.00  0.00    +0.000 HD
ENDBRANCH   5  12
BRANCH   1  23
ATOM     22  C   UNL     1       3.777  15.452  20.361  0.00  0.00    +0.000 C 
ATOM     23  C   UNL     1       2.314  15.304  19.954  0.00  0.00    +0.000 C 
BRANCH  23  24
ATOM     24  C   UNL     1       1.941  16.257  18.829  0.00  0.00    +0.000 A 
ATOM     25  C   UNL     1       2.869  16.529  17.804  0.00  0.00    +0.000 A 
ATOM     26  C   UNL     1       2.570  17.418  16.766  0.00  0.00    +0.000 A 
ATOM     27  C   UNL     1       1.326  18.036  16.723  0.00  0.00    +0.000 A 
ATOM     28  C   UNL     1       0.390  17.764  17.717  0.00  0.00    +0.000 A 
ATOM     29 CL   UNL     1      -1.151  18.529  17.666  0.00  0.00    +0.000 Cl
ATOM     30  C   UNL     1       0.688  16.882  18.760  0.00  0.00    +0.000 A 
ENDBRANCH  23  24
ENDBRANCH   1  23
BRANCH   9  31
ATOM     31  N   UNL     1      -1.212  12.434  23.158  0.00  0.00    +0.000 N 
ATOM     32  H   UNL     1      -1.308  11.501  23.581  0.00  0.00    +0.000 HD
BRANCH  31  33
ATOM     33  C   UNL     1      -2.522  13.117  23.077  0.00  0.00    +0.000 C 
ATOM     34  C   UNL     1      -3.718  12.576  22.344  0.00  0.00    +0.000 C 
ATOM     35  C   UNL     1      -3.668  12.475  23.836  0.00  0.00    +0.000 C 
ENDBRANCH  31  33
ENDBRANCH   9  31
BRANCH  10  36
ATOM     36  C   UNL     1      -0.011  14.734  21.750  0.00  0.00    +0.000 C 
ATOM     37  N   UNL     1      -0.255  15.928  22.071  0.00  0.00    +0.000 NA
ENDBRANCH  10  36
TORSDOF 6
ENDMDL
MODEL 2
REMARK VINA RESULT:      -7.2      4.515      6.763
REMARK  Name = 
REMARK  7 active torsions:
REMARK  status: ('A' for Active; 'I' for Inactive)
REMARK    1  A    between atoms: C_1  and  C_2
REMARK    2  A    between atoms: C_2  and  N_3
REMARK    3  A    between atoms: C_2  and  C_27
REMARK    4  A    between atoms: C_7  and  C_8
REMARK    5  A    between atoms: C_19  and  N_20
REMARK    6  A    between atoms: N_20  and  C_21
REMARK    7  A    between atoms: C_24  and  C_25
REMARK                            x       y       z     vdW  Elec       q    Type
REMARK                         _______ _______ _______ _____ _____    ______ ____
ROOT
ATOM      1  N   UNL     1      -3.586  13.245  22.305  0.00  0.00    +0.000 N 
ATOM      2  C   UNL     1      -3.961  12.875  21.029  0.00  0.00    +0.000 A 
ATOM      3  N   UNL     1      -2.994  12.385  20.281  0.00  0.00    +0.000 NA
ATOM      4  C   UNL     1      -3.304  11.959  19.009  0.00  0.00    +0.000 A 
ATOM      5  C   UNL     1      -2.541  11.389  18.006  0.00  0.00    +0.000 A 
ATOM      6  C   UNL     1      -3.429  11.172  16.936  0.00  0.00    +0.000 A 
ATOM      7  N   UNL     1      -4.679  11.519  17.230  0.00  0.00    +0.000 NA
ATOM      8  N   UNL     1      -4.597  12.023  18.496  0.00  0.00    +0.000 N 
ATOM      9  C   UNL     1      -5.659  12.549  19.247  0.00  0.00    +0.000 A 
ATOM     10  C   UNL     1      -5.350  12.989  20.485  0.00  0.00    +0.000 A 
ATOM     11  H   UNL     1      -2.586  13.201  22.475  0.00  0.00    +0.000 HD
ENDROOT
BRANCH   5  12
ATOM     12  C   UNL     1      -1.153  11.084  18.037  0.00  0.00    +0.000 C 
ATOM     13  C   UNL     1      -0.510  10.414  19.004  0.00  0.00    +0.000 C 
ATOM     14  N   UNL     1      -1.033   9.885  20.145  0.00  0.00    +0.000 N 
ATOM     15  C   UNL     1      -0.034   9.314  20.904  0.00  0.00    +0.000 C 
ATOM     16  O   UNL     1      -0.167   8.818  22.006  0.00  0.00    +0.000 OA
ATOM     17  N   UNL     1       1.136   9.429  20.199  0.00  0.00    +0.000 N 
ATOM     18  C   UNL     1       0.951  10.116  19.032  0.00  0.00    +0.000 C 
ATOM     19  O   UNL     1       1.779  10.445  18.206  0.00  0.00    +0.000 OA
ATOM     20  H   UNL     1      -1.985  10.023  20.462  0.00  0.00    +0.000 HD
ATOM     21  H   UNL     1       2.028   9.125  20.541  0.00  0.00    +0.000 HD
ENDBRANCH   5  12
BRANCH   1  23
ATOM     22  C   UNL     1      -4.229  12.316  24.484  0.00  0.00    +0.000 C 
ATOM     23  C   UNL     1      -4.407  13.463  23.493  0.00  0.00    +0.000 C 
BRANCH  23  24
ATOM     24  C   UNL     1      -4.122  14.813  24.134  0.00  0.00    +0.000 A 
ATOM     25  C   UNL     1      -5.072  15.849  24.037  0.00  0.00    +0.000 A 
ATOM     26  C   UNL     1      -4.834  17.110  24.594  0.00  0.00    +0.000 A 
ATOM     27  C   UNL     1      -3.647  17.351  25.277  0.00  0.00    +0.000 A 
ATOM     28  C   UNL     1      -2.707  16.332  25.399  0.00  0.00    +0.000 A 
ATOM     29 CL   UNL     1      -1.237  16.628  26.246  0.00  0.00    +0.000 Cl
ATOM     30  C   UNL     1      -2.937  15.073  24.838  0.00  0.00    +0.000 A 
ENDBRANCH  23  24
ENDBRANCH   1  23
BRANCH   9  31
ATOM     31  N   UNL     1      -6.930  12.449  18.641  0.00  0.00    +0.000 N 
ATOM     32  H   UNL     1      -6.900  11.670  17.969  0.00  0.00    +0.000 HD
BRANCH  31  33
ATOM     33  C   UNL     1      -7.609  13.628  18.058  0.00  0.00    +0.000 C 
ATOM     34  C   UNL     1      -6.928  14.929  17.740  0.00  0.00    +0.000 C 
ATOM     35  C   UNL     1      -7.243  13.979  16.628  0.00  0.00    +0.000 C 
ENDBRANCH  31  33
ENDBRANCH   9  31
BRANCH  10  36
ATOM     36  C   UNL     1      -6.468  13.586  21.326  0.00  0.00    +0.000 C 
ATOM     37  N   UNL     1      -7.394  14.081  22.022  0.00  0.00    +0.000 NA
ENDBRANCH  10  36
TORSDOF 6
ENDMDL
MODEL 3
REMARK VINA RESULT:      -7.1      4.560      8.126
REMARK  Name = 
REMARK  7 active torsions:
REMARK  status: ('A' for Active; 'I' for Inactive)
REMARK    1  A    between atoms: C_1  and  C_2
REMARK    2  A    between atoms: C_2  and  N_3
REMARK    3  A    between atoms: C_2  and  C_27
REMARK    4  A    between atoms: C_7  and  C_8
REMARK    5  A    between atoms: C_19  and  N_20
REMARK    6  A    between atoms: N_20  and  C_21
REMARK    7  A    between atoms: C_24  and  C_25
REMARK                            x       y       z     vdW  Elec       q    Type
REMARK                         _______ _______ _______ _____ _____    ______ ____
ROOT
ATOM      1  N   UNL     1      -0.641  10.791  20.612  0.00  0.00    +0.000 N 
ATOM      2  C   UNL     1      -1.131  12.079  20.688  0.00  0.00    +0.000 A 
ATOM      3  N   UNL     1      -2.434  12.194  20.526  0.00  0.00    +0.000 NA
ATOM      4  C   UNL     1      -2.996  13.446  20.627  0.00  0.00    +0.000 A 
ATOM      5  C   UNL     1      -4.303  13.889  20.535  0.00  0.00    +0.000 A 
ATOM      6  C   UNL     1      -4.242  15.282  20.730  0.00  0.00    +0.000 A 
ATOM      7  N   UNL     1      -3.008  15.709  20.984  0.00  0.00    +0.000 NA
ATOM      8  N   UNL     1      -2.240  14.584  20.898  0.00  0.00    +0.000 N 
ATOM      9  C   UNL     1      -0.849  14.517  21.064  0.00  0.00    +0.000 A 
ATOM     10  C   UNL     1      -0.293  13.293  20.941  0.00  0.00    +0.000 A 
ATOM     11  H   UNL     1      -1.328  10.100  20.329  0.00  0.00    +0.000 HD
ENDROOT
BRANCH   5  12
ATOM     12  C   UNL     1      -5.469  13.113  20.292  0.00  0.00    +0.000 C 
ATOM     13  C   UNL     1      -6.252  12.549  21.222  0.00  0.00    +0.000 C 
ATOM     14  N   UNL     1      -6.110  12.593  22.576  0.00  0.00    +0.000 N 
ATOM     15  C   UNL     1      -7.097  11.846  23.182  0.00  0.00    +0.000 C 
ATOM     16  O   UNL     1      -7.204  11.633  24.375  0.00  0.00    +0.000 OA
ATOM     17  N   UNL     1      -7.916  11.368  22.193  0.00  0.00    +0.000 N 
ATOM     18  C   UNL     1      -7.464  11.721  20.953  0.00  0.00    +0.000 C 
ATOM     19  O   UNL     1      -7.914  11.418  19.866  0.00  0.00    +0.000 OA
ATOM     20  H   UNL     1      -5.313  12.990  23.060  0.00  0.00    +0.000 HD
ATOM     21  H   UNL     1      -8.698  10.761  22.359  0.00  0.00    +0.000 HD
ENDBRANCH   5  12
BRANCH   1  23
ATOM     22  C   UNL     1       0.440   9.574  22.449  0.00  0.00    +0.000 C 
ATOM     23  C   UNL     1       0.626  10.245  21.092  0.00  0.00    +0.000 C 
BRANCH  23  24
ATOM     24  C   UNL     1       1.251   9.300  20.076  0.00  0.00    +0.000 A 
ATOM     25  C   UNL     1       1.384   9.703  18.732  0.00  0.00    +0.000 A 
ATOM     26  C   UNL     1       1.931   8.853  17.766  0.00  0.00    +0.000 A 
ATOM     27  C   UNL     1       2.377   7.588  18.132  0.00  0.00    +0.000 A 
ATOM     28  C   UNL     1       2.271   7.181  19.459  0.00  0.00    +0.000 A 
ATOM     29 CL   UNL     1       2.823   5.615  19.914  0.00  0.00    +0.000 Cl
ATOM     30  C   UNL     1       1.718   8.024  20.426  0.00  0.00    +0.000 A 
ENDBRANCH  23  24
ENDBRANCH   1  23
BRANCH   9  31
ATOM     31  N   UNL     1      -0.231  15.729  21.442  0.00  0.00    +0.000 N 
ATOM     32  H   UNL     1      -0.901  16.261  22.013  0.00  0.00    +0.000 HD
BRANCH  31  33
ATOM     33  C   UNL     1       0.437  16.604  20.453  0.00  0.00    +0.000 C 
ATOM     34  C   UNL     1       0.827  18.033  20.709  0.00  0.00    +0.000 C 
ATOM     35  C   UNL     1       1.880  16.972  20.741  0.00  0.00    +0.000 C 
ENDBRANCH  31  33
ENDBRANCH   9  31
BRANCH  10  36
ATOM     36  C   UNL     1       1.215  13.179  21.093  0.00  0.00    +0.000 C 
ATOM     37  N   UNL     1       2.466  13.084  21.220  0.00  0.00    +0.000 NA
ENDBRANCH  10  36
TORSDOF 6
ENDMDL
MODEL 4
REMARK VINA RESULT:      -7.1      4.443      7.963
REMARK  Name = 
REMARK  7 active torsions:
REMARK  status: ('A' for Active; 'I' for Inactive)
REMARK    1  A    between atoms: C_1  and  C_2
REMARK    2  A    between atoms: C_2  and  N_3
REMARK    3  A    between atoms: C_2  and  C_27
REMARK    4  A    between atoms: C_7  and  C_8
REMARK    5  A    between atoms: C_19  and  N_20
REMARK    6  A    between atoms: N_20  and  C_21
REMARK    7  A    between atoms: C_24  and  C_25
REMARK                            x       y       z     vdW  Elec       q    Type
REMARK                         _______ _______ _______ _____ _____    ______ ____
ROOT
ATOM      1  N   UNL     1      -0.601  10.638  21.295  0.00  0.00    +0.000 N 
ATOM      2  C   UNL     1      -1.108  11.918  21.381  0.00  0.00    +0.000 A 
ATOM      3  N   UNL     1      -2.412  11.994  21.559  0.00  0.00    +0.000 NA
ATOM      4  C   UNL     1      -2.981  13.241  21.692  0.00  0.00    +0.000 A 
ATOM      5  C   UNL     1      -4.284  13.650  21.907  0.00  0.00    +0.000 A 
ATOM      6  C   UNL     1      -4.233  15.056  21.954  0.00  0.00    +0.000 A 
ATOM      7  N   UNL     1      -2.994  15.527  21.835  0.00  0.00    +0.000 NA
ATOM      8  N   UNL     1      -2.229  14.412  21.652  0.00  0.00    +0.000 N 
ATOM      9  C   UNL     1      -0.841  14.386  21.451  0.00  0.00    +0.000 A 
ATOM     10  C   UNL     1      -0.286  13.165  21.296  0.00  0.00    +0.000 A 
ATOM     11  H   UNL     1      -1.309   9.910  21.265  0.00  0.00    +0.000 HD
ENDROOT
BRANCH   5  12
ATOM     12  C   UNL     1      -5.440  12.835  22.049  0.00  0.00    +0.000 C 
ATOM     13  C   UNL     1      -6.112  12.234  21.057  0.00  0.00    +0.000 C 
ATOM     14  N   UNL     1      -5.841  12.268  19.722  0.00  0.00    +0.000 N 
ATOM     15  C   UNL     1      -6.797  11.558  19.027  0.00  0.00    +0.000 C 
ATOM     16  O   UNL     1      -6.873  11.455  17.818  0.00  0.00    +0.000 OA
ATOM     17  N   UNL     1      -7.655  11.013  19.946  0.00  0.00    +0.000 N 
ATOM     18  C   UNL     1      -7.335  11.395  21.218  0.00  0.00    +0.000 C 
ATOM     19  O   UNL     1      -7.916  11.144  22.255  0.00  0.00    +0.000 OA
ATOM     20  H   UNL     1      -5.133  12.850  19.291  0.00  0.00    +0.000 HD
ATOM     21  H   UNL     1      -8.467  10.476  19.704  0.00  0.00    +0.000 HD
ENDBRANCH   5  12
BRANCH   1  23
ATOM     22  C   UNL     1       0.887   9.330  22.744  0.00  0.00    +0.000 C 
ATOM     23  C   UNL     1       0.769  10.162  21.471  0.00  0.00    +0.000 C 
BRANCH  23  24
ATOM     24  C   UNL     1       1.260   9.399  20.250  0.00  0.00    +0.000 A 
ATOM     25  C   UNL     1       1.158   9.983  18.971  0.00  0.00    +0.000 A 
ATOM     26  C   UNL     1       1.578   9.302  17.824  0.00  0.00    +0.000 A 
ATOM     27  C   UNL     1       2.129   8.031  17.938  0.00  0.00    +0.000 A 
ATOM     28  C   UNL     1       2.255   7.448  19.195  0.00  0.00    +0.000 A 
ATOM     29 CL   UNL     1       2.937   5.874  19.338  0.00  0.00    +0.000 Cl
ATOM     30  C   UNL     1       1.830   8.121  20.343  0.00  0.00    +0.000 A 
ENDBRANCH  23  24
ENDBRANCH   1  23
BRANCH   9  31
ATOM     31  N   UNL     1      -0.197  15.639  21.543  0.00  0.00    +0.000 N 
ATOM     32  H   UNL     1      -0.693  16.198  22.251  0.00  0.00    +0.000 HD
BRANCH  31  33
ATOM     33  C   UNL     1       0.105  16.449  20.342  0.00  0.00    +0.000 C 
ATOM     34  C   UNL     1      -0.331  17.875  20.148  0.00  0.00    +0.000 C 
ATOM     35  C   UNL     1       1.088  17.590  20.527  0.00  0.00    +0.000 C 
ENDBRANCH  31  33
ENDBRANCH   9  31
BRANCH  10  36
ATOM     36  C   UNL     1       1.214  13.093  21.056  0.00  0.00    +0.000 C 
ATOM     37  N   UNL     1       2.457  13.033  20.856  0.00  0.00    +0.000 NA
ENDBRANCH  10  36
TORSDOF 6
ENDMDL
MODEL 5
REMARK VINA RESULT:      -7.1      5.038      8.443
REMARK  Name = 
REMARK  7 active torsions:
REMARK  status: ('A' for Active; 'I' for Inactive)
REMARK    1  A    between atoms: C_1  and  C_2
REMARK    2  A    between atoms: C_2  and  N_3
REMARK    3  A    between atoms: C_2  and  C_27
REMARK    4  A    between atoms: C_7  and  C_8
REMARK    5  A    between atoms: C_19  and  N_20
REMARK    6  A    between atoms: N_20  and  C_21
REMARK    7  A    between atoms: C_24  and  C_25
REMARK                            x       y       z     vdW  Elec       q    Type
REMARK                         _______ _______ _______ _____ _____    ______ ____
ROOT
ATOM      1  N   UNL     1       0.271  11.211  20.039  0.00  0.00    +0.000 N 
ATOM      2  C   UNL     1      -0.980  11.779  20.178  0.00  0.00    +0.000 A 
ATOM      3  N   UNL     1      -1.130  12.551  21.236  0.00  0.00    +0.000 NA
ATOM      4  C   UNL     1      -2.340  13.180  21.418  0.00  0.00    +0.000 A 
ATOM      5  C   UNL     1      -2.799  14.052  22.388  0.00  0.00    +0.000 A 
ATOM      6  C   UNL     1      -4.126  14.352  22.027  0.00  0.00    +0.000 A 
ATOM      7  N   UNL     1      -4.489  13.771  20.887  0.00  0.00    +0.000 NA
ATOM      8  N   UNL     1      -3.399  13.033  20.526  0.00  0.00    +0.000 N 
ATOM      9  C   UNL     1      -3.295  12.212  19.393  0.00  0.00    +0.000 A 
ATOM     10  C   UNL     1      -2.116  11.575  19.227  0.00  0.00    +0.000 A 
ATOM     11  H   UNL     1       0.890  11.368  20.828  0.00  0.00    +0.000 HD
ENDROOT
BRANCH   5  12
ATOM     12  C   UNL     1      -2.092  14.546  23.518  0.00  0.00    +0.000 C 
ATOM     13  C   UNL     1      -1.422  15.706  23.588  0.00  0.00    +0.000 C 
ATOM     14  N   UNL     1      -1.275  16.647  22.615  0.00  0.00    +0.000 N 
ATOM     15  C   UNL     1      -0.474  17.674  23.065  0.00  0.00    +0.000 C 
ATOM     16  O   UNL     1      -0.101  18.630  22.413  0.00  0.00    +0.000 OA
ATOM     17  N   UNL     1      -0.157  17.406  24.372  0.00  0.00    +0.000 N 
ATOM     18  C   UNL     1      -0.668  16.205  24.774  0.00  0.00    +0.000 C 
ATOM     19  O   UNL     1      -0.529  15.639  25.841  0.00  0.00    +0.000 OA
ATOM     20  H   UNL     1      -1.582  16.539  21.655  0.00  0.00    +0.000 HD
ATOM     21  H   UNL     1       0.449  17.979  24.930  0.00  0.00    +0.000 HD
ENDBRANCH   5  12
BRANCH   1  23
ATOM     22  C   UNL     1       1.990  11.565  18.323  0.00  0.00    +0.000 C 
ATOM     23  C   UNL     1       0.907  10.634  18.857  0.00  0.00    +0.000 C 
BRANCH  23  24
ATOM     24  C   UNL     1       1.448   9.239  19.136  0.00  0.00    +0.000 A 
ATOM     25  C   UNL     1       1.153   8.604  20.359  0.00  0.00    +0.000 A 
ATOM     26  C   UNL     1       1.653   7.333  20.660  0.00  0.00    +0.000 A 
ATOM     27  C   UNL     1       2.441   6.663  19.731  0.00  0.00    +0.000 A 
ATOM     28  C   UNL     1       2.725   7.268  18.510  0.00  0.00    +0.000 A 
ATOM     29 CL   UNL     1       3.701   6.439  17.358  0.00  0.00    +0.000 Cl
ATOM     30  C   UNL     1       2.235   8.541  18.209  0.00  0.00    +0.000 A 
ENDBRANCH  23  24
ENDBRANCH   1  23
BRANCH   9  31
ATOM     31  N   UNL     1      -4.406  12.245  18.523  0.00  0.00    +0.000 N 
ATOM     32  H   UNL     1      -4.789  13.200  18.536  0.00  0.00    +0.000 HD
BRANCH  31  33
ATOM     33  C   UNL     1      -5.487  11.238  18.601  0.00  0.00    +0.000 C 
ATOM     34  C   UNL     1      -6.733  11.392  19.428  0.00  0.00    +0.000 C 
ATOM     35  C   UNL     1      -6.806  11.610  17.950  0.00  0.00    +0.000 C 
ENDBRANCH  31  33
ENDBRANCH   9  31
BRANCH  10  36
ATOM     36  C   UNL     1      -1.968  10.658  18.023  0.00  0.00    +0.000 C 
ATOM     37  N   UNL     1      -1.845   9.898  17.025  0.00  0.00    +0.000 NA
ENDBRANCH  10  36
TORSDOF 6
ENDMDL
MODEL 6
REMARK VINA RESULT:      -7.0      5.776      8.934
REMARK  Name = 
REMARK  7 active torsions:
REMARK  status: ('A' for Active; 'I' for Inactive)
REMARK    1  A    between atoms: C_1  and  C_2
REMARK    2  A    between atoms: C_2  and  N_3
REMARK    3  A    between atoms: C_2  and  C_27
REMARK    4  A    between atoms: C_7  and  C_8
REMARK    5  A    between atoms: C_19  and  N_20
REMARK    6  A    between atoms: N_20  and  C_21
REMARK    7  A    between atoms: C_24  and  C_25
REMARK                            x       y       z     vdW  Elec       q    Type
REMARK                         _______ _______ _______ _____ _____    ______ ____
ROOT
ATOM      1  N   UNL     1      -1.845  12.161  20.115  0.00  0.00    +0.000 N 
ATOM      2  C   UNL     1      -3.029  12.003  19.425  0.00  0.00    +0.000 A 
ATOM      3  N   UNL     1      -4.061  12.653  19.926  0.00  0.00    +0.000 NA
ATOM      4  C   UNL     1      -5.266  12.571  19.267  0.00  0.00    +0.000 A 
ATOM      5  C   UNL     1      -6.502  13.140  19.514  0.00  0.00    +0.000 A 
ATOM      6  C   UNL     1      -7.340  12.681  18.480  0.00  0.00    +0.000 A 
ATOM      7  N   UNL     1      -6.696  11.921  17.598  0.00  0.00    +0.000 NA
ATOM      8  N   UNL     1      -5.427  11.836  18.095  0.00  0.00    +0.000 N 
ATOM      9  C   UNL     1      -4.365  11.116  17.530  0.00  0.00    +0.000 A 
ATOM     10  C   UNL     1      -3.188  11.176  18.189  0.00  0.00    +0.000 A 
ATOM     11  H   UNL     1      -1.936  12.669  20.990  0.00  0.00    +0.000 HD
ENDROOT
BRANCH   5  12
ATOM     12  C   UNL     1      -6.864  14.004  20.583  0.00  0.00    +0.000 C 
ATOM     13  C   UNL     1      -6.642  13.785  21.887  0.00  0.00    +0.000 C 
ATOM     14  N   UNL     1      -6.031  12.713  22.464  0.00  0.00    +0.000 N 
ATOM     15  C   UNL     1      -6.040  12.844  23.836  0.00  0.00    +0.000 C 
ATOM     16  O   UNL     1      -5.632  12.024  24.636  0.00  0.00    +0.000 OA
ATOM     17  N   UNL     1      -6.615  14.053  24.131  0.00  0.00    +0.000 N 
ATOM     18  C   UNL     1      -7.043  14.691  23.002  0.00  0.00    +0.000 C 
ATOM     19  O   UNL     1      -7.642  15.745  22.907  0.00  0.00    +0.000 OA
ATOM     20  H   UNL     1      -5.748  11.875  21.970  0.00  0.00    +0.000 HD
ATOM     21  H   UNL     1      -6.778  14.382  25.064  0.00  0.00    +0.000 HD
ENDBRANCH   5  12
BRANCH   1  23
ATOM     22  C   UNL     1       0.365  13.189  19.821  0.00  0.00    +0.000 C 
ATOM     23  C   UNL     1      -0.471  11.921  19.680  0.00  0.00    +0.000 C 
BRANCH  23  24
ATOM     24  C   UNL     1       0.155  10.747  20.417  0.00  0.00    +0.000 A 
ATOM     25  C   UNL     1       0.928   9.806  19.707  0.00  0.00    +0.000 A 
ATOM     26  C   UNL     1       1.499   8.701  20.347  0.00  0.00    +0.000 A 
ATOM     27  C   UNL     1       1.325   8.529  21.715  0.00  0.00    +0.000 A 
ATOM     28  C   UNL     1       0.581   9.459  22.434  0.00  0.00    +0.000 A 
ATOM     29 CL   UNL     1       0.364   9.248  24.129  0.00  0.00    +0.000 Cl
ATOM     30  C   UNL     1       0.002  10.560  21.798  0.00  0.00    +0.000 A 
ENDBRANCH  23  24
ENDBRANCH   1  23
BRANCH   9  31
ATOM     31  N   UNL     1      -4.645  10.508  16.286  0.00  0.00    +0.000 N 
ATOM     32  H   UNL     1      -4.652   9.489  16.428  0.00  0.00    +0.000 HD
BRANCH  31  33
ATOM     33  C   UNL     1      -3.904  10.869  15.058  0.00  0.00    +0.000 C 
ATOM     34  C   UNL     1      -2.891   9.984  14.386  0.00  0.00    +0.000 C 
ATOM     35  C   UNL     1      -4.263  10.100  13.801  0.00  0.00    +0.000 C 
ENDBRANCH  31  33
ENDBRANCH   9  31
BRANCH  10  36
ATOM     36  C   UNL     1      -2.015  10.392  17.622  0.00  0.00    +0.000 C 
ATOM     37  N   UNL     1      -1.043   9.742  17.151  0.00  0.00    +0.000 NA
ENDBRANCH  10  36
TORSDOF 6
ENDMDL
MODEL 7
REMARK VINA RESULT:      -7.0      5.179      8.725
REMARK  Name = 
REMARK  7 active torsions:
REMARK  status: ('A' for Active; 'I' for Inactive)
REMARK    1  A    between atoms: C_1  and  C_2
REMARK    2  A    between atoms: C_2  and  N_3
REMARK    3  A    between atoms: C_2  and  C_27
REMARK    4  A    between atoms: C_7  and  C_8
REMARK    5  A    between atoms: C_19  and  N_20
REMARK    6  A    between atoms: N_20  and  C_21
REMARK    7  A    between atoms: C_24  and  C_25
REMARK                            x       y       z     vdW  Elec       q    Type
REMARK                         _______ _______ _______ _____ _____    ______ ____
ROOT
ATOM      1  N   UNL     1       0.187  10.980  19.957  0.00  0.00    +0.000 N 
ATOM      2  C   UNL     1      -1.056  11.571  20.058  0.00  0.00    +0.000 A 
ATOM      3  N   UNL     1      -1.235  12.320  21.128  0.00  0.00    +0.000 NA
ATOM      4  C   UNL     1      -2.438  12.972  21.274  0.00  0.00    +0.000 A 
ATOM      5  C   UNL     1      -2.920  13.830  22.246  0.00  0.00    +0.000 A 
ATOM      6  C   UNL     1      -4.223  14.168  21.837  0.00  0.00    +0.000 A 
ATOM      7  N   UNL     1      -4.549  13.624  20.667  0.00  0.00    +0.000 NA
ATOM      8  N   UNL     1      -3.460  12.871  20.334  0.00  0.00    +0.000 N 
ATOM      9  C   UNL     1      -3.325  12.076  19.186  0.00  0.00    +0.000 A 
ATOM     10  C   UNL     1      -2.154  11.417  19.054  0.00  0.00    +0.000 A 
ATOM     11  H   UNL     1       0.775  11.102  20.776  0.00  0.00    +0.000 HD
ENDROOT
BRANCH   5  12
ATOM     12  C   UNL     1      -2.251  14.280  23.418  0.00  0.00    +0.000 C 
ATOM     13  C   UNL     1      -2.483  15.428  24.069  0.00  0.00    +0.000 C 
ATOM     14  N   UNL     1      -3.390  16.396  23.763  0.00  0.00    +0.000 N 
ATOM     15  C   UNL     1      -3.285  17.444  24.653  0.00  0.00    +0.000 C 
ATOM     16  O   UNL     1      -3.910  18.486  24.609  0.00  0.00    +0.000 OA
ATOM     17  N   UNL     1      -2.332  17.104  25.578  0.00  0.00    +0.000 N 
ATOM     18  C   UNL     1      -1.761  15.898  25.288  0.00  0.00    +0.000 C 
ATOM     19  O   UNL     1      -0.852  15.330  25.862  0.00  0.00    +0.000 OA
ATOM     20  H   UNL     1      -3.954  16.414  22.921  0.00  0.00    +0.000 HD
ATOM     21  H   UNL     1      -2.033  17.708  26.321  0.00  0.00    +0.000 HD
ENDBRANCH   5  12
BRANCH   1  23
ATOM     22  C   UNL     1       1.917  11.383  18.264  0.00  0.00    +0.000 C 
ATOM     23  C   UNL     1       0.861  10.417  18.790  0.00  0.00    +0.000 C 
BRANCH  23  24
ATOM     24  C   UNL     1       1.448   9.045  19.087  0.00  0.00    +0.000 A 
ATOM     25  C   UNL     1       1.198   8.429  20.329  0.00  0.00    +0.000 A 
ATOM     26  C   UNL     1       1.740   7.180  20.646  0.00  0.00    +0.000 A 
ATOM     27  C   UNL     1       2.528   6.512  19.715  0.00  0.00    +0.000 A 
ATOM     28  C   UNL     1       2.769   7.098  18.476  0.00  0.00    +0.000 A 
ATOM     29 CL   UNL     1       3.744   6.272  17.321  0.00  0.00    +0.000 Cl
ATOM     30  C   UNL     1       2.235   8.349  18.158  0.00  0.00    +0.000 A 
ENDBRANCH  23  24
ENDBRANCH   1  23
BRANCH   9  31
ATOM     31  N   UNL     1      -4.397  12.156  18.271  0.00  0.00    +0.000 N 
ATOM     32  H   UNL     1      -4.814  13.093  18.354  0.00  0.00    +0.000 HD
BRANCH  31  33
ATOM     33  C   UNL     1      -5.443  11.112  18.204  0.00  0.00    +0.000 C 
ATOM     34  C   UNL     1      -6.437  10.835  19.297  0.00  0.00    +0.000 C 
ATOM     35  C   UNL     1      -6.876  11.598  18.088  0.00  0.00    +0.000 C 
ENDBRANCH  31  33
ENDBRANCH   9  31
BRANCH  10  36
ATOM     36  C   UNL     1      -1.974  10.528  17.835  0.00  0.00    +0.000 C 
ATOM     37  N   UNL     1      -1.824   9.791  16.823  0.00  0.00    +0.000 NA
ENDBRANCH  10  36
TORSDOF 6
ENDMDL
MODEL 8
REMARK VINA RESULT:      -7.0      4.648      7.544
REMARK  Name = 
REMARK  7 active torsions:
REMARK  status: ('A' for Active; 'I' for Inactive)
REMARK    1  A    between atoms: C_1  and  C_2
REMARK    2  A    between atoms: C_2  and  N_3
REMARK    3  A    between atoms: C_2  and  C_27
REMARK    4  A    between atoms: C_7  and  C_8
REMARK    5  A    between atoms: C_19  and  N_20
REMARK    6  A    between atoms: N_20  and  C_21
REMARK    7  A    between atoms: C_24  and  C_25
REMARK                            x       y       z     vdW  Elec       q    Type
REMARK                         _______ _______ _______ _____ _____    ______ ____
ROOT
ATOM      1  N   UNL     1       2.636   9.130  17.846  0.00  0.00    +0.000 N 
ATOM      2  C   UNL     1       3.004   7.864  18.252  0.00  0.00    +0.000 A 
ATOM      3  N   UNL     1       3.974   7.310  17.552  0.00  0.00    +0.000 NA
ATOM      4  C   UNL     1       4.418   6.062  17.925  0.00  0.00    +0.000 A 
ATOM      5  C   UNL     1       5.410   5.239  17.425  0.00  0.00    +0.000 A 
ATOM      6  C   UNL     1       5.388   4.088  18.235  0.00  0.00    +0.000 A 
ATOM      7  N   UNL     1       4.495   4.171  19.217  0.00  0.00    +0.000 NA
ATOM      8  N   UNL     1       3.884   5.374  19.012  0.00  0.00    +0.000 N 
ATOM      9  C   UNL     1       2.841   5.913  19.781  0.00  0.00    +0.000 A 
ATOM     10  C   UNL     1       2.388   7.127  19.400  0.00  0.00    +0.000 A 
ATOM     11  H   UNL     1       3.080   9.438  16.987  0.00  0.00    +0.000 HD
ENDROOT
BRANCH   5  12
ATOM     12  C   UNL     1       6.275   5.490  16.325  0.00  0.00    +0.000 C 
ATOM     13  C   UNL     1       6.188   4.936  15.107  0.00  0.00    +0.000 C 
ATOM     14  N   UNL     1       5.271   4.032  14.663  0.00  0.00    +0.000 N 
ATOM     15  C   UNL     1       5.552   3.672  13.362  0.00  0.00    +0.000 C 
ATOM     16  O   UNL     1       4.959   2.837  12.706  0.00  0.00    +0.000 OA
ATOM     17  N   UNL     1       6.633   4.410  12.955  0.00  0.00    +0.000 N 
ATOM     18  C   UNL     1       7.113   5.193  13.966  0.00  0.00    +0.000 C 
ATOM     19  O   UNL     1       8.087   5.921  13.966  0.00  0.00    +0.000 OA
ATOM     20  H   UNL     1       4.577   3.578  15.246  0.00  0.00    +0.000 HD
ATOM     21  H   UNL     1       7.068   4.317  12.056  0.00  0.00    +0.000 HD
ENDBRANCH   5  12
BRANCH   1  23
ATOM     22  C   UNL     1       2.543  11.532  18.345  0.00  0.00    +0.000 C 
ATOM     23  C   UNL     1       1.902  10.166  18.570  0.00  0.00    +0.000 C 
BRANCH  23  24
ATOM     24  C   UNL     1       0.425  10.168  18.204  0.00  0.00    +0.000 A 
ATOM     25  C   UNL     1      -0.055   9.277  17.223  0.00  0.00    +0.000 A 
ATOM     26  C   UNL     1      -1.401   9.266  16.845  0.00  0.00    +0.000 A 
ATOM     27  C   UNL     1      -2.298  10.134  17.457  0.00  0.00    +0.000 A 
ATOM     28  C   UNL     1      -1.844  11.007  18.442  0.00  0.00    +0.000 A 
ATOM     29 CL   UNL     1      -2.953  12.083  19.202  0.00  0.00    +0.000 Cl
ATOM     30  C   UNL     1      -0.498  11.026  18.818  0.00  0.00    +0.000 A 
ENDBRANCH  23  24
ENDBRANCH   1  23
BRANCH   9  31
ATOM     31  N   UNL     1       2.476   5.155  20.914  0.00  0.00    +0.000 N 
ATOM     32  H   UNL     1       3.320   4.678  21.260  0.00  0.00    +0.000 HD
BRANCH  31  33
ATOM     33  C   UNL     1       1.315   4.238  20.897  0.00  0.00    +0.000 C 
ATOM     34  C   UNL     1       1.202   3.028  20.012  0.00  0.00    +0.000 C 
ATOM     35  C   UNL     1       1.545   2.846  21.456  0.00  0.00    +0.000 C 
ENDBRANCH  31  33
ENDBRANCH   9  31
BRANCH  10  36
ATOM     36  C   UNL     1       1.245   7.739  20.193  0.00  0.00    +0.000 C 
ATOM     37  N   UNL     1       0.296   8.245  20.851  0.00  0.00    +0.000 NA
ENDBRANCH  10  36
TORSDOF 6
ENDMDL
MODEL 9
REMARK VINA RESULT:      -7.0      4.474      7.836
REMARK  Name = 
REMARK  7 active torsions:
REMARK  status: ('A' for Active; 'I' for Inactive)
REMARK    1  A    between atoms: C_1  and  C_2
REMARK    2  A    between atoms: C_2  and  N_3
REMARK    3  A    between atoms: C_2  and  C_27
REMARK    4  A    between atoms: C_7  and  C_8
REMARK    5  A    between atoms: C_19  and  N_20
REMARK    6  A    between atoms: N_20  and  C_21
REMARK    7  A    between atoms: C_24  and  C_25
REMARK                            x       y       z     vdW  Elec       q    Type
REMARK                         _______ _______ _______ _____ _____    ______ ____
ROOT
ATOM      1  N   UNL     1      -0.590  10.974  20.627  0.00  0.00    +0.000 N 
ATOM      2  C   UNL     1      -1.052  12.268  20.752  0.00  0.00    +0.000 A 
ATOM      3  N   UNL     1      -2.350  12.418  20.584  0.00  0.00    +0.000 NA
ATOM      4  C   UNL     1      -2.886  13.677  20.733  0.00  0.00    +0.000 A 
ATOM      5  C   UNL     1      -4.182  14.153  20.648  0.00  0.00    +0.000 A 
ATOM      6  C   UNL     1      -4.093  15.535  20.902  0.00  0.00    +0.000 A 
ATOM      7  N   UNL     1      -2.852  15.923  21.184  0.00  0.00    +0.000 NA
ATOM      8  N   UNL     1      -2.109  14.786  21.058  0.00  0.00    +0.000 N 
ATOM      9  C   UNL     1      -0.721  14.681  21.233  0.00  0.00    +0.000 A 
ATOM     10  C   UNL     1      -0.191  13.451  21.063  0.00  0.00    +0.000 A 
ATOM     11  H   UNL     1      -1.290  10.310  20.309  0.00  0.00    +0.000 HD
ENDROOT
BRANCH   5  12
ATOM     12  C   UNL     1      -5.363  13.415  20.362  0.00  0.00    +0.000 C 
ATOM     13  C   UNL     1      -5.554  12.603  19.313  0.00  0.00    +0.000 C 
ATOM     14  N   UNL     1      -4.679  12.309  18.311  0.00  0.00    +0.000 N 
ATOM     15  C   UNL     1      -5.272  11.468  17.394  0.00  0.00    +0.000 C 
ATOM     16  O   UNL     1      -4.777  11.077  16.355  0.00  0.00    +0.000 OA
ATOM     17  N   UNL     1      -6.529  11.175  17.858  0.00  0.00    +0.000 N 
ATOM     18  C   UNL     1      -6.805  11.847  19.014  0.00  0.00    +0.000 C 
ATOM     19  O   UNL     1      -7.838  11.863  19.655  0.00  0.00    +0.000 OA
ATOM     20  H   UNL     1      -3.781  12.759  18.178  0.00  0.00    +0.000 HD
ATOM     21  H   UNL     1      -7.190  10.607  17.361  0.00  0.00    +0.000 HD
ENDBRANCH   5  12
BRANCH   1  23
ATOM     22  C   UNL     1       0.457   9.697  22.443  0.00  0.00    +0.000 C 
ATOM     23  C   UNL     1       0.660  10.380  21.094  0.00  0.00    +0.000 C 
BRANCH  23  24
ATOM     24  C   UNL     1       1.250   9.429  20.063  0.00  0.00    +0.000 A 
ATOM     25  C   UNL     1       1.362   9.835  18.718  0.00  0.00    +0.000 A 
ATOM     26  C   UNL     1       1.877   8.980  17.739  0.00  0.00    +0.000 A 
ATOM     27  C   UNL     1       2.311   7.707  18.092  0.00  0.00    +0.000 A 
ATOM     28  C   UNL     1       2.227   7.297  19.419  0.00  0.00    +0.000 A 
ATOM     29 CL   UNL     1       2.765   5.722  19.859  0.00  0.00    +0.000 Cl
ATOM     30  C   UNL     1       1.706   8.146  20.400  0.00  0.00    +0.000 A 
ENDBRANCH  23  24
ENDBRANCH   1  23
BRANCH   9  31
ATOM     31  N   UNL     1      -0.080  15.862  21.667  0.00  0.00    +0.000 N 
ATOM     32  H   UNL     1      -0.734  16.372  22.275  0.00  0.00    +0.000 HD
BRANCH  31  33
ATOM     33  C   UNL     1       0.587  16.780  20.717  0.00  0.00    +0.000 C 
ATOM     34  C   UNL     1       1.012  18.184  21.048  0.00  0.00    +0.000 C 
ATOM     35  C   UNL     1       2.043  17.102  20.997  0.00  0.00    +0.000 C 
ENDBRANCH  31  33
ENDBRANCH   9  31
BRANCH  10  36
ATOM     36  C   UNL     1       1.313  13.298  21.224  0.00  0.00    +0.000 C 
ATOM     37  N   UNL     1       2.560  13.170  21.358  0.00  0.00    +0.000 NA
ENDBRANCH  10  36
TORSDOF 6
ENDMDL
