MODEL 1
REMARK VINA RESULT:      -7.6      0.000      0.000
REMARK  Name = 
REMARK  9 active torsions:
REMARK  status: ('A' for Active; 'I' for Inactive)
REMARK    1  A    between atoms: C_1  and  C_2
REMARK    2  A    between atoms: C_2  and  N_3
REMARK    3  A    between atoms: N_6  and  C_7
REMARK    4  A    between atoms: C_11  and  S_12
REMARK    5  A    between atoms: S_12  and  C_13
REMARK    6  A    between atoms: C_13  and  C_14
REMARK    7  A    between atoms: C_17  and  N_18
REMARK    8  A    between atoms: C_19  and  O_21
REMARK    9  A    between atoms: O_21  and  C_22
REMARK                            x       y       z     vdW  Elec       q    Type
REMARK                         _______ _______ _______ _____ _____    ______ ____
ROOT
ATOM      1  C   UNL     1       0.841  10.038  20.024  0.00  0.00    +0.000 A 
ATOM      2  C   UNL     1       1.401   9.409  18.886  0.00  0.00    +0.000 A 
ATOM      3  C   UNL     1       1.839   8.086  18.974  0.00  0.00    +0.000 A 
ATOM      4  N   UNL     1       2.425   7.241  18.072  0.00  0.00    +0.000 N 
ATOM      5  C   UNL     1       2.632   6.046  18.695  0.00  0.00    +0.000 A 
ATOM      6  N   UNL     1       2.224   6.059  19.940  0.00  0.00    +0.000 NA
ATOM      7  C   UNL     1       1.729   7.327  20.129  0.00  0.00    +0.000 A 
ATOM      8  C   UNL     1       1.166   7.910  21.267  0.00  0.00    +0.000 A 
ATOM      9  C   UNL     1       0.740   9.252  21.206  0.00  0.00    +0.000 A 
ATOM     10 CL   UNL     1       0.177   9.885  22.728  0.00  0.00    +0.000 Cl
ATOM     11  H   UNL     1       2.674   7.448  17.113  0.00  0.00    +0.000 HD
ENDROOT
BRANCH   1  15
ATOM     12  N   UNL     1      -0.320  13.821  18.440  0.00  0.00    +0.000 NA
ATOM     13  C   UNL     1       1.080  13.327  18.520  0.00  0.00    +0.000 C 
ATOM     14  C   UNL     1       1.396  12.474  19.774  0.00  0.00    +0.000 C 
ATOM     15  N   UNL     1       0.433  11.364  19.915  0.00  0.00    +0.000 N 
ATOM     16  C   UNL     1      -0.984  11.748  19.788  0.00  0.00    +0.000 C 
ATOM     17  C   UNL     1      -1.205  12.638  18.543  0.00  0.00    +0.000 C 
BRANCH  12  19
ATOM     18  C   UNL     1      -0.360  16.268  19.018  0.00  0.00    +0.000 C 
ATOM     19  C   UNL     1      -0.572  14.831  19.482  0.00  0.00    +0.000 C 
ENDBRANCH  12  19
ENDBRANCH   1  15
BRANCH   5  20
ATOM     20  S   UNL     1       3.363   4.745  17.833  0.00  0.00    +0.000 S 
BRANCH  20  21
ATOM     21  C   UNL     1       5.155   5.150  17.890  0.00  0.00    +0.000 C 
ATOM     22  C   UNL     1       5.654   5.113  19.345  0.00  0.00    +0.000 C 
ATOM     23  C   UNL     1       5.913   4.122  17.036  0.00  0.00    +0.000 C 
ATOM     24  C   UNL     1       7.241   4.800  16.686  0.00  0.00    +0.000 C 
ATOM     25  C   UNL     1       6.993   6.315  16.789  0.00  0.00    +0.000 C 
ATOM     26  C   UNL     1       5.509   6.455  17.156  0.00  0.00    +0.000 C 
BRANCH  25  27
ATOM     27  N   UNL     1       7.859   6.945  17.769  0.00  0.00    +0.000 N 
ATOM     28  C   UNL     1       7.966   8.296  17.893  0.00  0.00    +0.000 C 
ATOM     29  O   UNL     1       7.403   9.117  17.188  0.00  0.00    +0.000 OA
ATOM     30  H   UNL     1       8.298   6.401  18.504  0.00  0.00    +0.000 HD
BRANCH  28  31
ATOM     31  O   UNL     1       8.809   8.590  18.915  0.00  0.00    +0.000 OA
ATOM     32  C   UNL     1       9.117   9.981  19.018  0.00  0.00    +0.000 C 
ENDBRANCH  28  31
ENDBRANCH  25  27
ENDBRANCH  20  21
ENDBRANCH   5  20
TORSDOF 6
ENDMDL
MODEL 2
REMARK VINA RESULT:      -7.2      3.245      8.374
REMARK  Name = 
REMARK  9 active torsions:
REMARK  status: ('A' for Active; 'I' for Inactive)
REMARK    1  A    between atoms: C_1  and  C_2
REMARK    2  A    between atoms: C_2  and  N_3
REMARK    3  A    between atoms: N_6  and  C_7
REMARK    4  A    between atoms: C_11  and  S_12
REMARK    5  A    between atoms: S_12  and  C_13
REMARK    6  A    between atoms: C_13  and  C_14
REMARK    7  A    between atoms: C_17  and  N_18
REMARK    8  A    between atoms: C_19  and  O_21
REMARK    9  A    between atoms: O_21  and  C_22
REMARK                            x       y       z     vdW  Elec       q    Type
REMARK                         _______ _______ _______ _____ _____    ______ ____
ROOT
ATOM      1  C   UNL     1       2.736   7.106  18.398  0.00  0.00    +0.000 A 
ATOM      2  C   UNL     1       2.209   8.263  17.776  0.00  0.00    +0.000 A 
ATOM      3  C   UNL     1       1.366   9.112  18.496  0.00  0.00    +0.000 A 
ATOM      4  N   UNL     1       0.707  10.264  18.166  0.00  0.00    +0.000 N 
ATOM      5  C   UNL     1       0.028  10.686  19.271  0.00  0.00    +0.000 A 
ATOM      6  N   UNL     1       0.199   9.886  20.294  0.00  0.00    +0.000 NA
ATOM      7  C   UNL     1       1.031   8.897  19.824  0.00  0.00    +0.000 A 
ATOM      8  C   UNL     1       1.545   7.774  20.476  0.00  0.00    +0.000 A 
ATOM      9  C   UNL     1       2.378   6.891  19.759  0.00  0.00    +0.000 A 
ATOM     10 CL   UNL     1       2.842   5.472  20.655  0.00  0.00    +0.000 Cl
ATOM     11  H   UNL     1       0.704  10.732  17.268  0.00  0.00    +0.000 HD
ENDROOT
BRANCH   1  15
ATOM     12  N   UNL     1       5.806   4.383  17.249  0.00  0.00    +0.000 NA
ATOM     13  C   UNL     1       6.005   5.837  17.482  0.00  0.00    +0.000 C 
ATOM     14  C   UNL     1       4.818   6.732  17.045  0.00  0.00    +0.000 C 
ATOM     15  N   UNL     1       3.554   6.266  17.650  0.00  0.00    +0.000 N 
ATOM     16  C   UNL     1       3.298   4.820  17.523  0.00  0.00    +0.000 C 
ATOM     17  C   UNL     1       4.546   4.002  17.928  0.00  0.00    +0.000 C 
BRANCH  12  19
ATOM     18  C   UNL     1       6.989   4.678  15.050  0.00  0.00    +0.000 C 
ATOM     19  C   UNL     1       5.806   4.086  15.807  0.00  0.00    +0.000 C 
ENDBRANCH  12  19
ENDBRANCH   1  15
BRANCH   5  20
ATOM     20  S   UNL     1      -0.918  12.125  19.197  0.00  0.00    +0.000 S 
BRANCH  20  21
ATOM     21  C   UNL     1       0.323  13.462  19.425  0.00  0.00    +0.000 C 
ATOM     22  C   UNL     1      -0.364  14.835  19.338  0.00  0.00    +0.000 C 
ATOM     23  C   UNL     1       0.986  13.279  20.800  0.00  0.00    +0.000 C 
ATOM     24  C   UNL     1       2.316  14.032  20.701  0.00  0.00    +0.000 C 
ATOM     25  C   UNL     1       2.669  14.091  19.204  0.00  0.00    +0.000 C 
ATOM     26  C   UNL     1       1.541  13.328  18.495  0.00  0.00    +0.000 C 
BRANCH  25  27
ATOM     27  N   UNL     1       2.788  15.456  18.724  0.00  0.00    +0.000 N 
ATOM     28  C   UNL     1       3.804  15.863  17.914  0.00  0.00    +0.000 C 
ATOM     29  O   UNL     1       4.733  15.167  17.544  0.00  0.00    +0.000 OA
ATOM     30  H   UNL     1       2.032  16.120  18.848  0.00  0.00    +0.000 HD
BRANCH  28  31
ATOM     31  O   UNL     1       3.630  17.170  17.595  0.00  0.00    +0.000 OA
ATOM     32  C   UNL     1       2.278  17.507  17.285  0.00  0.00    +0.000 C 
ENDBRANCH  28  31
ENDBRANCH  25  27
ENDBRANCH  20  21
ENDBRANCH   5  20
TORSDOF 6
ENDMDL
MODEL 3
REMARK VINA RESULT:      -7.2      0.771      1.266
REMARK  Name = 
REMARK  9 active torsions:
REMARK  status: ('A' for Active; 'I' for Inactive)
REMARK    1  A    between atoms: C_1  and  C_2
REMARK    2  A    between atoms: C_2  and  N_3
REMARK    3  A    between atoms: N_6  and  C_7
REMARK    4  A    between atoms: C_11  and  S_12
REMARK    5  A    between atoms: S_12  and  C_13
REMARK    6  A    between atoms: C_13  and  C_14
REMARK    7  A    between atoms: C_17  and  N_18
REMARK    8  A    between atoms: C_19  and  O_21
REMARK    9  A    between atoms: O_21  and  C_22
REMARK                            x       y       z     vdW  Elec       q    Type
REMARK                         _______ _______ _______ _____ _____    ______ ____
ROOT
ATOM      1  C   UNL     1       0.832  10.183  20.072  0.00  0.00    +0.000 A 
ATOM      2  C   UNL     1       1.406   9.579  18.929  0.00  0.00    +0.000 A 
ATOM      3  C   UNL     1       1.830   8.249  18.989  0.00  0.00    +0.000 A 
ATOM      4  N   UNL     1       2.423   7.422  18.076  0.00  0.00    +0.000 N 
ATOM      5  C   UNL     1       2.609   6.210  18.671  0.00  0.00    +0.000 A 
ATOM      6  N   UNL     1       2.180   6.195  19.909  0.00  0.00    +0.000 NA
ATOM      7  C   UNL     1       1.693   7.462  20.123  0.00  0.00    +0.000 A 
ATOM      8  C   UNL     1       1.117   8.021  21.266  0.00  0.00    +0.000 A 
ATOM      9  C   UNL     1       0.704   9.368  21.233  0.00  0.00    +0.000 A 
ATOM     10 CL   UNL     1       0.121   9.967  22.760  0.00  0.00    +0.000 Cl
ATOM     11  H   UNL     1       2.691   7.651  17.127  0.00  0.00    +0.000 HD
ENDROOT
BRANCH   1  15
ATOM     12  N   UNL     1      -0.579  14.078  21.074  0.00  0.00    +0.000 NA
ATOM     13  C   UNL     1      -1.444  12.885  20.884  0.00  0.00    +0.000 C 
ATOM     14  C   UNL     1      -0.969  11.909  19.779  0.00  0.00    +0.000 C 
ATOM     15  N   UNL     1       0.438  11.515  19.991  0.00  0.00    +0.000 N 
ATOM     16  C   UNL     1       1.366  12.631  20.249  0.00  0.00    +0.000 C 
ATOM     17  C   UNL     1       0.795  13.584  21.325  0.00  0.00    +0.000 C 
BRANCH  12  19
ATOM     18  C   UNL     1      -1.641  16.138  20.100  0.00  0.00    +0.000 C 
ATOM     19  C   UNL     1      -0.673  14.976  19.911  0.00  0.00    +0.000 C 
ENDBRANCH  12  19
ENDBRANCH   1  15
BRANCH   5  20
ATOM     20  S   UNL     1       3.343   4.924  17.788  0.00  0.00    +0.000 S 
BRANCH  20  21
ATOM     21  C   UNL     1       5.136   5.316  17.877  0.00  0.00    +0.000 C 
ATOM     22  C   UNL     1       5.627   5.198  19.330  0.00  0.00    +0.000 C 
ATOM     23  C   UNL     1       5.894   4.332  16.972  0.00  0.00    +0.000 C 
ATOM     24  C   UNL     1       7.227   5.021  16.666  0.00  0.00    +0.000 C 
ATOM     25  C   UNL     1       6.986   6.529  16.850  0.00  0.00    +0.000 C 
ATOM     26  C   UNL     1       5.501   6.657  17.217  0.00  0.00    +0.000 C 
BRANCH  25  27
ATOM     27  N   UNL     1       7.849   7.101  17.868  0.00  0.00    +0.000 N 
ATOM     28  C   UNL     1       8.082   8.438  17.966  0.00  0.00    +0.000 C 
ATOM     29  O   UNL     1       7.647   9.288  17.208  0.00  0.00    +0.000 OA
ATOM     30  H   UNL     1       8.187   6.538  18.641  0.00  0.00    +0.000 HD
BRANCH  28  31
ATOM     31  O   UNL     1       8.887   8.679  19.031  0.00  0.00    +0.000 OA
ATOM     32  C   UNL     1       9.193  10.061  19.214  0.00  0.00    +0.000 C 
ENDBRANCH  28  31
ENDBRANCH  25  27
ENDBRANCH  20  21
ENDBRANCH   5  20
TORSDOF 6
ENDMDL
MODEL 4
REMARK VINA RESULT:      -7.2      1.917      2.579
REMARK  Name = 
REMARK  9 active torsions:
REMARK  status: ('A' for Active; 'I' for Inactive)
REMARK    1  A    between atoms: C_1  and  C_2
REMARK    2  A    between atoms: C_2  and  N_3
REMARK    3  A    between atoms: N_6  and  C_7
REMARK    4  A    between atoms: C_11  and  S_12
REMARK    5  A    between atoms: S_12  and  C_13
REMARK    6  A    between atoms: C_13  and  C_14
REMARK    7  A    between atoms: C_17  and  N_18
REMARK    8  A    between atoms: C_19  and  O_21
REMARK    9  A    between atoms: O_21  and  C_22
REMARK                            x       y       z     vdW  Elec       q    Type
REMARK                         _______ _______ _______ _____ _____    ______ ____
ROOT
ATOM      1  C   UNL     1       0.874  10.079  20.104  0.00  0.00    +0.000 A 
ATOM      2  C   UNL     1       1.360   9.358  18.988  0.00  0.00    +0.000 A 
ATOM      3  C   UNL     1       1.745   8.024  19.141  0.00  0.00    +0.000 A 
ATOM      4  N   UNL     1       2.258   7.100  18.272  0.00  0.00    +0.000 N 
ATOM      5  C   UNL     1       2.440   5.938  18.961  0.00  0.00    +0.000 A 
ATOM      6  N   UNL     1       2.084   6.045  20.217  0.00  0.00    +0.000 NA
ATOM      7  C   UNL     1       1.651   7.343  20.346  0.00  0.00    +0.000 A 
ATOM      8  C   UNL     1       1.160   8.018  21.465  0.00  0.00    +0.000 A 
ATOM      9  C   UNL     1       0.789   9.372  21.337  0.00  0.00    +0.000 A 
ATOM     10 CL   UNL     1       0.316  10.121  22.836  0.00  0.00    +0.000 Cl
ATOM     11  H   UNL     1       2.476   7.236  17.293  0.00  0.00    +0.000 HD
ENDROOT
BRANCH   1  15
ATOM     12  N   UNL     1      -0.036  13.847  18.333  0.00  0.00    +0.000 NA
ATOM     13  C   UNL     1       1.336  13.316  18.539  0.00  0.00    +0.000 C 
ATOM     14  C   UNL     1       1.523  12.490  19.837  0.00  0.00    +0.000 C 
ATOM     15  N   UNL     1       0.518  11.413  19.928  0.00  0.00    +0.000 N 
ATOM     16  C   UNL     1      -0.872  11.834  19.676  0.00  0.00    +0.000 C 
ATOM     17  C   UNL     1      -0.964  12.694  18.394  0.00  0.00    +0.000 C 
BRANCH  12  19
ATOM     18  C   UNL     1       0.728  15.976  19.431  0.00  0.00    +0.000 C 
ATOM     19  C   UNL     1      -0.340  14.894  19.324  0.00  0.00    +0.000 C 
ENDBRANCH  12  19
ENDBRANCH   1  15
BRANCH   5  20
ATOM     20  S   UNL     1       3.079   4.555  18.154  0.00  0.00    +0.000 S 
BRANCH  20  21
ATOM     21  C   UNL     1       4.752   5.106  17.628  0.00  0.00    +0.000 C 
ATOM     22  C   UNL     1       4.637   6.360  16.744  0.00  0.00    +0.000 C 
ATOM     23  C   UNL     1       5.582   5.410  18.886  0.00  0.00    +0.000 C 
ATOM     24  C   UNL     1       7.040   5.324  18.428  0.00  0.00    +0.000 C 
ATOM     25  C   UNL     1       7.050   4.422  17.181  0.00  0.00    +0.000 C 
ATOM     26  C   UNL     1       5.591   3.985  16.991  0.00  0.00    +0.000 C 
BRANCH  25  27
ATOM     27  N   UNL     1       7.570   5.109  16.014  0.00  0.00    +0.000 N 
ATOM     28  C   UNL     1       7.241   4.749  14.743  0.00  0.00    +0.000 C 
ATOM     29  O   UNL     1       6.531   3.807  14.438  0.00  0.00    +0.000 OA
ATOM     30  H   UNL     1       8.075   5.984  16.105  0.00  0.00    +0.000 HD
BRANCH  28  31
ATOM     31  O   UNL     1       7.839   5.594  13.866  0.00  0.00    +0.000 OA
ATOM     32  C   UNL     1       7.738   5.169  12.506  0.00  0.00    +0.000 C 
ENDBRANCH  28  31
ENDBRANCH  25  27
ENDBRANCH  20  21
ENDBRANCH   5  20
TORSDOF 6
ENDMDL
MODEL 5
REMARK VINA RESULT:      -7.1      4.108      9.174
REMARK  Name = 
REMARK  9 active torsions:
REMARK  status: ('A' for Active; 'I' for Inactive)
REMARK    1  A    between atoms: C_1  and  C_2
REMARK    2  A    between atoms: C_2  and  N_3
REMARK    3  A    between atoms: N_6  and  C_7
REMARK    4  A    between atoms: C_11  and  S_12
REMARK    5  A    between atoms: S_12  and  C_13
REMARK    6  A    between atoms: C_13  and  C_14
REMARK    7  A    between atoms: C_17  and  N_18
REMARK    8  A    between atoms: C_19  and  O_21
REMARK    9  A    between atoms: O_21  and  C_22
REMARK                            x       y       z     vdW  Elec       q    Type
REMARK                         _______ _______ _______ _____ _____    ______ ____
ROOT
ATOM      1  C   UNL     1       2.662   6.556  18.844  0.00  0.00    +0.000 A 
ATOM      2  C   UNL     1       2.370   7.939  18.766  0.00  0.00    +0.000 A 
ATOM      3  C   UNL     1       1.623   8.546  19.778  0.00  0.00    +0.000 A 
ATOM      4  N   UNL     1       1.179   9.826  19.963  0.00  0.00    +0.000 N 
ATOM      5  C   UNL     1       0.499   9.864  21.144  0.00  0.00    +0.000 A 
ATOM      6  N   UNL     1       0.468   8.695  21.736  0.00  0.00    +0.000 NA
ATOM      7  C   UNL     1       1.164   7.861  20.893  0.00  0.00    +0.000 A 
ATOM      8  C   UNL     1       1.447   6.499  21.012  0.00  0.00    +0.000 A 
ATOM      9  C   UNL     1       2.179   5.863  19.989  0.00  0.00    +0.000 A 
ATOM     10 CL   UNL     1       2.348   4.143  20.206  0.00  0.00    +0.000 Cl
ATOM     11  H   UNL     1       1.315  10.616  19.345  0.00  0.00    +0.000 HD
ENDROOT
BRANCH   1  15
ATOM     12  N   UNL     1       5.637   4.424  16.662  0.00  0.00    +0.000 NA
ATOM     13  C   UNL     1       5.798   5.803  17.189  0.00  0.00    +0.000 C 
ATOM     14  C   UNL     1       4.512   6.667  17.149  0.00  0.00    +0.000 C 
ATOM     15  N   UNL     1       3.389   5.973  17.811  0.00  0.00    +0.000 N 
ATOM     16  C   UNL     1       3.189   4.573  17.395  0.00  0.00    +0.000 C 
ATOM     17  C   UNL     1       4.526   3.796  17.414  0.00  0.00    +0.000 C 
BRANCH  12  19
ATOM     18  C   UNL     1       6.691   4.620  14.387  0.00  0.00    +0.000 C 
ATOM     19  C   UNL     1       5.416   4.449  15.206  0.00  0.00    +0.000 C 
ENDBRANCH  12  19
ENDBRANCH   1  15
BRANCH   5  20
ATOM     20  S   UNL     1      -0.200  11.344  21.684  0.00  0.00    +0.000 S 
BRANCH  20  21
ATOM     21  C   UNL     1      -1.105  11.951  20.203  0.00  0.00    +0.000 C 
ATOM     22  C   UNL     1      -2.379  12.697  20.637  0.00  0.00    +0.000 C 
ATOM     23  C   UNL     1      -0.175  12.888  19.416  0.00  0.00    +0.000 C 
ATOM     24  C   UNL     1      -0.747  12.910  17.995  0.00  0.00    +0.000 C 
ATOM     25  C   UNL     1      -1.545  11.605  17.830  0.00  0.00    +0.000 C 
ATOM     26  C   UNL     1      -1.367  10.854  19.157  0.00  0.00    +0.000 C 
BRANCH  25  27
ATOM     27  N   UNL     1      -2.943  11.854  17.528  0.00  0.00    +0.000 N 
ATOM     28  C   UNL     1      -3.681  11.029  16.736  0.00  0.00    +0.000 C 
ATOM     29  O   UNL     1      -3.260  10.039  16.162  0.00  0.00    +0.000 OA
ATOM     30  H   UNL     1      -3.465  12.568  18.024  0.00  0.00    +0.000 HD
BRANCH  28  31
ATOM     31  O   UNL     1      -4.956  11.488  16.670  0.00  0.00    +0.000 OA
ATOM     32  C   UNL     1      -5.706  11.260  17.863  0.00  0.00    +0.000 C 
ENDBRANCH  28  31
ENDBRANCH  25  27
ENDBRANCH  20  21
ENDBRANCH   5  20
TORSDOF 6
ENDMDL
MODEL 6
REMARK VINA RESULT:      -7.0      2.657      3.543
REMARK  Name = 
REMARK  9 active torsions:
REMARK  status: ('A' for Active; 'I' for Inactive)
REMARK    1  A    between atoms: C_1  and  C_2
REMARK    2  A    between atoms: C_2  and  N_3
REMARK    3  A    between atoms: N_6  and  C_7
REMARK    4  A    between atoms: C_11  and  S_12
REMARK    5  A    between atoms: S_12  and  C_13
REMARK    6  A    between atoms: C_13  and  C_14
REMARK    7  A    between atoms: C_17  and  N_18
REMARK    8  A    between atoms: C_19  and  O_21
REMARK    9  A    between atoms: O_21  and  C_22
REMARK                            x       y       z     vdW  Elec       q    Type
REMARK                         _______ _______ _______ _____ _____    ______ ____
ROOT
ATOM      1  C   UNL     1       0.644  10.476  20.545  0.00  0.00    +0.000 A 
ATOM      2  C   UNL     1       1.182   9.258  21.026  0.00  0.00    +0.000 A 
ATOM      3  C   UNL     1       1.693   8.325  20.121  0.00  0.00    +0.000 A 
ATOM      4  N   UNL     1       2.246   7.084  20.282  0.00  0.00    +0.000 N 
ATOM      5  C   UNL     1       2.589   6.619  19.047  0.00  0.00    +0.000 A 
ATOM      6  N   UNL     1       2.293   7.470  18.096  0.00  0.00    +0.000 NA
ATOM      7  C   UNL     1       1.730   8.540  18.752  0.00  0.00    +0.000 A 
ATOM      8  C   UNL     1       1.223   9.737  18.243  0.00  0.00    +0.000 A 
ATOM      9  C   UNL     1       0.680  10.682  19.137  0.00  0.00    +0.000 A 
ATOM     10 CL   UNL     1      -0.028  12.068  18.356  0.00  0.00    +0.000 Cl
ATOM     11  H   UNL     1       2.381   6.582  21.151  0.00  0.00    +0.000 HD
ENDROOT
BRANCH   1  15
ATOM     12  N   UNL     1      -1.870  13.331  22.468  0.00  0.00    +0.000 NA
ATOM     13  C   UNL     1      -0.925  13.640  21.363  0.00  0.00    +0.000 C 
ATOM     14  C   UNL     1       0.394  12.827  21.392  0.00  0.00    +0.000 C 
ATOM     15  N   UNL     1       0.121  11.379  21.466  0.00  0.00    +0.000 N 
ATOM     16  C   UNL     1      -0.855  10.980  22.497  0.00  0.00    +0.000 C 
ATOM     17  C   UNL     1      -2.118  11.871  22.433  0.00  0.00    +0.000 C 
BRANCH  12  19
ATOM     18  C   UNL     1      -2.257  14.751  24.506  0.00  0.00    +0.000 C 
ATOM     19  C   UNL     1      -1.331  13.801  23.755  0.00  0.00    +0.000 C 
ENDBRANCH  12  19
ENDBRANCH   1  15
BRANCH   5  20
ATOM     20  S   UNL     1       3.318   5.065  18.889  0.00  0.00    +0.000 S 
BRANCH  20  21
ATOM     21  C   UNL     1       4.952   5.437  18.133  0.00  0.00    +0.000 C 
ATOM     22  C   UNL     1       4.867   6.736  17.315  0.00  0.00    +0.000 C 
ATOM     23  C   UNL     1       5.988   5.577  19.260  0.00  0.00    +0.000 C 
ATOM     24  C   UNL     1       7.342   5.339  18.584  0.00  0.00    +0.000 C 
ATOM     25  C   UNL     1       7.055   4.505  17.324  0.00  0.00    +0.000 C 
ATOM     26  C   UNL     1       5.541   4.255  17.343  0.00  0.00    +0.000 C 
BRANCH  25  27
ATOM     27  N   UNL     1       7.481   5.181  16.112  0.00  0.00    +0.000 N 
ATOM     28  C   UNL     1       7.139   4.745  14.869  0.00  0.00    +0.000 C 
ATOM     29  O   UNL     1       6.496   3.738  14.627  0.00  0.00    +0.000 OA
ATOM     30  H   UNL     1       7.918   6.095  16.151  0.00  0.00    +0.000 HD
BRANCH  28  31
ATOM     31  O   UNL     1       7.640   5.595  13.938  0.00  0.00    +0.000 OA
ATOM     32  C   UNL     1       7.655   5.052  12.618  0.00  0.00    +0.000 C 
ENDBRANCH  28  31
ENDBRANCH  25  27
ENDBRANCH  20  21
ENDBRANCH   5  20
TORSDOF 6
ENDMDL
MODEL 7
REMARK VINA RESULT:      -6.9      5.477      7.743
REMARK  Name = 
REMARK  9 active torsions:
REMARK  status: ('A' for Active; 'I' for Inactive)
REMARK    1  A    between atoms: C_1  and  C_2
REMARK    2  A    between atoms: C_2  and  N_3
REMARK    3  A    between atoms: N_6  and  C_7
REMARK    4  A    between atoms: C_11  and  S_12
REMARK    5  A    between atoms: S_12  and  C_13
REMARK    6  A    between atoms: C_13  and  C_14
REMARK    7  A    between atoms: C_17  and  N_18
REMARK    8  A    between atoms: C_19  and  O_21
REMARK    9  A    between atoms: O_21  and  C_22
REMARK                            x       y       z     vdW  Elec       q    Type
REMARK                         _______ _______ _______ _____ _____    ______ ____
ROOT
ATOM      1  C   UNL     1       8.965  11.582  18.405  0.00  0.00    +0.000 A 
ATOM      2  C   UNL     1       8.225  10.819  17.471  0.00  0.00    +0.000 A 
ATOM      3  C   UNL     1       8.075   9.444  17.666  0.00  0.00    +0.000 A 
ATOM      4  N   UNL     1       7.448   8.467  16.943  0.00  0.00    +0.000 N 
ATOM      5  C   UNL     1       7.607   7.289  17.610  0.00  0.00    +0.000 A 
ATOM      6  N   UNL     1       8.297   7.433  18.714  0.00  0.00    +0.000 NA
ATOM      7  C   UNL     1       8.599   8.774  18.761  0.00  0.00    +0.000 A 
ATOM      8  C   UNL     1       9.322   9.497  19.712  0.00  0.00    +0.000 A 
ATOM      9  C   UNL     1       9.505  10.882  19.521  0.00  0.00    +0.000 A 
ATOM     10 CL   UNL     1      10.529  11.631  20.713  0.00  0.00    +0.000 Cl
ATOM     11  H   UNL     1       6.954   8.577  16.066  0.00  0.00    +0.000 HD
ENDROOT
BRANCH   1  15
ATOM     12  N   UNL     1      10.045  15.684  18.821  0.00  0.00    +0.000 NA
ATOM     13  C   UNL     1       8.920  15.026  19.535  0.00  0.00    +0.000 C 
ATOM     14  C   UNL     1       8.174  13.945  18.713  0.00  0.00    +0.000 C 
ATOM     15  N   UNL     1       9.117  12.946  18.174  0.00  0.00    +0.000 N 
ATOM     16  C   UNL     1      10.302  13.506  17.499  0.00  0.00    +0.000 C 
ATOM     17  C   UNL     1      10.956  14.610  18.362  0.00  0.00    +0.000 C 
BRANCH  12  19
ATOM     18  C   UNL     1       8.698  17.712  18.193  0.00  0.00    +0.000 C 
ATOM     19  C   UNL     1       9.539  16.529  17.727  0.00  0.00    +0.000 C 
ENDBRANCH  12  19
ENDBRANCH   1  15
BRANCH   5  20
ATOM     20  S   UNL     1       6.931   5.840  16.965  0.00  0.00    +0.000 S 
BRANCH  20  21
ATOM     21  C   UNL     1       5.350   5.661  17.886  0.00  0.00    +0.000 C 
ATOM     22  C   UNL     1       5.638   5.380  19.371  0.00  0.00    +0.000 C 
ATOM     23  C   UNL     1       4.548   6.963  17.731  0.00  0.00    +0.000 C 
ATOM     24  C   UNL     1       3.097   6.571  18.024  0.00  0.00    +0.000 C 
ATOM     25  C   UNL     1       2.991   5.062  17.740  0.00  0.00    +0.000 C 
ATOM     26  C   UNL     1       4.384   4.647  17.249  0.00  0.00    +0.000 C 
BRANCH  25  27
ATOM     27  N   UNL     1       2.580   4.312  18.913  0.00  0.00    +0.000 N 
ATOM     28  C   UNL     1       1.963   3.102  18.831  0.00  0.00    +0.000 C 
ATOM     29  O   UNL     1       1.647   2.539  17.797  0.00  0.00    +0.000 OA
ATOM     30  H   UNL     1       2.880   4.591  19.841  0.00  0.00    +0.000 HD
BRANCH  28  31
ATOM     31  O   UNL     1       1.741   2.624  20.081  0.00  0.00    +0.000 OA
ATOM     32  C   UNL     1       1.793   3.629  21.094  0.00  0.00    +0.000 C 
ENDBRANCH  28  31
ENDBRANCH  25  27
ENDBRANCH  20  21
ENDBRANCH   5  20
TORSDOF 6
ENDMDL
MODEL 8
REMARK VINA RESULT:      -6.9      4.785      9.810
REMARK  Name = 
REMARK  9 active torsions:
REMARK  status: ('A' for Active; 'I' for Inactive)
REMARK    1  A    between atoms: C_1  and  C_2
REMARK    2  A    between atoms: C_2  and  N_3
REMARK    3  A    between atoms: N_6  and  C_7
REMARK    4  A    between atoms: C_11  and  S_12
REMARK    5  A    between atoms: S_12  and  C_13
REMARK    6  A    between atoms: C_13  and  C_14
REMARK    7  A    between atoms: C_17  and  N_18
REMARK    8  A    between atoms: C_19  and  O_21
REMARK    9  A    between atoms: O_21  and  C_22
REMARK                            x       y       z     vdW  Elec       q    Type
REMARK                         _______ _______ _______ _____ _____    ______ ____
ROOT
ATOM      1  C   UNL     1       3.501   6.881  18.096  0.00  0.00    +0.000 A 
ATOM      2  C   UNL     1       3.042   8.196  17.844  0.00  0.00    +0.000 A 
ATOM      3  C   UNL     1       2.124   8.786  18.714  0.00  0.00    +0.000 A 
ATOM      4  N   UNL     1       1.501  10.004  18.720  0.00  0.00    +0.000 N 
ATOM      5  C   UNL     1       0.705  10.059  19.825  0.00  0.00    +0.000 A 
ATOM      6  N   UNL     1       0.765   8.959  20.535  0.00  0.00    +0.000 NA
ATOM      7  C   UNL     1       1.645   8.154  19.852  0.00  0.00    +0.000 A 
ATOM      8  C   UNL     1       2.088   6.861  20.142  0.00  0.00    +0.000 A 
ATOM      9  C   UNL     1       2.997   6.239  19.262  0.00  0.00    +0.000 A 
ATOM     10 CL   UNL     1       3.364   4.588  19.677  0.00  0.00    +0.000 Cl
ATOM     11  H   UNL     1       1.596  10.742  18.034  0.00  0.00    +0.000 HD
ENDROOT
BRANCH   1  15
ATOM     12  N   UNL     1       6.633   4.528  16.419  0.00  0.00    +0.000 NA
ATOM     13  C   UNL     1       6.835   5.775  17.200  0.00  0.00    +0.000 C 
ATOM     14  C   UNL     1       5.750   6.860  16.980  0.00  0.00    +0.000 C 
ATOM     15  N   UNL     1       4.399   6.309  17.200  0.00  0.00    +0.000 N 
ATOM     16  C   UNL     1       4.125   5.035  16.511  0.00  0.00    +0.000 C 
ATOM     17  C   UNL     1       5.276   4.027  16.739  0.00  0.00    +0.000 C 
BRANCH  12  19
ATOM     18  C   UNL     1       6.189   3.744  14.071  0.00  0.00    +0.000 C 
ATOM     19  C   UNL     1       6.839   4.779  14.982  0.00  0.00    +0.000 C 
ENDBRANCH  12  19
ENDBRANCH   1  15
BRANCH   5  20
ATOM     20  S   UNL     1      -0.231  11.472  20.138  0.00  0.00    +0.000 S 
BRANCH  20  21
ATOM     21  C   UNL     1      -1.481  11.461  18.790  0.00  0.00    +0.000 C 
ATOM     22  C   UNL     1      -1.145  12.549  17.755  0.00  0.00    +0.000 C 
ATOM     23  C   UNL     1      -1.473  10.072  18.131  0.00  0.00    +0.000 C 
ATOM     24  C   UNL     1      -2.834   9.953  17.441  0.00  0.00    +0.000 C 
ATOM     25  C   UNL     1      -3.778  10.919  18.178  0.00  0.00    +0.000 C 
ATOM     26  C   UNL     1      -2.930  11.531  19.301  0.00  0.00    +0.000 C 
BRANCH  25  27
ATOM     27  N   UNL     1      -4.324  11.932  17.293  0.00  0.00    +0.000 N 
ATOM     28  C   UNL     1      -5.656  12.202  17.219  0.00  0.00    +0.000 C 
ATOM     29  O   UNL     1      -6.530  11.612  17.831  0.00  0.00    +0.000 OA
ATOM     30  H   UNL     1      -3.717  12.586  16.812  0.00  0.00    +0.000 HD
BRANCH  28  31
ATOM     31  O   UNL     1      -5.863  13.220  16.346  0.00  0.00    +0.000 OA
ATOM     32  C   UNL     1      -6.904  14.111  16.746  0.00  0.00    +0.000 C 
ENDBRANCH  28  31
ENDBRANCH  25  27
ENDBRANCH  20  21
ENDBRANCH   5  20
TORSDOF 6
ENDMDL
MODEL 9
REMARK VINA RESULT:      -6.9      3.412      8.249
REMARK  Name = 
REMARK  9 active torsions:
REMARK  status: ('A' for Active; 'I' for Inactive)
REMARK    1  A    between atoms: C_1  and  C_2
REMARK    2  A    between atoms: C_2  and  N_3
REMARK    3  A    between atoms: N_6  and  C_7
REMARK    4  A    between atoms: C_11  and  S_12
REMARK    5  A    between atoms: S_12  and  C_13
REMARK    6  A    between atoms: C_13  and  C_14
REMARK    7  A    between atoms: C_17  and  N_18
REMARK    8  A    between atoms: C_19  and  O_21
REMARK    9  A    between atoms: O_21  and  C_22
REMARK                            x       y       z     vdW  Elec       q    Type
REMARK                         _______ _______ _______ _____ _____    ______ ____
ROOT
ATOM      1  C   UNL     1       2.614   7.363  18.427  0.00  0.00    +0.000 A 
ATOM      2  C   UNL     1       2.328   8.572  17.750  0.00  0.00    +0.000 A 
ATOM      3  C   UNL     1       1.568   9.556  18.386  0.00  0.00    +0.000 A 
ATOM      4  N   UNL     1       1.125  10.788  17.988  0.00  0.00    +0.000 N 
ATOM      5  C   UNL     1       0.427  11.334  19.025  0.00  0.00    +0.000 A 
ATOM      6  N   UNL     1       0.384  10.540  20.066  0.00  0.00    +0.000 NA
ATOM      7  C   UNL     1       1.090   9.425  19.681  0.00  0.00    +0.000 A 
ATOM      8  C   UNL     1       1.367   8.251  20.386  0.00  0.00    +0.000 A 
ATOM      9  C   UNL     1       2.112   7.236  19.753  0.00  0.00    +0.000 A 
ATOM     10 CL   UNL     1       2.273   5.783  20.700  0.00  0.00    +0.000 Cl
ATOM     11  H   UNL     1       1.272  11.230  17.090  0.00  0.00    +0.000 HD
ENDROOT
BRANCH   1  15
ATOM     12  N   UNL     1       5.400   4.257  17.557  0.00  0.00    +0.000 NA
ATOM     13  C   UNL     1       5.748   5.695  17.697  0.00  0.00    +0.000 C 
ATOM     14  C   UNL     1       4.675   6.677  17.166  0.00  0.00    +0.000 C 
ATOM     15  N   UNL     1       3.355   6.390  17.762  0.00  0.00    +0.000 N 
ATOM     16  C   UNL     1       2.948   4.975  17.725  0.00  0.00    +0.000 C 
ATOM     17  C   UNL     1       4.091   4.059  18.222  0.00  0.00    +0.000 C 
BRANCH  12  19
ATOM     18  C   UNL     1       6.664   4.257  15.383  0.00  0.00    +0.000 C 
ATOM     19  C   UNL     1       5.400   3.861  16.138  0.00  0.00    +0.000 C 
ENDBRANCH  12  19
ENDBRANCH   1  15
BRANCH   5  20
ATOM     20  S   UNL     1      -0.276  12.899  18.855  0.00  0.00    +0.000 S 
BRANCH  20  21
ATOM     21  C   UNL     1       1.024  14.022  19.509  0.00  0.00    +0.000 C 
ATOM     22  C   UNL     1       0.722  15.471  19.093  0.00  0.00    +0.000 C 
ATOM     23  C   UNL     1       1.049  13.896  21.041  0.00  0.00    +0.000 C 
ATOM     24  C   UNL     1       2.436  14.393  21.457  0.00  0.00    +0.000 C 
ATOM     25  C   UNL     1       3.346  14.210  20.229  0.00  0.00    +0.000 C 
ATOM     26  C   UNL     1       2.453  13.571  19.158  0.00  0.00    +0.000 C 
BRANCH  25  27
ATOM     27  N   UNL     1       3.920  15.466  19.782  0.00  0.00    +0.000 N 
ATOM     28  C   UNL     1       4.849  15.538  18.790  0.00  0.00    +0.000 C 
ATOM     29  O   UNL     1       5.333  14.583  18.207  0.00  0.00    +0.000 OA
ATOM     30  H   UNL     1       3.533  16.353  20.086  0.00  0.00    +0.000 HD
BRANCH  28  31
ATOM     31  O   UNL     1       5.164  16.837  18.560  0.00  0.00    +0.000 OA
ATOM     32  C   UNL     1       5.616  17.529  19.724  0.00  0.00    +0.000 C 
ENDBRANCH  28  31
ENDBRANCH  25  27
ENDBRANCH  20  21
ENDBRANCH   5  20
TORSDOF 6
ENDMDL
