MODEL 1
REMARK VINA RESULT:      -8.4      0.000      0.000
REMARK  Name = 
REMARK  7 active torsions:
REMARK  status: ('A' for Active; 'I' for Inactive)
REMARK    1  A    between atoms: C_1  and  C_2
REMARK    2  A    between atoms: C_2  and  O_3
REMARK    3  A    between atoms: O_3  and  C_4
REMARK    4  A    between atoms: C_10  and  C_11
REMARK    5  A    between atoms: C_16  and  C_17
REMARK    6  A    between atoms: C_18  and  O_19
REMARK    7  A    between atoms: O_19  and  C_20
REMARK                            x       y       z     vdW  Elec       q    Type
REMARK                         _______ _______ _______ _____ _____    ______ ____
ROOT
ATOM      1  C   UNL     1       1.991   6.371  20.327  0.00  0.00    +0.000 A 
ATOM      2  N   UNL     1       1.564   7.280  21.204  0.00  0.00    +0.000 NA
ATOM      3  N   UNL     1       1.354   8.405  20.454  0.00  0.00    +0.000 N 
ATOM      4  C   UNL     1       0.619   9.509  21.008  0.00  0.00    +0.000 A 
ATOM      5  C   UNL     1       0.265   9.477  22.356  0.00  0.00    +0.000 A 
ATOM      6  C   UNL     1      -0.562  10.485  22.861  0.00  0.00    +0.000 A 
ATOM      7  C   UNL     1      -1.039  11.503  22.031  0.00  0.00    +0.000 A 
ATOM      8  C   UNL     1      -0.584  11.468  20.714  0.00  0.00    +0.000 A 
ATOM      9  N   UNL     1       0.218  10.511  20.189  0.00  0.00    +0.000 NA
ATOM     10  C   UNL     1       1.846   8.250  19.163  0.00  0.00    +0.000 A 
ATOM     11  C   UNL     1       1.912   9.294  18.107  0.00  0.00    +0.000 C 
ATOM     12  C   UNL     1       2.227   6.929  19.063  0.00  0.00    +0.000 A 
ENDROOT
BRANCH   7  13
ATOM     13  C   UNL     1      -1.981  12.571  22.522  0.00  0.00    +0.000 C 
ATOM     14  C   UNL     1      -3.426  12.560  22.073  0.00  0.00    +0.000 C 
ATOM     15  C   UNL     1      -3.086  12.214  23.491  0.00  0.00    +0.000 C 
ENDBRANCH   7  13
BRANCH   1  16
ATOM     16  O   UNL     1       2.175   5.087  20.714  0.00  0.00    +0.000 OA
BRANCH  16  18
ATOM     17  C   UNL     1       1.325   2.858  20.993  0.00  0.00    +0.000 C 
ATOM     18  C   UNL     1       1.050   4.245  20.442  0.00  0.00    +0.000 C 
ENDBRANCH  16  18
ENDBRANCH   1  16
BRANCH  12  19
ATOM     19  O   UNL     1       2.612   6.404  17.883  0.00  0.00    +0.000 OA
BRANCH  19  20
ATOM     20  C   UNL     1       3.856   5.888  17.626  0.00  0.00    +0.000 A 
ATOM     21  C   UNL     1       5.015   6.671  17.603  0.00  0.00    +0.000 A 
ATOM     22  C   UNL     1       6.227   6.100  17.221  0.00  0.00    +0.000 A 
ATOM     23 CL   UNL     1       7.647   7.070  17.188  0.00  0.00    +0.000 Cl
ATOM     24  C   UNL     1       6.299   4.760  16.846  0.00  0.00    +0.000 A 
ATOM     25  C   UNL     1       5.144   3.978  16.852  0.00  0.00    +0.000 A 
ATOM     26  C   UNL     1       3.925   4.540  17.237  0.00  0.00    +0.000 A 
ATOM     27 CL   UNL     1       2.517   3.540  17.196  0.00  0.00    +0.000 Cl
ENDBRANCH  19  20
ENDBRANCH  12  19
TORSDOF 5
ENDMDL
MODEL 2
REMARK VINA RESULT:      -7.4      1.618      1.889
REMARK  Name = 
REMARK  7 active torsions:
REMARK  status: ('A' for Active; 'I' for Inactive)
REMARK    1  A    between atoms: C_1  and  C_2
REMARK    2  A    between atoms: C_2  and  O_3
REMARK    3  A    between atoms: O_3  and  C_4
REMARK    4  A    between atoms: C_10  and  C_11
REMARK    5  A    between atoms: C_16  and  C_17
REMARK    6  A    between atoms: C_18  and  O_19
REMARK    7  A    between atoms: O_19  and  C_20
REMARK                            x       y       z     vdW  Elec       q    Type
REMARK                         _______ _______ _______ _____ _____    ______ ____
ROOT
ATOM      1  C   UNL     1       2.253   5.529  20.192  0.00  0.00    +0.000 A 
ATOM      2  N   UNL     1       1.715   6.622  20.733  0.00  0.00    +0.000 NA
ATOM      3  N   UNL     1       1.902   7.597  19.792  0.00  0.00    +0.000 N 
ATOM      4  C   UNL     1       1.198   8.844  19.902  0.00  0.00    +0.000 A 
ATOM      5  C   UNL     1       0.454   9.101  21.053  0.00  0.00    +0.000 A 
ATOM      6  C   UNL     1      -0.336  10.254  21.103  0.00  0.00    +0.000 A 
ATOM      7  C   UNL     1      -0.391  11.132  20.017  0.00  0.00    +0.000 A 
ATOM      8  C   UNL     1       0.430  10.807  18.939  0.00  0.00    +0.000 A 
ATOM      9  N   UNL     1       1.210   9.703  18.855  0.00  0.00    +0.000 NA
ATOM     10  C   UNL     1       2.734   7.157  18.768  0.00  0.00    +0.000 A 
ATOM     11  C   UNL     1       3.263   7.970  17.642  0.00  0.00    +0.000 C 
ATOM     12  C   UNL     1       2.936   5.813  19.001  0.00  0.00    +0.000 A 
ENDROOT
BRANCH   7  13
ATOM     13  C   UNL     1      -1.276  12.352  20.008  0.00  0.00    +0.000 C 
ATOM     14  C   UNL     1      -2.726  12.222  19.594  0.00  0.00    +0.000 C 
ATOM     15  C   UNL     1      -2.385  12.486  21.029  0.00  0.00    +0.000 C 
ENDBRANCH   7  13
BRANCH   1  16
ATOM     16  O   UNL     1       2.128   4.331  20.810  0.00  0.00    +0.000 OA
BRANCH  16  18
ATOM     17  C   UNL     1       1.221   2.587  19.431  0.00  0.00    +0.000 C 
ATOM     18  C   UNL     1       0.918   3.643  20.477  0.00  0.00    +0.000 C 
ENDBRANCH  16  18
ENDBRANCH   1  16
BRANCH  12  19
ATOM     19  O   UNL     1       3.581   5.041  18.103  0.00  0.00    +0.000 OA
BRANCH  19  20
ATOM     20  C   UNL     1       4.941   4.889  18.039  0.00  0.00    +0.000 A 
ATOM     21  C   UNL     1       5.797   5.225  19.094  0.00  0.00    +0.000 A 
ATOM     22  C   UNL     1       7.177   5.153  18.915  0.00  0.00    +0.000 A 
ATOM     23 CL   UNL     1       8.222   5.574  20.214  0.00  0.00    +0.000 Cl
ATOM     24  C   UNL     1       7.719   4.762  17.693  0.00  0.00    +0.000 A 
ATOM     25  C   UNL     1       6.872   4.441  16.632  0.00  0.00    +0.000 A 
ATOM     26  C   UNL     1       5.487   4.506  16.802  0.00  0.00    +0.000 A 
ATOM     27 CL   UNL     1       4.480   4.130  15.449  0.00  0.00    +0.000 Cl
ENDBRANCH  19  20
ENDBRANCH  12  19
TORSDOF 5
ENDMDL
MODEL 3
REMARK VINA RESULT:      -7.3      0.851      2.089
REMARK  Name = 
REMARK  7 active torsions:
REMARK  status: ('A' for Active; 'I' for Inactive)
REMARK    1  A    between atoms: C_1  and  C_2
REMARK    2  A    between atoms: C_2  and  O_3
REMARK    3  A    between atoms: O_3  and  C_4
REMARK    4  A    between atoms: C_10  and  C_11
REMARK    5  A    between atoms: C_16  and  C_17
REMARK    6  A    between atoms: C_18  and  O_19
REMARK    7  A    between atoms: O_19  and  C_20
REMARK                            x       y       z     vdW  Elec       q    Type
REMARK                         _______ _______ _______ _____ _____    ______ ____
ROOT
ATOM      1  C   UNL     1       2.006   6.831  20.244  0.00  0.00    +0.000 A 
ATOM      2  N   UNL     1       1.529   7.692  21.144  0.00  0.00    +0.000 NA
ATOM      3  N   UNL     1       1.251   8.821  20.423  0.00  0.00    +0.000 N 
ATOM      4  C   UNL     1       0.455   9.865  21.006  0.00  0.00    +0.000 A 
ATOM      5  C   UNL     1       0.109   9.780  22.353  0.00  0.00    +0.000 A 
ATOM      6  C   UNL     1      -0.773  10.725  22.885  0.00  0.00    +0.000 A 
ATOM      7  C   UNL     1      -1.313  11.734  22.081  0.00  0.00    +0.000 A 
ATOM      8  C   UNL     1      -0.860  11.758  20.763  0.00  0.00    +0.000 A 
ATOM      9  N   UNL     1      -0.006  10.863  20.213  0.00  0.00    +0.000 NA
ATOM     10  C   UNL     1       1.747   8.727  19.127  0.00  0.00    +0.000 A 
ATOM     11  C   UNL     1       1.749   9.798  18.098  0.00  0.00    +0.000 C 
ATOM     12  C   UNL     1       2.204   7.433  18.994  0.00  0.00    +0.000 A 
ENDROOT
BRANCH   7  13
ATOM     13  C   UNL     1      -2.313  12.733  22.601  0.00  0.00    +0.000 C 
ATOM     14  C   UNL     1      -3.783  12.552  22.290  0.00  0.00    +0.000 C 
ATOM     15  C   UNL     1      -3.287  12.330  23.686  0.00  0.00    +0.000 C 
ENDBRANCH   7  13
BRANCH   1  16
ATOM     16  O   UNL     1       2.265   5.551  20.599  0.00  0.00    +0.000 OA
BRANCH  16  18
ATOM     17  C   UNL     1       1.492   3.327  21.077  0.00  0.00    +0.000 C 
ATOM     18  C   UNL     1       1.105   4.713  20.594  0.00  0.00    +0.000 C 
ENDBRANCH  16  18
ENDBRANCH   1  16
BRANCH  12  19
ATOM     19  O   UNL     1       2.615   6.960  17.800  0.00  0.00    +0.000 OA
BRANCH  19  20
ATOM     20  C   UNL     1       3.213   5.742  17.607  0.00  0.00    +0.000 A 
ATOM     21  C   UNL     1       2.516   4.531  17.672  0.00  0.00    +0.000 A 
ATOM     22  C   UNL     1       3.210   3.327  17.580  0.00  0.00    +0.000 A 
ATOM     23 CL   UNL     1       2.347   1.842  17.668  0.00  0.00    +0.000 Cl
ATOM     24  C   UNL     1       4.596   3.311  17.438  0.00  0.00    +0.000 A 
ATOM     25  C   UNL     1       5.300   4.514  17.388  0.00  0.00    +0.000 A 
ATOM     26  C   UNL     1       4.612   5.727  17.475  0.00  0.00    +0.000 A 
ATOM     27 CL   UNL     1       5.530   7.190  17.442  0.00  0.00    +0.000 Cl
ENDBRANCH  19  20
ENDBRANCH  12  19
TORSDOF 5
ENDMDL
MODEL 4
REMARK VINA RESULT:      -7.2      1.559      1.801
REMARK  Name = 
REMARK  7 active torsions:
REMARK  status: ('A' for Active; 'I' for Inactive)
REMARK    1  A    between atoms: C_1  and  C_2
REMARK    2  A    between atoms: C_2  and  O_3
REMARK    3  A    between atoms: O_3  and  C_4
REMARK    4  A    between atoms: C_10  and  C_11
REMARK    5  A    between atoms: C_16  and  C_17
REMARK    6  A    between atoms: C_18  and  O_19
REMARK    7  A    between atoms: O_19  and  C_20
REMARK                            x       y       z     vdW  Elec       q    Type
REMARK                         _______ _______ _______ _____ _____    ______ ____
ROOT
ATOM      1  C   UNL     1       2.391   5.306  19.782  0.00  0.00    +0.000 A 
ATOM      2  N   UNL     1       1.828   6.222  20.572  0.00  0.00    +0.000 NA
ATOM      3  N   UNL     1       1.929   7.390  19.866  0.00  0.00    +0.000 N 
ATOM      4  C   UNL     1       1.176   8.542  20.276  0.00  0.00    +0.000 A 
ATOM      5  C   UNL     1       0.473   8.497  21.480  0.00  0.00    +0.000 A 
ATOM      6  C   UNL     1      -0.364   9.566  21.812  0.00  0.00    +0.000 A 
ATOM      7  C   UNL     1      -0.508  10.659  20.953  0.00  0.00    +0.000 A 
ATOM      8  C   UNL     1       0.278  10.625  19.803  0.00  0.00    +0.000 A 
ATOM      9  N   UNL     1       1.101   9.611  19.447  0.00  0.00    +0.000 NA
ATOM     10  C   UNL     1       2.733   7.232  18.742  0.00  0.00    +0.000 A 
ATOM     11  C   UNL     1       3.173   8.302  17.809  0.00  0.00    +0.000 C 
ATOM     12  C   UNL     1       3.005   5.883  18.662  0.00  0.00    +0.000 A 
ENDROOT
BRANCH   7  13
ATOM     13  C   UNL     1      -1.446  11.801  21.247  0.00  0.00    +0.000 C 
ATOM     14  C   UNL     1      -1.055  12.848  22.266  0.00  0.00    +0.000 C 
ATOM     15  C   UNL     1      -1.086  13.203  20.811  0.00  0.00    +0.000 C 
ENDBRANCH   7  13
BRANCH   1  16
ATOM     16  O   UNL     1       2.347   3.997  20.121  0.00  0.00    +0.000 OA
BRANCH  16  18
ATOM     17  C   UNL     1       1.450   2.483  21.756  0.00  0.00    +0.000 C 
ATOM     18  C   UNL     1       2.207   3.778  21.528  0.00  0.00    +0.000 C 
ENDBRANCH  16  18
ENDBRANCH   1  16
BRANCH  12  19
ATOM     19  O   UNL     1       3.643   5.365  17.593  0.00  0.00    +0.000 OA
BRANCH  19  20
ATOM     20  C   UNL     1       4.980   5.066  17.551  0.00  0.00    +0.000 A 
ATOM     21  C   UNL     1       5.859   5.353  18.601  0.00  0.00    +0.000 A 
ATOM     22  C   UNL     1       7.224   5.128  18.441  0.00  0.00    +0.000 A 
ATOM     23 CL   UNL     1       8.300   5.489  19.734  0.00  0.00    +0.000 Cl
ATOM     24  C   UNL     1       7.730   4.632  17.242  0.00  0.00    +0.000 A 
ATOM     25  C   UNL     1       6.862   4.358  16.185  0.00  0.00    +0.000 A 
ATOM     26  C   UNL     1       5.491   4.577  16.337  0.00  0.00    +0.000 A 
ATOM     27 CL   UNL     1       4.459   4.254  14.989  0.00  0.00    +0.000 Cl
ENDBRANCH  19  20
ENDBRANCH  12  19
TORSDOF 5
ENDMDL
MODEL 5
REMARK VINA RESULT:      -7.2      3.429      8.454
REMARK  Name = 
REMARK  7 active torsions:
REMARK  status: ('A' for Active; 'I' for Inactive)
REMARK    1  A    between atoms: C_1  and  C_2
REMARK    2  A    between atoms: C_2  and  O_3
REMARK    3  A    between atoms: O_3  and  C_4
REMARK    4  A    between atoms: C_10  and  C_11
REMARK    5  A    between atoms: C_16  and  C_17
REMARK    6  A    between atoms: C_18  and  O_19
REMARK    7  A    between atoms: O_19  and  C_20
REMARK                            x       y       z     vdW  Elec       q    Type
REMARK                         _______ _______ _______ _____ _____    ______ ____
ROOT
ATOM      1  C   UNL     1       1.191   8.205  20.808  0.00  0.00    +0.000 A 
ATOM      2  N   UNL     1       1.782   7.121  20.304  0.00  0.00    +0.000 NA
ATOM      3  N   UNL     1       2.289   7.536  19.103  0.00  0.00    +0.000 N 
ATOM      4  C   UNL     1       3.239   6.715  18.405  0.00  0.00    +0.000 A 
ATOM      5  C   UNL     1       3.510   5.435  18.887  0.00  0.00    +0.000 A 
ATOM      6  C   UNL     1       4.529   4.690  18.286  0.00  0.00    +0.000 A 
ATOM      7  C   UNL     1       5.275   5.216  17.227  0.00  0.00    +0.000 A 
ATOM      8  C   UNL     1       4.886   6.482  16.792  0.00  0.00    +0.000 A 
ATOM      9  N   UNL     1       3.905   7.233  17.345  0.00  0.00    +0.000 NA
ATOM     10  C   UNL     1       1.835   8.809  18.776  0.00  0.00    +0.000 A 
ATOM     11  C   UNL     1       2.069   9.534  17.501  0.00  0.00    +0.000 C 
ATOM     12  C   UNL     1       1.155   9.261  19.887  0.00  0.00    +0.000 A 
ENDROOT
BRANCH   7  13
ATOM     13  C   UNL     1       6.420   4.470  16.595  0.00  0.00    +0.000 C 
ATOM     14  C   UNL     1       6.193   3.696  15.314  0.00  0.00    +0.000 C 
ATOM     15  C   UNL     1       7.005   4.955  15.287  0.00  0.00    +0.000 C 
ENDBRANCH   7  13
BRANCH   1  16
ATOM     16  O   UNL     1       0.689   8.183  22.065  0.00  0.00    +0.000 OA
BRANCH  16  18
ATOM     17  C   UNL     1      -0.524   9.880  23.257  0.00  0.00    +0.000 C 
ATOM     18  C   UNL     1       0.836   9.427  22.758  0.00  0.00    +0.000 C 
ENDBRANCH  16  18
ENDBRANCH   1  16
BRANCH  12  19
ATOM     19  O   UNL     1       0.712  10.532  19.962  0.00  0.00    +0.000 OA
BRANCH  19  20
ATOM     20  C   UNL     1      -0.564  10.933  19.662  0.00  0.00    +0.000 A 
ATOM     21  C   UNL     1      -1.344  10.319  18.676  0.00  0.00    +0.000 A 
ATOM     22  C   UNL     1      -2.587  10.854  18.346  0.00  0.00    +0.000 A 
ATOM     23 CL   UNL     1      -3.538  10.098  17.128  0.00  0.00    +0.000 Cl
ATOM     24  C   UNL     1      -3.061  12.002  18.976  0.00  0.00    +0.000 A 
ATOM     25  C   UNL     1      -2.282  12.628  19.949  0.00  0.00    +0.000 A 
ATOM     26  C   UNL     1      -1.035  12.098  20.290  0.00  0.00    +0.000 A 
ATOM     27 CL   UNL     1      -0.093  12.927  21.477  0.00  0.00    +0.000 Cl
ENDBRANCH  19  20
ENDBRANCH  12  19
TORSDOF 5
ENDMDL
MODEL 6
REMARK VINA RESULT:      -7.1      2.127      2.850
REMARK  Name = 
REMARK  7 active torsions:
REMARK  status: ('A' for Active; 'I' for Inactive)
REMARK    1  A    between atoms: C_1  and  C_2
REMARK    2  A    between atoms: C_2  and  O_3
REMARK    3  A    between atoms: O_3  and  C_4
REMARK    4  A    between atoms: C_10  and  C_11
REMARK    5  A    between atoms: C_16  and  C_17
REMARK    6  A    between atoms: C_18  and  O_19
REMARK    7  A    between atoms: O_19  and  C_20
REMARK                            x       y       z     vdW  Elec       q    Type
REMARK                         _______ _______ _______ _____ _____    ______ ____
ROOT
ATOM      1  C   UNL     1       2.713   5.006  20.259  0.00  0.00    +0.000 A 
ATOM      2  N   UNL     1       2.221   6.195  20.610  0.00  0.00    +0.000 NA
ATOM      3  N   UNL     1       2.429   6.988  19.514  0.00  0.00    +0.000 N 
ATOM      4  C   UNL     1       1.771   8.261  19.415  0.00  0.00    +0.000 A 
ATOM      5  C   UNL     1       1.053   8.738  20.512  0.00  0.00    +0.000 A 
ATOM      6  C   UNL     1       0.306   9.911  20.370  0.00  0.00    +0.000 A 
ATOM      7  C   UNL     1       0.264  10.593  19.151  0.00  0.00    +0.000 A 
ATOM      8  C   UNL     1       1.058  10.058  18.138  0.00  0.00    +0.000 A 
ATOM      9  N   UNL     1       1.797   8.927  18.236  0.00  0.00    +0.000 NA
ATOM     10  C   UNL     1       3.229   6.349  18.573  0.00  0.00    +0.000 A 
ATOM     11  C   UNL     1       3.769   6.938  17.320  0.00  0.00    +0.000 C 
ATOM     12  C   UNL     1       3.387   5.058  19.031  0.00  0.00    +0.000 A 
ENDROOT
BRANCH   7  13
ATOM     13  C   UNL     1      -0.577  11.824  18.941  0.00  0.00    +0.000 C 
ATOM     14  C   UNL     1      -2.019  11.681  18.503  0.00  0.00    +0.000 C 
ATOM     15  C   UNL     1      -1.708  12.136  19.897  0.00  0.00    +0.000 C 
ENDBRANCH   7  13
BRANCH   1  16
ATOM     16  O   UNL     1       2.555   3.938  21.074  0.00  0.00    +0.000 OA
BRANCH  16  18
ATOM     17  C   UNL     1       1.229   2.403  19.788  0.00  0.00    +0.000 C 
ATOM     18  C   UNL     1       1.259   3.339  20.981  0.00  0.00    +0.000 C 
ENDBRANCH  16  18
ENDBRANCH   1  16
BRANCH  12  19
ATOM     19  O   UNL     1       3.991   4.121  18.273  0.00  0.00    +0.000 OA
BRANCH  19  20
ATOM     20  C   UNL     1       4.991   4.372  17.370  0.00  0.00    +0.000 A 
ATOM     21  C   UNL     1       4.882   4.072  16.008  0.00  0.00    +0.000 A 
ATOM     22  C   UNL     1       5.981   4.248  15.170  0.00  0.00    +0.000 A 
ATOM     23 CL   UNL     1       5.842   3.869  13.498  0.00  0.00    +0.000 Cl
ATOM     24  C   UNL     1       7.196   4.708  15.674  0.00  0.00    +0.000 A 
ATOM     25  C   UNL     1       7.317   4.995  17.033  0.00  0.00    +0.000 A 
ATOM     26  C   UNL     1       6.219   4.825  17.881  0.00  0.00    +0.000 A 
ATOM     27 CL   UNL     1       6.427   5.163  19.562  0.00  0.00    +0.000 Cl
ENDBRANCH  19  20
ENDBRANCH  12  19
TORSDOF 5
ENDMDL
MODEL 7
REMARK VINA RESULT:      -7.0      2.050      2.685
REMARK  Name = 
REMARK  7 active torsions:
REMARK  status: ('A' for Active; 'I' for Inactive)
REMARK    1  A    between atoms: C_1  and  C_2
REMARK    2  A    between atoms: C_2  and  O_3
REMARK    3  A    between atoms: O_3  and  C_4
REMARK    4  A    between atoms: C_10  and  C_11
REMARK    5  A    between atoms: C_16  and  C_17
REMARK    6  A    between atoms: C_18  and  O_19
REMARK    7  A    between atoms: O_19  and  C_20
REMARK                            x       y       z     vdW  Elec       q    Type
REMARK                         _______ _______ _______ _____ _____    ______ ____
ROOT
ATOM      1  C   UNL     1       2.689   4.654  20.000  0.00  0.00    +0.000 A 
ATOM      2  N   UNL     1       2.283   5.754  20.634  0.00  0.00    +0.000 NA
ATOM      3  N   UNL     1       2.374   6.744  19.693  0.00  0.00    +0.000 N 
ATOM      4  C   UNL     1       1.749   8.016  19.928  0.00  0.00    +0.000 A 
ATOM      5  C   UNL     1       1.192   8.274  21.180  0.00  0.00    +0.000 A 
ATOM      6  C   UNL     1       0.470   9.457  21.366  0.00  0.00    +0.000 A 
ATOM      7  C   UNL     1       0.295  10.363  20.316  0.00  0.00    +0.000 A 
ATOM      8  C   UNL     1       0.937  10.031  19.124  0.00  0.00    +0.000 A 
ATOM      9  N   UNL     1       1.646   8.899  18.906  0.00  0.00    +0.000 NA
ATOM     10  C   UNL     1       3.029   6.295  18.551  0.00  0.00    +0.000 A 
ATOM     11  C   UNL     1       3.423   7.114  17.375  0.00  0.00    +0.000 C 
ATOM     12  C   UNL     1       3.203   4.939  18.728  0.00  0.00    +0.000 A 
ENDROOT
BRANCH   7  13
ATOM     13  C   UNL     1      -0.527  11.617  20.459  0.00  0.00    +0.000 C 
ATOM     14  C   UNL     1       0.028  12.793  21.232  0.00  0.00    +0.000 C 
ATOM     15  C   UNL     1      -0.106  12.881  19.742  0.00  0.00    +0.000 C 
ENDBRANCH   7  13
BRANCH   1  16
ATOM     16  O   UNL     1       2.602   3.448  20.608  0.00  0.00    +0.000 OA
BRANCH  16  18
ATOM     17  C   UNL     1       0.734   2.606  19.355  0.00  0.00    +0.000 C 
ATOM     18  C   UNL     1       1.260   2.968  20.731  0.00  0.00    +0.000 C 
ENDBRANCH  16  18
ENDBRANCH   1  16
BRANCH  12  19
ATOM     19  O   UNL     1       3.676   4.164  17.731  0.00  0.00    +0.000 OA
BRANCH  19  20
ATOM     20  C   UNL     1       4.857   4.378  17.069  0.00  0.00    +0.000 A 
ATOM     21  C   UNL     1       4.998   4.210  15.688  0.00  0.00    +0.000 A 
ATOM     22  C   UNL     1       6.256   4.332  15.101  0.00  0.00    +0.000 A 
ATOM     23 CL   UNL     1       6.423   4.117  13.402  0.00  0.00    +0.000 Cl
ATOM     24  C   UNL     1       7.381   4.606  15.875  0.00  0.00    +0.000 A 
ATOM     25  C   UNL     1       7.251   4.760  17.255  0.00  0.00    +0.000 A 
ATOM     26  C   UNL     1       5.994   4.643  17.852  0.00  0.00    +0.000 A 
ATOM     27 CL   UNL     1       5.888   4.808  19.569  0.00  0.00    +0.000 Cl
ENDBRANCH  19  20
ENDBRANCH  12  19
TORSDOF 5
ENDMDL
MODEL 8
REMARK VINA RESULT:      -7.0      3.730      8.330
REMARK  Name = 
REMARK  7 active torsions:
REMARK  status: ('A' for Active; 'I' for Inactive)
REMARK    1  A    between atoms: C_1  and  C_2
REMARK    2  A    between atoms: C_2  and  O_3
REMARK    3  A    between atoms: O_3  and  C_4
REMARK    4  A    between atoms: C_10  and  C_11
REMARK    5  A    between atoms: C_16  and  C_17
REMARK    6  A    between atoms: C_18  and  O_19
REMARK    7  A    between atoms: O_19  and  C_20
REMARK                            x       y       z     vdW  Elec       q    Type
REMARK                         _______ _______ _______ _____ _____    ______ ____
ROOT
ATOM      1  C   UNL     1       0.925   9.713  21.409  0.00  0.00    +0.000 A 
ATOM      2  N   UNL     1       1.045   8.385  21.380  0.00  0.00    +0.000 NA
ATOM      3  N   UNL     1       1.458   8.107  20.105  0.00  0.00    +0.000 N 
ATOM      4  C   UNL     1       1.966   6.802  19.786  0.00  0.00    +0.000 A 
ATOM      5  C   UNL     1       1.885   5.792  20.743  0.00  0.00    +0.000 A 
ATOM      6  C   UNL     1       2.498   4.563  20.481  0.00  0.00    +0.000 A 
ATOM      7  C   UNL     1       3.192   4.348  19.286  0.00  0.00    +0.000 A 
ATOM      8  C   UNL     1       3.167   5.406  18.379  0.00  0.00    +0.000 A 
ATOM      9  N   UNL     1       2.583   6.608  18.595  0.00  0.00    +0.000 NA
ATOM     10  C   UNL     1       1.391   9.236  19.296  0.00  0.00    +0.000 A 
ATOM     11  C   UNL     1       1.637   9.293  17.832  0.00  0.00    +0.000 C 
ATOM     12  C   UNL     1       1.083  10.283  20.138  0.00  0.00    +0.000 A 
ENDROOT
BRANCH   7  13
ATOM     13  C   UNL     1       3.917   3.060  18.993  0.00  0.00    +0.000 C 
ATOM     14  C   UNL     1       3.127   1.821  18.633  0.00  0.00    +0.000 C 
ATOM     15  C   UNL     1       3.941   2.514  17.583  0.00  0.00    +0.000 C 
ENDBRANCH   7  13
BRANCH   1  16
ATOM     16  O   UNL     1       0.653  10.346  22.574  0.00  0.00    +0.000 OA
BRANCH  16  18
ATOM     17  C   UNL     1      -1.511  11.194  23.177  0.00  0.00    +0.000 C 
ATOM     18  C   UNL     1      -0.607   9.976  23.141  0.00  0.00    +0.000 C 
ENDBRANCH  16  18
ENDBRANCH   1  16
BRANCH  12  19
ATOM     19  O   UNL     1       1.091  11.556  19.696  0.00  0.00    +0.000 OA
BRANCH  19  20
ATOM     20  C   UNL     1       0.247  12.542  20.138  0.00  0.00    +0.000 A 
ATOM     21  C   UNL     1       0.616  13.487  21.100  0.00  0.00    +0.000 A 
ATOM     22  C   UNL     1      -0.331  14.386  21.586  0.00  0.00    +0.000 A 
ATOM     23 CL   UNL     1       0.129  15.542  22.774  0.00  0.00    +0.000 Cl
ATOM     24  C   UNL     1      -1.648  14.349  21.134  0.00  0.00    +0.000 A 
ATOM     25  C   UNL     1      -2.028  13.399  20.186  0.00  0.00    +0.000 A 
ATOM     26  C   UNL     1      -1.085  12.495  19.691  0.00  0.00    +0.000 A 
ATOM     27 CL   UNL     1      -1.610  11.316  18.542  0.00  0.00    +0.000 Cl
ENDBRANCH  19  20
ENDBRANCH  12  19
TORSDOF 5
ENDMDL
MODEL 9
REMARK VINA RESULT:      -6.9      3.654      8.546
REMARK  Name = 
REMARK  7 active torsions:
REMARK  status: ('A' for Active; 'I' for Inactive)
REMARK    1  A    between atoms: C_1  and  C_2
REMARK    2  A    between atoms: C_2  and  O_3
REMARK    3  A    between atoms: O_3  and  C_4
REMARK    4  A    between atoms: C_10  and  C_11
REMARK    5  A    between atoms: C_16  and  C_17
REMARK    6  A    between atoms: C_18  and  O_19
REMARK    7  A    between atoms: O_19  and  C_20
REMARK                            x       y       z     vdW  Elec       q    Type
REMARK                         _______ _______ _______ _____ _____    ______ ____
ROOT
ATOM      1  C   UNL     1       0.933   9.585  21.500  0.00  0.00    +0.000 A 
ATOM      2  N   UNL     1       1.123   8.268  21.419  0.00  0.00    +0.000 NA
ATOM      3  N   UNL     1       1.482   8.054  20.116  0.00  0.00    +0.000 N 
ATOM      4  C   UNL     1       2.043   6.791  19.725  0.00  0.00    +0.000 A 
ATOM      5  C   UNL     1       2.069   5.748  20.649  0.00  0.00    +0.000 A 
ATOM      6  C   UNL     1       2.734   4.565  20.312  0.00  0.00    +0.000 A 
ATOM      7  C   UNL     1       3.373   4.428  19.077  0.00  0.00    +0.000 A 
ATOM      8  C   UNL     1       3.242   5.511  18.210  0.00  0.00    +0.000 A 
ATOM      9  N   UNL     1       2.605   6.671  18.498  0.00  0.00    +0.000 NA
ATOM     10  C   UNL     1       1.310   9.203  19.351  0.00  0.00    +0.000 A 
ATOM     11  C   UNL     1       1.474   9.322  17.879  0.00  0.00    +0.000 C 
ATOM     12  C   UNL     1       0.990  10.203  20.244  0.00  0.00    +0.000 A 
ENDROOT
BRANCH   7  13
ATOM     13  C   UNL     1       4.151   3.194  18.701  0.00  0.00    +0.000 C 
ATOM     14  C   UNL     1       3.414   1.908  18.393  0.00  0.00    +0.000 C 
ATOM     15  C   UNL     1       4.086   2.663  17.286  0.00  0.00    +0.000 C 
ENDBRANCH   7  13
BRANCH   1  16
ATOM     16  O   UNL     1       0.689  10.164  22.699  0.00  0.00    +0.000 OA
BRANCH  16  18
ATOM     17  C   UNL     1      -1.446  11.123  23.240  0.00  0.00    +0.000 C 
ATOM     18  C   UNL     1      -0.607   9.859  23.225  0.00  0.00    +0.000 C 
ENDBRANCH  16  18
ENDBRANCH   1  16
BRANCH  12  19
ATOM     19  O   UNL     1       0.905  11.489  19.847  0.00  0.00    +0.000 OA
BRANCH  19  20
ATOM     20  C   UNL     1      -0.123  12.338  20.166  0.00  0.00    +0.000 A 
ATOM     21  C   UNL     1      -1.462  12.053  19.883  0.00  0.00    +0.000 A 
ATOM     22  C   UNL     1      -2.441  13.014  20.130  0.00  0.00    +0.000 A 
ATOM     23 CL   UNL     1      -4.086  12.659  19.773  0.00  0.00    +0.000 Cl
ATOM     24  C   UNL     1      -2.101  14.263  20.645  0.00  0.00    +0.000 A 
ATOM     25  C   UNL     1      -0.766  14.560  20.915  0.00  0.00    +0.000 A 
ATOM     26  C   UNL     1       0.222  13.602  20.674  0.00  0.00    +0.000 A 
ATOM     27 CL   UNL     1       1.866  14.028  20.993  0.00  0.00    +0.000 Cl
ENDBRANCH  19  20
ENDBRANCH  12  19
TORSDOF 5
ENDMDL
