MODEL 1
REMARK VINA RESULT:      -5.6      0.000      0.000
REMARK  Name = 
REMARK  6 active torsions:
REMARK  status: ('A' for Active; 'I' for Inactive)
REMARK    1  A    between atoms: C_1  and  S_2
REMARK    2  A    between atoms: S_2  and  S_3
REMARK    3  A    between atoms: S_3  and  C_4
REMARK    4  A    between atoms: C_4  and  C_5
REMARK    5  A    between atoms: C_5  and  C_6
REMARK    6  A    between atoms: C_9  and  N_10
REMARK                            x       y       z     vdW  Elec       q    Type
REMARK                         _______ _______ _______ _____ _____    ______ ____
ROOT
ATOM      1  C   UNL     1       3.653   5.522  17.538  0.00  0.00    +0.000 A 
ATOM      2  C   UNL     1       4.371   6.579  16.956  0.00  0.00    +0.000 A 
ATOM      3  C   UNL     1       5.359   6.329  16.001  0.00  0.00    +0.000 A 
ATOM      4  C   UNL     1       5.641   5.008  15.634  0.00  0.00    +0.000 A 
ATOM      5  C   UNL     1       4.940   3.942  16.211  0.00  0.00    +0.000 A 
ATOM      6  C   UNL     1       3.948   4.204  17.160  0.00  0.00    +0.000 A 
ENDROOT
BRANCH   4   7
ATOM      7  N   UNL     1       6.682   4.740  14.636  0.00  0.00    +0.000 N 
ATOM      8  O   UNL     1       6.456   3.868  13.785  0.00  0.00    +0.000 OA
ATOM      9  O   UNL     1       7.729   5.399  14.701  0.00  0.00    +0.000 OA
ENDBRANCH   4   7
BRANCH   1  10
ATOM     10  C   UNL     1       2.566   5.800  18.555  0.00  0.00    +0.000 C 
BRANCH  10  11
ATOM     11  C   UNL     1       3.015   5.407  19.961  0.00  0.00    +0.000 C 
BRANCH  11  12
ATOM     12  S   UNL     1       1.743   4.417  20.802  0.00  0.00    +0.000 S 
BRANCH  12  14
ATOM     13  C   UNL     1       0.837   2.430  18.741  0.00  0.00    +0.000 C 
ATOM     14  S   UNL     1       2.113   2.549  20.019  0.00  0.00    +0.000 S 
ENDBRANCH  12  14
ENDBRANCH  11  12
ENDBRANCH  10  11
ENDBRANCH   1  10
TORSDOF 5
ENDMDL
MODEL 2
REMARK VINA RESULT:      -5.5      1.769      2.412
REMARK  Name = 
REMARK  6 active torsions:
REMARK  status: ('A' for Active; 'I' for Inactive)
REMARK    1  A    between atoms: C_1  and  S_2
REMARK    2  A    between atoms: S_2  and  S_3
REMARK    3  A    between atoms: S_3  and  C_4
REMARK    4  A    between atoms: C_4  and  C_5
REMARK    5  A    between atoms: C_5  and  C_6
REMARK    6  A    between atoms: C_9  and  N_10
REMARK                            x       y       z     vdW  Elec       q    Type
REMARK                         _______ _______ _______ _____ _____    ______ ____
ROOT
ATOM      1  C   UNL     1       3.062   4.661  17.502  0.00  0.00    +0.000 A 
ATOM      2  C   UNL     1       3.808   3.688  16.819  0.00  0.00    +0.000 A 
ATOM      3  C   UNL     1       5.174   3.867  16.592  0.00  0.00    +0.000 A 
ATOM      4  C   UNL     1       5.798   5.036  17.040  0.00  0.00    +0.000 A 
ATOM      5  C   UNL     1       5.067   6.021  17.716  0.00  0.00    +0.000 A 
ATOM      6  C   UNL     1       3.701   5.829  17.945  0.00  0.00    +0.000 A 
ENDROOT
BRANCH   4   7
ATOM      7  N   UNL     1       7.232   5.231  16.799  0.00  0.00    +0.000 N 
ATOM      8  O   UNL     1       8.013   4.372  17.235  0.00  0.00    +0.000 OA
ATOM      9  O   UNL     1       7.582   6.242  16.176  0.00  0.00    +0.000 OA
ENDBRANCH   4   7
BRANCH   1  10
ATOM     10  C   UNL     1       1.586   4.452  17.766  0.00  0.00    +0.000 C 
BRANCH  10  11
ATOM     11  C   UNL     1       1.318   4.246  19.256  0.00  0.00    +0.000 C 
BRANCH  11  12
ATOM     12  S   UNL     1       1.567   2.508  19.731  0.00  0.00    +0.000 S 
BRANCH  12  14
ATOM     13  C   UNL     1       4.524   2.124  20.084  0.00  0.00    +0.000 C 
ATOM     14  S   UNL     1       3.117   2.683  21.075  0.00  0.00    +0.000 S 
ENDBRANCH  12  14
ENDBRANCH  11  12
ENDBRANCH  10  11
ENDBRANCH   1  10
TORSDOF 5
ENDMDL
MODEL 3
REMARK VINA RESULT:      -5.5      1.733      2.169
REMARK  Name = 
REMARK  6 active torsions:
REMARK  status: ('A' for Active; 'I' for Inactive)
REMARK    1  A    between atoms: C_1  and  S_2
REMARK    2  A    between atoms: S_2  and  S_3
REMARK    3  A    between atoms: S_3  and  C_4
REMARK    4  A    between atoms: C_4  and  C_5
REMARK    5  A    between atoms: C_5  and  C_6
REMARK    6  A    between atoms: C_9  and  N_10
REMARK                            x       y       z     vdW  Elec       q    Type
REMARK                         _______ _______ _______ _____ _____    ______ ____
ROOT
ATOM      1  C   UNL     1       3.804   5.930  18.786  0.00  0.00    +0.000 A 
ATOM      2  C   UNL     1       4.798   5.089  19.310  0.00  0.00    +0.000 A 
ATOM      3  C   UNL     1       5.944   4.792  18.569  0.00  0.00    +0.000 A 
ATOM      4  C   UNL     1       6.091   5.330  17.286  0.00  0.00    +0.000 A 
ATOM      5  C   UNL     1       5.106   6.165  16.745  0.00  0.00    +0.000 A 
ATOM      6  C   UNL     1       3.967   6.462  17.497  0.00  0.00    +0.000 A 
ENDROOT
BRANCH   4   7
ATOM      7  N   UNL     1       7.291   5.016  16.502  0.00  0.00    +0.000 N 
ATOM      8  O   UNL     1       7.417   5.559  15.395  0.00  0.00    +0.000 OA
ATOM      9  O   UNL     1       8.109   4.224  16.990  0.00  0.00    +0.000 OA
ENDBRANCH   4   7
BRANCH   1  10
ATOM     10  C   UNL     1       2.575   6.269  19.602  0.00  0.00    +0.000 C 
BRANCH  10  11
ATOM     11  C   UNL     1       1.836   5.004  20.035  0.00  0.00    +0.000 C 
BRANCH  11  12
ATOM     12  S   UNL     1       1.426   3.963  18.602  0.00  0.00    +0.000 S 
BRANCH  12  14
ATOM     13  C   UNL     1       3.436   1.779  18.150  0.00  0.00    +0.000 C 
ATOM     14  S   UNL     1       2.049   2.115  19.263  0.00  0.00    +0.000 S 
ENDBRANCH  12  14
ENDBRANCH  11  12
ENDBRANCH  10  11
ENDBRANCH   1  10
TORSDOF 5
ENDMDL
MODEL 4
REMARK VINA RESULT:      -5.5      1.790      2.208
REMARK  Name = 
REMARK  6 active torsions:
REMARK  status: ('A' for Active; 'I' for Inactive)
REMARK    1  A    between atoms: C_1  and  S_2
REMARK    2  A    between atoms: S_2  and  S_3
REMARK    3  A    between atoms: S_3  and  C_4
REMARK    4  A    between atoms: C_4  and  C_5
REMARK    5  A    between atoms: C_5  and  C_6
REMARK    6  A    between atoms: C_9  and  N_10
REMARK                            x       y       z     vdW  Elec       q    Type
REMARK                         _______ _______ _______ _____ _____    ______ ____
ROOT
ATOM      1  C   UNL     1       3.431   5.143  18.817  0.00  0.00    +0.000 A 
ATOM      2  C   UNL     1       4.599   5.232  19.591  0.00  0.00    +0.000 A 
ATOM      3  C   UNL     1       5.852   5.319  18.981  0.00  0.00    +0.000 A 
ATOM      4  C   UNL     1       5.941   5.301  17.585  0.00  0.00    +0.000 A 
ATOM      5  C   UNL     1       4.786   5.204  16.799  0.00  0.00    +0.000 A 
ATOM      6  C   UNL     1       3.536   5.126  17.418  0.00  0.00    +0.000 A 
ENDROOT
BRANCH   4   7
ATOM      7  N   UNL     1       7.256   5.386  16.941  0.00  0.00    +0.000 N 
ATOM      8  O   UNL     1       7.563   6.454  16.393  0.00  0.00    +0.000 OA
ATOM      9  O   UNL     1       7.984   4.384  16.980  0.00  0.00    +0.000 OA
ENDBRANCH   4   7
BRANCH   1  10
ATOM     10  C   UNL     1       2.072   5.074  19.481  0.00  0.00    +0.000 C 
BRANCH  10  11
ATOM     11  C   UNL     1       2.196   4.660  20.946  0.00  0.00    +0.000 C 
BRANCH  11  12
ATOM     12  S   UNL     1       2.064   2.856  21.130  0.00  0.00    +0.000 S 
BRANCH  12  14
ATOM     13  C   UNL     1       3.114   1.591  18.617  0.00  0.00    +0.000 C 
ATOM     14  S   UNL     1       1.558   2.297  19.214  0.00  0.00    +0.000 S 
ENDBRANCH  12  14
ENDBRANCH  11  12
ENDBRANCH  10  11
ENDBRANCH   1  10
TORSDOF 5
ENDMDL
MODEL 5
REMARK VINA RESULT:      -5.4      2.061      2.536
REMARK  Name = 
REMARK  6 active torsions:
REMARK  status: ('A' for Active; 'I' for Inactive)
REMARK    1  A    between atoms: C_1  and  S_2
REMARK    2  A    between atoms: S_2  and  S_3
REMARK    3  A    between atoms: S_3  and  C_4
REMARK    4  A    between atoms: C_4  and  C_5
REMARK    5  A    between atoms: C_5  and  C_6
REMARK    6  A    between atoms: C_9  and  N_10
REMARK                            x       y       z     vdW  Elec       q    Type
REMARK                         _______ _______ _______ _____ _____    ______ ____
ROOT
ATOM      1  C   UNL     1       3.417   5.551  18.893  0.00  0.00    +0.000 A 
ATOM      2  C   UNL     1       4.610   5.010  19.399  0.00  0.00    +0.000 A 
ATOM      3  C   UNL     1       5.844   5.372  18.855  0.00  0.00    +0.000 A 
ATOM      4  C   UNL     1       5.886   6.273  17.785  0.00  0.00    +0.000 A 
ATOM      5  C   UNL     1       4.705   6.816  17.263  0.00  0.00    +0.000 A 
ATOM      6  C   UNL     1       3.476   6.453  17.820  0.00  0.00    +0.000 A 
ENDROOT
BRANCH   4   7
ATOM      7  N   UNL     1       7.180   6.651  17.206  0.00  0.00    +0.000 N 
ATOM      8  O   UNL     1       7.501   6.138  16.124  0.00  0.00    +0.000 OA
ATOM      9  O   UNL     1       7.878   7.459  17.832  0.00  0.00    +0.000 OA
ENDBRANCH   4   7
BRANCH   1  10
ATOM     10  C   UNL     1       2.083   5.175  19.502  0.00  0.00    +0.000 C 
BRANCH  10  11
ATOM     11  C   UNL     1       2.258   4.637  20.921  0.00  0.00    +0.000 C 
BRANCH  11  12
ATOM     12  S   UNL     1       1.759   2.892  21.026  0.00  0.00    +0.000 S 
BRANCH  12  14
ATOM     13  C   UNL     1       3.014   1.728  18.559  0.00  0.00    +0.000 C 
ATOM     14  S   UNL     1       1.428   2.454  19.041  0.00  0.00    +0.000 S 
ENDBRANCH  12  14
ENDBRANCH  11  12
ENDBRANCH  10  11
ENDBRANCH   1  10
TORSDOF 5
ENDMDL
MODEL 6
REMARK VINA RESULT:      -5.4      1.785      2.521
REMARK  Name = 
REMARK  6 active torsions:
REMARK  status: ('A' for Active; 'I' for Inactive)
REMARK    1  A    between atoms: C_1  and  S_2
REMARK    2  A    between atoms: S_2  and  S_3
REMARK    3  A    between atoms: S_3  and  C_4
REMARK    4  A    between atoms: C_4  and  C_5
REMARK    5  A    between atoms: C_5  and  C_6
REMARK    6  A    between atoms: C_9  and  N_10
REMARK                            x       y       z     vdW  Elec       q    Type
REMARK                         _______ _______ _______ _____ _____    ______ ____
ROOT
ATOM      1  C   UNL     1       4.216   3.470  18.195  0.00  0.00    +0.000 A 
ATOM      2  C   UNL     1       5.234   4.126  18.906  0.00  0.00    +0.000 A 
ATOM      3  C   UNL     1       6.192   4.890  18.238  0.00  0.00    +0.000 A 
ATOM      4  C   UNL     1       6.142   4.989  16.843  0.00  0.00    +0.000 A 
ATOM      5  C   UNL     1       5.138   4.335  16.117  0.00  0.00    +0.000 A 
ATOM      6  C   UNL     1       4.179   3.579  16.797  0.00  0.00    +0.000 A 
ENDROOT
BRANCH   4   7
ATOM      7  N   UNL     1       7.150   5.786  16.136  0.00  0.00    +0.000 N 
ATOM      8  O   UNL     1       7.591   6.795  16.704  0.00  0.00    +0.000 OA
ATOM      9  O   UNL     1       7.501   5.407  15.010  0.00  0.00    +0.000 OA
ENDBRANCH   4   7
BRANCH   1  10
ATOM     10  C   UNL     1       3.165   2.663  18.926  0.00  0.00    +0.000 C 
BRANCH  10  11
ATOM     11  C   UNL     1       3.538   2.476  20.396  0.00  0.00    +0.000 C 
BRANCH  11  12
ATOM     12  S   UNL     1       2.126   2.846  21.481  0.00  0.00    +0.000 S 
BRANCH  12  14
ATOM     13  C   UNL     1       1.856   5.690  20.558  0.00  0.00    +0.000 C 
ATOM     14  S   UNL     1       1.024   4.106  20.283  0.00  0.00    +0.000 S 
ENDBRANCH  12  14
ENDBRANCH  11  12
ENDBRANCH  10  11
ENDBRANCH   1  10
TORSDOF 5
ENDMDL
MODEL 7
REMARK VINA RESULT:      -5.4      2.281      3.038
REMARK  Name = 
REMARK  6 active torsions:
REMARK  status: ('A' for Active; 'I' for Inactive)
REMARK    1  A    between atoms: C_1  and  S_2
REMARK    2  A    between atoms: S_2  and  S_3
REMARK    3  A    between atoms: S_3  and  C_4
REMARK    4  A    between atoms: C_4  and  C_5
REMARK    5  A    between atoms: C_5  and  C_6
REMARK    6  A    between atoms: C_9  and  N_10
REMARK                            x       y       z     vdW  Elec       q    Type
REMARK                         _______ _______ _______ _____ _____    ______ ____
ROOT
ATOM      1  C   UNL     1       4.172   4.183  17.418  0.00  0.00    +0.000 A 
ATOM      2  C   UNL     1       4.746   4.396  18.682  0.00  0.00    +0.000 A 
ATOM      3  C   UNL     1       5.827   5.266  18.836  0.00  0.00    +0.000 A 
ATOM      4  C   UNL     1       6.349   5.919  17.714  0.00  0.00    +0.000 A 
ATOM      5  C   UNL     1       5.793   5.713  16.446  0.00  0.00    +0.000 A 
ATOM      6  C   UNL     1       4.706   4.845  16.303  0.00  0.00    +0.000 A 
ENDROOT
BRANCH   4   7
ATOM      7  N   UNL     1       7.488   6.830  17.871  0.00  0.00    +0.000 N 
ATOM      8  O   UNL     1       8.189   6.710  18.887  0.00  0.00    +0.000 OA
ATOM      9  O   UNL     1       7.685   7.668  16.981  0.00  0.00    +0.000 OA
ENDBRANCH   4   7
BRANCH   1  10
ATOM     10  C   UNL     1       2.984   3.257  17.260  0.00  0.00    +0.000 C 
BRANCH  10  11
ATOM     11  C   UNL     1       1.837   3.670  18.180  0.00  0.00    +0.000 C 
BRANCH  11  12
ATOM     12  S   UNL     1       1.417   2.336  19.342  0.00  0.00    +0.000 S 
BRANCH  12  14
ATOM     13  C   UNL     1       1.684   5.037  20.627  0.00  0.00    +0.000 C 
ATOM     14  S   UNL     1       1.617   3.305  21.148  0.00  0.00    +0.000 S 
ENDBRANCH  12  14
ENDBRANCH  11  12
ENDBRANCH  10  11
ENDBRANCH   1  10
TORSDOF 5
ENDMDL
MODEL 8
REMARK VINA RESULT:      -5.4      1.400      2.149
REMARK  Name = 
REMARK  6 active torsions:
REMARK  status: ('A' for Active; 'I' for Inactive)
REMARK    1  A    between atoms: C_1  and  S_2
REMARK    2  A    between atoms: S_2  and  S_3
REMARK    3  A    between atoms: S_3  and  C_4
REMARK    4  A    between atoms: C_4  and  C_5
REMARK    5  A    between atoms: C_5  and  C_6
REMARK    6  A    between atoms: C_9  and  N_10
REMARK                            x       y       z     vdW  Elec       q    Type
REMARK                         _______ _______ _______ _____ _____    ______ ____
ROOT
ATOM      1  C   UNL     1       3.249   5.170  17.638  0.00  0.00    +0.000 A 
ATOM      2  C   UNL     1       3.980   4.167  16.980  0.00  0.00    +0.000 A 
ATOM      3  C   UNL     1       5.252   4.432  16.469  0.00  0.00    +0.000 A 
ATOM      4  C   UNL     1       5.794   5.715  16.602  0.00  0.00    +0.000 A 
ATOM      5  C   UNL     1       5.075   6.728  17.248  0.00  0.00    +0.000 A 
ATOM      6  C   UNL     1       3.806   6.452  17.764  0.00  0.00    +0.000 A 
ENDROOT
BRANCH   4   7
ATOM      7  N   UNL     1       7.127   5.999  16.061  0.00  0.00    +0.000 N 
ATOM      8  O   UNL     1       7.772   6.927  16.569  0.00  0.00    +0.000 OA
ATOM      9  O   UNL     1       7.532   5.295  15.126  0.00  0.00    +0.000 OA
ENDBRANCH   4   7
BRANCH   1  10
ATOM     10  C   UNL     1       1.881   4.872  18.212  0.00  0.00    +0.000 C 
BRANCH  10  11
ATOM     11  C   UNL     1       1.869   5.052  19.729  0.00  0.00    +0.000 C 
BRANCH  11  12
ATOM     12  S   UNL     1       1.187   3.585  20.558  0.00  0.00    +0.000 S 
BRANCH  12  14
ATOM     13  C   UNL     1       3.913   2.389  20.165  0.00  0.00    +0.000 C 
ATOM     14  S   UNL     1       2.218   2.077  19.609  0.00  0.00    +0.000 S 
ENDBRANCH  12  14
ENDBRANCH  11  12
ENDBRANCH  10  11
ENDBRANCH   1  10
TORSDOF 5
ENDMDL
MODEL 9
REMARK VINA RESULT:      -5.4      1.354      2.154
REMARK  Name = 
REMARK  6 active torsions:
REMARK  status: ('A' for Active; 'I' for Inactive)
REMARK    1  A    between atoms: C_1  and  S_2
REMARK    2  A    between atoms: S_2  and  S_3
REMARK    3  A    between atoms: S_3  and  C_4
REMARK    4  A    between atoms: C_4  and  C_5
REMARK    5  A    between atoms: C_5  and  C_6
REMARK    6  A    between atoms: C_9  and  N_10
REMARK                            x       y       z     vdW  Elec       q    Type
REMARK                         _______ _______ _______ _____ _____    ______ ____
ROOT
ATOM      1  C   UNL     1       3.243   4.713  17.377  0.00  0.00    +0.000 A 
ATOM      2  C   UNL     1       3.691   6.011  17.666  0.00  0.00    +0.000 A 
ATOM      3  C   UNL     1       4.964   6.430  17.273  0.00  0.00    +0.000 A 
ATOM      4  C   UNL     1       5.803   5.537  16.597  0.00  0.00    +0.000 A 
ATOM      5  C   UNL     1       5.374   4.236  16.308  0.00  0.00    +0.000 A 
ATOM      6  C   UNL     1       4.096   3.829  16.699  0.00  0.00    +0.000 A 
ENDROOT
BRANCH   4   7
ATOM      7  N   UNL     1       7.143   5.971  16.188  0.00  0.00    +0.000 N 
ATOM      8  O   UNL     1       7.652   6.925  16.793  0.00  0.00    +0.000 OA
ATOM      9  O   UNL     1       7.689   5.360  15.259  0.00  0.00    +0.000 OA
ENDBRANCH   4   7
BRANCH   1  10
ATOM     10  C   UNL     1       1.853   4.271  17.784  0.00  0.00    +0.000 C 
BRANCH  10  11
ATOM     11  C   UNL     1       1.850   2.813  18.239  0.00  0.00    +0.000 C 
BRANCH  11  12
ATOM     12  S   UNL     1       0.748   2.575  19.666  0.00  0.00    +0.000 S 
BRANCH  12  14
ATOM     13  C   UNL     1       2.254   4.657  21.219  0.00  0.00    +0.000 C 
ATOM     14  S   UNL     1       2.056   2.858  21.230  0.00  0.00    +0.000 S 
ENDBRANCH  12  14
ENDBRANCH  11  12
ENDBRANCH  10  11
ENDBRANCH   1  10
TORSDOF 5
ENDMDL
