MODEL 1
REMARK VINA RESULT:      -7.1      0.000      0.000
REMARK  Name = 
REMARK  10 active torsions:
REMARK  status: ('A' for Active; 'I' for Inactive)
REMARK    1  A    between atoms: C_1  and  N_2
REMARK    2  A    between atoms: N_2  and  C_3
REMARK    3  A    between atoms: C_4  and  C_6
REMARK    4  A    between atoms: C_11  and  N_12
REMARK    5  A    between atoms: N_12  and  C_13
REMARK    6  A    between atoms: C_13  and  C_14
REMARK    7  A    between atoms: C_14  and  C_15
REMARK    8  A    between atoms: C_15  and  O_16
REMARK    9  A    between atoms: O_16  and  C_17
REMARK   10  A    between atoms: C_21  and  C_22
REMARK                            x       y       z     vdW  Elec       q    Type
REMARK                         _______ _______ _______ _____ _____    ______ ____
ROOT
ATOM      1  N   UNL     1       3.067   6.554  19.644  0.00  0.00    +0.000 N 
ATOM      2  H   UNL     1       4.035   6.893  19.590  0.00  0.00    +0.000 HD
ENDROOT
BRANCH   1   8
ATOM      3  C   UNL     1       3.785   5.098  17.756  0.00  0.00    +0.000 A 
ATOM      4  C   UNL     1       3.533   3.963  16.961  0.00  0.00    +0.000 A 
ATOM      5  C   UNL     1       2.577   3.018  17.322  0.00  0.00    +0.000 A 
ATOM      6  C   UNL     1       1.807   3.232  18.452  0.00  0.00    +0.000 A 
ATOM      7  C   UNL     1       1.970   4.405  19.192  0.00  0.00    +0.000 A 
ATOM      8  C   UNL     1       2.921   5.390  18.848  0.00  0.00    +0.000 A 
BRANCH   3  12
ATOM      9  C   UNL     1       7.211   6.798  17.448  0.00  0.00    +0.000 C 
ATOM     10  N   UNL     1       6.140   5.999  18.020  0.00  0.00    +0.000 N 
ATOM     11  C   UNL     1       6.439   5.295  19.265  0.00  0.00    +0.000 C 
ATOM     12  C   UNL     1       4.897   6.021  17.350  0.00  0.00    +0.000 C 
ATOM     13  O   UNL     1       4.694   6.774  16.394  0.00  0.00    +0.000 OA
ENDBRANCH   3  12
ENDBRANCH   1   8
BRANCH   1  14
ATOM     14  C   UNL     1       2.030   7.593  19.561  0.00  0.00    +0.000 C 
BRANCH  14  15
ATOM     15  C   UNL     1       1.944   8.230  18.173  0.00  0.00    +0.000 C 
BRANCH  15  16
ATOM     16  C   UNL     1       1.564   9.720  18.259  0.00  0.00    +0.000 C 
BRANCH  16  17
ATOM     17  O   UNL     1       0.415   9.873  19.100  0.00  0.00    +0.000 OA
BRANCH  17  18
ATOM     18  C   UNL     1      -0.737  10.359  18.547  0.00  0.00    +0.000 A 
ATOM     19  C   UNL     1      -1.447  11.241  19.372  0.00  0.00    +0.000 A 
ATOM     20  C   UNL     1      -2.648  11.814  18.944  0.00  0.00    +0.000 A 
ATOM     21  C   UNL     1      -3.149  11.510  17.679  0.00  0.00    +0.000 A 
ATOM     22  C   UNL     1      -2.444  10.634  16.844  0.00  0.00    +0.000 A 
ATOM     23  C   UNL     1      -1.235  10.063  17.276  0.00  0.00    +0.000 A 
BRANCH  22  24
ATOM     24  C   UNL     1      -2.968  10.317  15.545  0.00  0.00    +0.000 C 
ATOM     25  N   UNL     1      -3.389  10.051  14.493  0.00  0.00    +0.000 NA
ENDBRANCH  22  24
ENDBRANCH  17  18
ENDBRANCH  16  17
ENDBRANCH  15  16
ENDBRANCH  14  15
ENDBRANCH   1  14
TORSDOF 8
ENDMDL
MODEL 2
REMARK VINA RESULT:      -7.0      2.575      3.302
REMARK  Name = 
REMARK  10 active torsions:
REMARK  status: ('A' for Active; 'I' for Inactive)
REMARK    1  A    between atoms: C_1  and  N_2
REMARK    2  A    between atoms: N_2  and  C_3
REMARK    3  A    between atoms: C_4  and  C_6
REMARK    4  A    between atoms: C_11  and  N_12
REMARK    5  A    between atoms: N_12  and  C_13
REMARK    6  A    between atoms: C_13  and  C_14
REMARK    7  A    between atoms: C_14  and  C_15
REMARK    8  A    between atoms: C_15  and  O_16
REMARK    9  A    between atoms: O_16  and  C_17
REMARK   10  A    between atoms: C_21  and  C_22
REMARK                            x       y       z     vdW  Elec       q    Type
REMARK                         _______ _______ _______ _____ _____    ______ ____
ROOT
ATOM      1  N   UNL     1       3.315   6.126  19.170  0.00  0.00    +0.000 N 
ATOM      2  H   UNL     1       4.268   6.341  18.851  0.00  0.00    +0.000 HD
ENDROOT
BRANCH   1   8
ATOM      3  C   UNL     1       3.914   3.861  18.326  0.00  0.00    +0.000 A 
ATOM      4  C   UNL     1       3.476   2.608  17.855  0.00  0.00    +0.000 A 
ATOM      5  C   UNL     1       2.147   2.210  17.971  0.00  0.00    +0.000 A 
ATOM      6  C   UNL     1       1.220   3.092  18.499  0.00  0.00    +0.000 A 
ATOM      7  C   UNL     1       1.618   4.378  18.872  0.00  0.00    +0.000 A 
ATOM      8  C   UNL     1       2.954   4.819  18.756  0.00  0.00    +0.000 A 
BRANCH   3  12
ATOM      9  C   UNL     1       7.349   5.062  17.108  0.00  0.00    +0.000 C 
ATOM     10  N   UNL     1       5.969   4.610  17.044  0.00  0.00    +0.000 N 
ATOM     11  C   UNL     1       5.344   4.595  15.723  0.00  0.00    +0.000 C 
ATOM     12  C   UNL     1       5.379   4.178  18.251  0.00  0.00    +0.000 C 
ATOM     13  O   UNL     1       6.039   4.076  19.289  0.00  0.00    +0.000 OA
ENDBRANCH   3  12
ENDBRANCH   1   8
BRANCH   1  14
ATOM     14  C   UNL     1       2.337   7.209  19.001  0.00  0.00    +0.000 C 
BRANCH  14  15
ATOM     15  C   UNL     1       2.515   7.965  17.683  0.00  0.00    +0.000 C 
BRANCH  15  16
ATOM     16  C   UNL     1       2.108   9.444  17.821  0.00  0.00    +0.000 C 
BRANCH  16  17
ATOM     17  O   UNL     1       0.681   9.546  17.859  0.00  0.00    +0.000 OA
BRANCH  17  18
ATOM     18  C   UNL     1       0.099  10.153  18.938  0.00  0.00    +0.000 A 
ATOM     19  C   UNL     1      -0.721  11.243  18.616  0.00  0.00    +0.000 A 
ATOM     20  C   UNL     1      -1.378  11.965  19.615  0.00  0.00    +0.000 A 
ATOM     21  C   UNL     1      -1.222  11.601  20.952  0.00  0.00    +0.000 A 
ATOM     22  C   UNL     1      -0.408  10.510  21.284  0.00  0.00    +0.000 A 
ATOM     23  C   UNL     1       0.248   9.783  20.277  0.00  0.00    +0.000 A 
BRANCH  22  24
ATOM     24  C   UNL     1      -0.242  10.144  22.663  0.00  0.00    +0.000 C 
ATOM     25  N   UNL     1      -0.105   9.856  23.782  0.00  0.00    +0.000 NA
ENDBRANCH  22  24
ENDBRANCH  17  18
ENDBRANCH  16  17
ENDBRANCH  15  16
ENDBRANCH  14  15
ENDBRANCH   1  14
TORSDOF 8
ENDMDL
MODEL 3
REMARK VINA RESULT:      -6.9      1.293      1.564
REMARK  Name = 
REMARK  10 active torsions:
REMARK  status: ('A' for Active; 'I' for Inactive)
REMARK    1  A    between atoms: C_1  and  N_2
REMARK    2  A    between atoms: N_2  and  C_3
REMARK    3  A    between atoms: C_4  and  C_6
REMARK    4  A    between atoms: C_11  and  N_12
REMARK    5  A    between atoms: N_12  and  C_13
REMARK    6  A    between atoms: C_13  and  C_14
REMARK    7  A    between atoms: C_14  and  C_15
REMARK    8  A    between atoms: C_15  and  O_16
REMARK    9  A    between atoms: O_16  and  C_17
REMARK   10  A    between atoms: C_21  and  C_22
REMARK                            x       y       z     vdW  Elec       q    Type
REMARK                         _______ _______ _______ _____ _____    ______ ____
ROOT
ATOM      1  N   UNL     1       3.057   6.011  19.966  0.00  0.00    +0.000 N 
ATOM      2  H   UNL     1       4.067   6.190  20.032  0.00  0.00    +0.000 HD
ENDROOT
BRANCH   1   8
ATOM      3  C   UNL     1       3.863   4.133  18.544  0.00  0.00    +0.000 A 
ATOM      4  C   UNL     1       3.547   2.989  17.786  0.00  0.00    +0.000 A 
ATOM      5  C   UNL     1       2.289   2.397  17.851  0.00  0.00    +0.000 A 
ATOM      6  C   UNL     1       1.303   2.983  18.626  0.00  0.00    +0.000 A 
ATOM      7  C   UNL     1       1.568   4.177  19.300  0.00  0.00    +0.000 A 
ATOM      8  C   UNL     1       2.828   4.812  19.246  0.00  0.00    +0.000 A 
BRANCH   3  12
ATOM      9  C   UNL     1       7.042   6.008  17.495  0.00  0.00    +0.000 C 
ATOM     10  N   UNL     1       5.729   5.392  17.381  0.00  0.00    +0.000 N 
ATOM     11  C   UNL     1       5.040   5.551  16.103  0.00  0.00    +0.000 C 
ATOM     12  C   UNL     1       5.269   4.656  18.493  0.00  0.00    +0.000 C 
ATOM     13  O   UNL     1       5.992   4.444  19.470  0.00  0.00    +0.000 OA
ENDBRANCH   3  12
ENDBRANCH   1   8
BRANCH   1  14
ATOM     14  C   UNL     1       2.229   7.185  19.654  0.00  0.00    +0.000 C 
BRANCH  14  15
ATOM     15  C   UNL     1       2.589   7.819  18.309  0.00  0.00    +0.000 C 
BRANCH  15  16
ATOM     16  C   UNL     1       1.549   8.873  17.887  0.00  0.00    +0.000 C 
BRANCH  16  17
ATOM     17  O   UNL     1       1.167   9.652  19.025  0.00  0.00    +0.000 OA
BRANCH  17  18
ATOM     18  C   UNL     1       0.006  10.372  18.961  0.00  0.00    +0.000 A 
ATOM     19  C   UNL     1      -0.219  11.205  20.065  0.00  0.00    +0.000 A 
ATOM     20  C   UNL     1      -1.367  11.998  20.144  0.00  0.00    +0.000 A 
ATOM     21  C   UNL     1      -2.304  11.965  19.112  0.00  0.00    +0.000 A 
ATOM     22  C   UNL     1      -2.086  11.140  18.001  0.00  0.00    +0.000 A 
ATOM     23  C   UNL     1      -0.929  10.347  17.923  0.00  0.00    +0.000 A 
BRANCH  22  24
ATOM     24  C   UNL     1      -3.059  11.103  16.945  0.00  0.00    +0.000 C 
ATOM     25  N   UNL     1      -3.848  11.082  16.090  0.00  0.00    +0.000 NA
ENDBRANCH  22  24
ENDBRANCH  17  18
ENDBRANCH  16  17
ENDBRANCH  15  16
ENDBRANCH  14  15
ENDBRANCH   1  14
TORSDOF 8
ENDMDL
MODEL 4
REMARK VINA RESULT:      -6.9      1.377      1.647
REMARK  Name = 
REMARK  10 active torsions:
REMARK  status: ('A' for Active; 'I' for Inactive)
REMARK    1  A    between atoms: C_1  and  N_2
REMARK    2  A    between atoms: N_2  and  C_3
REMARK    3  A    between atoms: C_4  and  C_6
REMARK    4  A    between atoms: C_11  and  N_12
REMARK    5  A    between atoms: N_12  and  C_13
REMARK    6  A    between atoms: C_13  and  C_14
REMARK    7  A    between atoms: C_14  and  C_15
REMARK    8  A    between atoms: C_15  and  O_16
REMARK    9  A    between atoms: O_16  and  C_17
REMARK   10  A    between atoms: C_21  and  C_22
REMARK                            x       y       z     vdW  Elec       q    Type
REMARK                         _______ _______ _______ _____ _____    ______ ____
ROOT
ATOM      1  N   UNL     1       2.940   6.250  18.128  0.00  0.00    +0.000 N 
ATOM      2  H   UNL     1       2.619   6.122  17.160  0.00  0.00    +0.000 HD
ENDROOT
BRANCH   1   8
ATOM      3  C   UNL     1       3.962   4.254  19.210  0.00  0.00    +0.000 A 
ATOM      4  C   UNL     1       3.771   3.011  19.845  0.00  0.00    +0.000 A 
ATOM      5  C   UNL     1       2.515   2.603  20.284  0.00  0.00    +0.000 A 
ATOM      6  C   UNL     1       1.416   3.405  20.031  0.00  0.00    +0.000 A 
ATOM      7  C   UNL     1       1.571   4.590  19.308  0.00  0.00    +0.000 A 
ATOM      8  C   UNL     1       2.828   5.028  18.837  0.00  0.00    +0.000 A 
BRANCH   3  12
ATOM      9  C   UNL     1       7.143   5.108  17.241  0.00  0.00    +0.000 C 
ATOM     10  N   UNL     1       5.844   4.524  17.533  0.00  0.00    +0.000 N 
ATOM     11  C   UNL     1       5.191   3.799  16.446  0.00  0.00    +0.000 C 
ATOM     12  C   UNL     1       5.361   4.665  18.852  0.00  0.00    +0.000 C 
ATOM     13  O   UNL     1       6.058   5.156  19.744  0.00  0.00    +0.000 OA
ENDBRANCH   3  12
ENDBRANCH   1   8
BRANCH   1  14
ATOM     14  C   UNL     1       2.485   7.484  18.783  0.00  0.00    +0.000 C 
BRANCH  14  15
ATOM     15  C   UNL     1       2.097   8.575  17.783  0.00  0.00    +0.000 C 
BRANCH  15  16
ATOM     16  C   UNL     1       1.579   9.837  18.498  0.00  0.00    +0.000 C 
BRANCH  16  17
ATOM     17  O   UNL     1       0.292   9.572  19.066  0.00  0.00    +0.000 OA
BRANCH  17  18
ATOM     18  C   UNL     1      -0.802  10.177  18.511  0.00  0.00    +0.000 A 
ATOM     19  C   UNL     1      -1.420  11.125  19.338  0.00  0.00    +0.000 A 
ATOM     20  C   UNL     1      -2.553  11.821  18.909  0.00  0.00    +0.000 A 
ATOM     21  C   UNL     1      -3.080  11.575  17.642  0.00  0.00    +0.000 A 
ATOM     22  C   UNL     1      -2.466  10.633  16.806  0.00  0.00    +0.000 A 
ATOM     23  C   UNL     1      -1.324   9.938  17.238  0.00  0.00    +0.000 A 
BRANCH  22  24
ATOM     24  C   UNL     1      -3.017  10.377  15.504  0.00  0.00    +0.000 C 
ATOM     25  N   UNL     1      -3.454  10.166  14.446  0.00  0.00    +0.000 NA
ENDBRANCH  22  24
ENDBRANCH  17  18
ENDBRANCH  16  17
ENDBRANCH  15  16
ENDBRANCH  14  15
ENDBRANCH   1  14
TORSDOF 8
ENDMDL
MODEL 5
REMARK VINA RESULT:      -6.9      2.952      4.426
REMARK  Name = 
REMARK  10 active torsions:
REMARK  status: ('A' for Active; 'I' for Inactive)
REMARK    1  A    between atoms: C_1  and  N_2
REMARK    2  A    between atoms: N_2  and  C_3
REMARK    3  A    between atoms: C_4  and  C_6
REMARK    4  A    between atoms: C_11  and  N_12
REMARK    5  A    between atoms: N_12  and  C_13
REMARK    6  A    between atoms: C_13  and  C_14
REMARK    7  A    between atoms: C_14  and  C_15
REMARK    8  A    between atoms: C_15  and  O_16
REMARK    9  A    between atoms: O_16  and  C_17
REMARK   10  A    between atoms: C_21  and  C_22
REMARK                            x       y       z     vdW  Elec       q    Type
REMARK                         _______ _______ _______ _____ _____    ______ ____
ROOT
ATOM      1  N   UNL     1       2.736   6.644  18.663  0.00  0.00    +0.000 N 
ATOM      2  H   UNL     1       2.812   6.201  19.587  0.00  0.00    +0.000 HD
ENDROOT
BRANCH   1   8
ATOM      3  C   UNL     1       3.503   4.627  17.421  0.00  0.00    +0.000 A 
ATOM      4  C   UNL     1       4.459   4.043  16.566  0.00  0.00    +0.000 A 
ATOM      5  C   UNL     1       5.400   4.814  15.890  0.00  0.00    +0.000 A 
ATOM      6  C   UNL     1       5.443   6.179  16.113  0.00  0.00    +0.000 A 
ATOM      7  C   UNL     1       4.572   6.760  17.038  0.00  0.00    +0.000 A 
ATOM      8  C   UNL     1       3.615   6.007  17.751  0.00  0.00    +0.000 A 
BRANCH   3  12
ATOM      9  C   UNL     1       1.627   2.303  19.830  0.00  0.00    +0.000 C 
ATOM     10  N   UNL     1       2.743   2.993  19.204  0.00  0.00    +0.000 N 
ATOM     11  C   UNL     1       4.058   2.800  19.811  0.00  0.00    +0.000 C 
ATOM     12  C   UNL     1       2.463   3.740  18.039  0.00  0.00    +0.000 C 
ATOM     13  O   UNL     1       1.349   3.712  17.509  0.00  0.00    +0.000 OA
ENDBRANCH   3  12
ENDBRANCH   1   8
BRANCH   1  14
ATOM     14  C   UNL     1       2.681   8.112  18.672  0.00  0.00    +0.000 C 
BRANCH  14  15
ATOM     15  C   UNL     1       1.538   8.665  17.818  0.00  0.00    +0.000 C 
BRANCH  15  16
ATOM     16  C   UNL     1       1.094  10.057  18.304  0.00  0.00    +0.000 C 
BRANCH  16  17
ATOM     17  O   UNL     1      -0.219   9.971  18.868  0.00  0.00    +0.000 OA
BRANCH  17  18
ATOM     18  C   UNL     1      -0.364  10.170  20.213  0.00  0.00    +0.000 A 
ATOM     19  C   UNL     1      -0.188   9.017  20.990  0.00  0.00    +0.000 A 
ATOM     20  C   UNL     1      -0.311   9.064  22.381  0.00  0.00    +0.000 A 
ATOM     21  C   UNL     1      -0.612  10.271  23.010  0.00  0.00    +0.000 A 
ATOM     22  C   UNL     1      -0.785  11.431  22.243  0.00  0.00    +0.000 A 
ATOM     23  C   UNL     1      -0.656  11.381  20.845  0.00  0.00    +0.000 A 
BRANCH  22  24
ATOM     24  C   UNL     1      -1.103  12.670  22.895  0.00  0.00    +0.000 C 
ATOM     25  N   UNL     1      -1.369  13.675  23.418  0.00  0.00    +0.000 NA
ENDBRANCH  22  24
ENDBRANCH  17  18
ENDBRANCH  16  17
ENDBRANCH  15  16
ENDBRANCH  14  15
ENDBRANCH   1  14
TORSDOF 8
ENDMDL
MODEL 6
REMARK VINA RESULT:      -6.8      2.851      3.512
REMARK  Name = 
REMARK  10 active torsions:
REMARK  status: ('A' for Active; 'I' for Inactive)
REMARK    1  A    between atoms: C_1  and  N_2
REMARK    2  A    between atoms: N_2  and  C_3
REMARK    3  A    between atoms: C_4  and  C_6
REMARK    4  A    between atoms: C_11  and  N_12
REMARK    5  A    between atoms: N_12  and  C_13
REMARK    6  A    between atoms: C_13  and  C_14
REMARK    7  A    between atoms: C_14  and  C_15
REMARK    8  A    between atoms: C_15  and  O_16
REMARK    9  A    between atoms: O_16  and  C_17
REMARK   10  A    between atoms: C_21  and  C_22
REMARK                            x       y       z     vdW  Elec       q    Type
REMARK                         _______ _______ _______ _____ _____    ______ ____
ROOT
ATOM      1  N   UNL     1       2.005   5.842  18.386  0.00  0.00    +0.000 N 
ATOM      2  H   UNL     1       0.997   6.043  18.394  0.00  0.00    +0.000 HD
ENDROOT
BRANCH   1   8
ATOM      3  C   UNL     1       3.395   3.920  19.142  0.00  0.00    +0.000 A 
ATOM      4  C   UNL     1       3.578   2.867  20.060  0.00  0.00    +0.000 A 
ATOM      5  C   UNL     1       2.827   2.780  21.228  0.00  0.00    +0.000 A 
ATOM      6  C   UNL     1       1.830   3.710  21.463  0.00  0.00    +0.000 A 
ATOM      7  C   UNL     1       1.563   4.698  20.512  0.00  0.00    +0.000 A 
ATOM      8  C   UNL     1       2.296   4.809  19.311  0.00  0.00    +0.000 A 
BRANCH   3  12
ATOM      9  C   UNL     1       6.481   4.409  16.914  0.00  0.00    +0.000 C 
ATOM     10  N   UNL     1       5.608   4.536  18.070  0.00  0.00    +0.000 N 
ATOM     11  C   UNL     1       6.144   5.259  19.221  0.00  0.00    +0.000 C 
ATOM     12  C   UNL     1       4.308   3.997  17.953  0.00  0.00    +0.000 C 
ATOM     13  O   UNL     1       3.892   3.547  16.883  0.00  0.00    +0.000 OA
ENDBRANCH   3  12
ENDBRANCH   1   8
BRANCH   1  14
ATOM     14  C   UNL     1       2.880   7.023  18.357  0.00  0.00    +0.000 C 
BRANCH  14  15
ATOM     15  C   UNL     1       2.197   8.249  17.748  0.00  0.00    +0.000 C 
BRANCH  15  16
ATOM     16  C   UNL     1       1.814   9.275  18.830  0.00  0.00    +0.000 C 
BRANCH  16  17
ATOM     17  O   UNL     1       1.218   8.600  19.942  0.00  0.00    +0.000 OA
BRANCH  17  18
ATOM     18  C   UNL     1       0.507   9.338  20.848  0.00  0.00    +0.000 A 
ATOM     19  C   UNL     1       0.596   8.876  22.168  0.00  0.00    +0.000 A 
ATOM     20  C   UNL     1      -0.081   9.526  23.203  0.00  0.00    +0.000 A 
ATOM     21  C   UNL     1      -0.856  10.651  22.925  0.00  0.00    +0.000 A 
ATOM     22  C   UNL     1      -0.947  11.125  21.610  0.00  0.00    +0.000 A 
ATOM     23  C   UNL     1      -0.261  10.472  20.572  0.00  0.00    +0.000 A 
BRANCH  22  24
ATOM     24  C   UNL     1      -1.753  12.279  21.327  0.00  0.00    +0.000 C 
ATOM     25  N   UNL     1      -2.412  13.213  21.106  0.00  0.00    +0.000 NA
ENDBRANCH  22  24
ENDBRANCH  17  18
ENDBRANCH  16  17
ENDBRANCH  15  16
ENDBRANCH  14  15
ENDBRANCH   1  14
TORSDOF 8
ENDMDL
MODEL 7
REMARK VINA RESULT:      -6.7      1.595      2.883
REMARK  Name = 
REMARK  10 active torsions:
REMARK  status: ('A' for Active; 'I' for Inactive)
REMARK    1  A    between atoms: C_1  and  N_2
REMARK    2  A    between atoms: N_2  and  C_3
REMARK    3  A    between atoms: C_4  and  C_6
REMARK    4  A    between atoms: C_11  and  N_12
REMARK    5  A    between atoms: N_12  and  C_13
REMARK    6  A    between atoms: C_13  and  C_14
REMARK    7  A    between atoms: C_14  and  C_15
REMARK    8  A    between atoms: C_15  and  O_16
REMARK    9  A    between atoms: O_16  and  C_17
REMARK   10  A    between atoms: C_21  and  C_22
REMARK                            x       y       z     vdW  Elec       q    Type
REMARK                         _______ _______ _______ _____ _____    ______ ____
ROOT
ATOM      1  N   UNL     1       3.134   6.872  18.372  0.00  0.00    +0.000 N 
ATOM      2  H   UNL     1       3.725   7.304  19.094  0.00  0.00    +0.000 HD
ENDROOT
BRANCH   1   8
ATOM      3  C   UNL     1       3.510   4.614  17.393  0.00  0.00    +0.000 A 
ATOM      4  C   UNL     1       4.363   3.749  16.678  0.00  0.00    +0.000 A 
ATOM      5  C   UNL     1       5.489   4.224  16.012  0.00  0.00    +0.000 A 
ATOM      6  C   UNL     1       5.818   5.564  16.108  0.00  0.00    +0.000 A 
ATOM      7  C   UNL     1       5.044   6.415  16.900  0.00  0.00    +0.000 A 
ATOM      8  C   UNL     1       3.903   5.966  17.600  0.00  0.00    +0.000 A 
BRANCH   3  12
ATOM      9  C   UNL     1       1.031   3.015  19.846  0.00  0.00    +0.000 C 
ATOM     10  N   UNL     1       2.306   3.378  19.250  0.00  0.00    +0.000 N 
ATOM     11  C   UNL     1       3.508   2.970  19.973  0.00  0.00    +0.000 C 
ATOM     12  C   UNL     1       2.265   4.042  18.005  0.00  0.00    +0.000 C 
ATOM     13  O   UNL     1       1.204   4.201  17.395  0.00  0.00    +0.000 OA
ENDBRANCH   3  12
ENDBRANCH   1   8
BRANCH   1  14
ATOM     14  C   UNL     1       2.223   7.790  17.674  0.00  0.00    +0.000 C 
BRANCH  14  15
ATOM     15  C   UNL     1       2.128   9.157  18.353  0.00  0.00    +0.000 C 
BRANCH  15  16
ATOM     16  C   UNL     1       1.102   9.146  19.501  0.00  0.00    +0.000 C 
BRANCH  16  17
ATOM     17  O   UNL     1       0.546  10.456  19.659  0.00  0.00    +0.000 OA
BRANCH  17  18
ATOM     18  C   UNL     1      -0.627  10.747  19.019  0.00  0.00    +0.000 A 
ATOM     19  C   UNL     1      -1.479  11.601  19.733  0.00  0.00    +0.000 A 
ATOM     20  C   UNL     1      -2.715  11.984  19.207  0.00  0.00    +0.000 A 
ATOM     21  C   UNL     1      -3.112  11.515  17.956  0.00  0.00    +0.000 A 
ATOM     22  C   UNL     1      -2.266  10.665  17.231  0.00  0.00    +0.000 A 
ATOM     23  C   UNL     1      -1.021  10.286  17.761  0.00  0.00    +0.000 A 
BRANCH  22  24
ATOM     24  C   UNL     1      -2.682  10.178  15.946  0.00  0.00    +0.000 C 
ATOM     25  N   UNL     1      -3.014   9.790  14.900  0.00  0.00    +0.000 NA
ENDBRANCH  22  24
ENDBRANCH  17  18
ENDBRANCH  16  17
ENDBRANCH  15  16
ENDBRANCH  14  15
ENDBRANCH   1  14
TORSDOF 8
ENDMDL
MODEL 8
REMARK VINA RESULT:      -6.7      1.625      2.916
REMARK  Name = 
REMARK  10 active torsions:
REMARK  status: ('A' for Active; 'I' for Inactive)
REMARK    1  A    between atoms: C_1  and  N_2
REMARK    2  A    between atoms: N_2  and  C_3
REMARK    3  A    between atoms: C_4  and  C_6
REMARK    4  A    between atoms: C_11  and  N_12
REMARK    5  A    between atoms: N_12  and  C_13
REMARK    6  A    between atoms: C_13  and  C_14
REMARK    7  A    between atoms: C_14  and  C_15
REMARK    8  A    between atoms: C_15  and  O_16
REMARK    9  A    between atoms: O_16  and  C_17
REMARK   10  A    between atoms: C_21  and  C_22
REMARK                            x       y       z     vdW  Elec       q    Type
REMARK                         _______ _______ _______ _____ _____    ______ ____
ROOT
ATOM      1  N   UNL     1       3.604   6.061  19.430  0.00  0.00    +0.000 N 
ATOM      2  H   UNL     1       4.323   6.308  20.121  0.00  0.00    +0.000 HD
ENDROOT
BRANCH   1   8
ATOM      3  C   UNL     1       3.769   4.527  17.475  0.00  0.00    +0.000 A 
ATOM      4  C   UNL     1       4.478   4.134  16.323  0.00  0.00    +0.000 A 
ATOM      5  C   UNL     1       5.493   4.922  15.788  0.00  0.00    +0.000 A 
ATOM      6  C   UNL     1       5.862   6.086  16.439  0.00  0.00    +0.000 A 
ATOM      7  C   UNL     1       5.243   6.435  17.642  0.00  0.00    +0.000 A 
ATOM      8  C   UNL     1       4.220   5.654  18.220  0.00  0.00    +0.000 A 
BRANCH   3  12
ATOM      9  C   UNL     1       1.601   2.064  19.464  0.00  0.00    +0.000 C 
ATOM     10  N   UNL     1       2.799   2.719  18.963  0.00  0.00    +0.000 N 
ATOM     11  C   UNL     1       4.071   2.287  19.536  0.00  0.00    +0.000 C 
ATOM     12  C   UNL     1       2.626   3.671  17.936  0.00  0.00    +0.000 C 
ATOM     13  O   UNL     1       1.527   3.853  17.405  0.00  0.00    +0.000 OA
ENDBRANCH   3  12
ENDBRANCH   1   8
BRANCH   1  14
ATOM     14  C   UNL     1       2.459   6.980  19.358  0.00  0.00    +0.000 C 
BRANCH  14  15
ATOM     15  C   UNL     1       2.250   7.554  17.955  0.00  0.00    +0.000 C 
BRANCH  15  16
ATOM     16  C   UNL     1       1.945   9.062  18.002  0.00  0.00    +0.000 C 
BRANCH  16  17
ATOM     17  O   UNL     1       1.086   9.343  19.112  0.00  0.00    +0.000 OA
BRANCH  17  18
ATOM     18  C   UNL     1      -0.039  10.088  18.892  0.00  0.00    +0.000 A 
ATOM     19  C   UNL     1      -0.432  10.878  19.981  0.00  0.00    +0.000 A 
ATOM     20  C   UNL     1      -1.567  11.689  19.907  0.00  0.00    +0.000 A 
ATOM     21  C   UNL     1      -2.323  11.719  18.736  0.00  0.00    +0.000 A 
ATOM     22  C   UNL     1      -1.936  10.937  17.639  0.00  0.00    +0.000 A 
ATOM     23  C   UNL     1      -0.791  10.126  17.716  0.00  0.00    +0.000 A 
BRANCH  22  24
ATOM     24  C   UNL     1      -2.722  10.964  16.438  0.00  0.00    +0.000 C 
ATOM     25  N   UNL     1      -3.351  10.985  15.459  0.00  0.00    +0.000 NA
ENDBRANCH  22  24
ENDBRANCH  17  18
ENDBRANCH  16  17
ENDBRANCH  15  16
ENDBRANCH  14  15
ENDBRANCH   1  14
TORSDOF 8
ENDMDL
MODEL 9
REMARK VINA RESULT:      -6.6      1.607      2.016
REMARK  Name = 
REMARK  10 active torsions:
REMARK  status: ('A' for Active; 'I' for Inactive)
REMARK    1  A    between atoms: C_1  and  N_2
REMARK    2  A    between atoms: N_2  and  C_3
REMARK    3  A    between atoms: C_4  and  C_6
REMARK    4  A    between atoms: C_11  and  N_12
REMARK    5  A    between atoms: N_12  and  C_13
REMARK    6  A    between atoms: C_13  and  C_14
REMARK    7  A    between atoms: C_14  and  C_15
REMARK    8  A    between atoms: C_15  and  O_16
REMARK    9  A    between atoms: O_16  and  C_17
REMARK   10  A    between atoms: C_21  and  C_22
REMARK                            x       y       z     vdW  Elec       q    Type
REMARK                         _______ _______ _______ _____ _____    ______ ____
ROOT
ATOM      1  N   UNL     1       2.810   5.939  17.946  0.00  0.00    +0.000 N 
ATOM      2  H   UNL     1       2.067   6.243  17.304  0.00  0.00    +0.000 HD
ENDROOT
BRANCH   1   8
ATOM      3  C   UNL     1       3.827   3.714  18.409  0.00  0.00    +0.000 A 
ATOM      4  C   UNL     1       3.642   2.326  18.567  0.00  0.00    +0.000 A 
ATOM      5  C   UNL     1       2.372   1.771  18.698  0.00  0.00    +0.000 A 
ATOM      6  C   UNL     1       1.262   2.591  18.603  0.00  0.00    +0.000 A 
ATOM      7  C   UNL     1       1.423   3.953  18.340  0.00  0.00    +0.000 A 
ATOM      8  C   UNL     1       2.694   4.548  18.189  0.00  0.00    +0.000 A 
BRANCH   3  12
ATOM      9  C   UNL     1       7.177   5.137  17.194  0.00  0.00    +0.000 C 
ATOM     10  N   UNL     1       5.893   4.455  17.142  0.00  0.00    +0.000 N 
ATOM     11  C   UNL     1       5.443   4.004  15.828  0.00  0.00    +0.000 C 
ATOM     12  C   UNL     1       5.229   4.247  18.370  0.00  0.00    +0.000 C 
ATOM     13  O   UNL     1       5.765   4.521  19.447  0.00  0.00    +0.000 OA
ENDBRANCH   3  12
ENDBRANCH   1   8
BRANCH   1  14
ATOM     14  C   UNL     1       3.059   6.831  19.087  0.00  0.00    +0.000 C 
BRANCH  14  15
ATOM     15  C   UNL     1       1.981   6.722  20.167  0.00  0.00    +0.000 C 
BRANCH  15  16
ATOM     16  C   UNL     1       1.484   8.110  20.609  0.00  0.00    +0.000 C 
BRANCH  16  17
ATOM     17  O   UNL     1       1.516   9.008  19.495  0.00  0.00    +0.000 OA
BRANCH  17  18
ATOM     18  C   UNL     1       0.410   9.771  19.240  0.00  0.00    +0.000 A 
ATOM     19  C   UNL     1      -0.005  10.565  20.317  0.00  0.00    +0.000 A 
ATOM     20  C   UNL     1      -1.124  11.394  20.207  0.00  0.00    +0.000 A 
ATOM     21  C   UNL     1      -1.841  11.437  19.012  0.00  0.00    +0.000 A 
ATOM     22  C   UNL     1      -1.431  10.651  17.927  0.00  0.00    +0.000 A 
ATOM     23  C   UNL     1      -0.302   9.822  18.039  0.00  0.00    +0.000 A 
BRANCH  22  24
ATOM     24  C   UNL     1      -2.177  10.692  16.701  0.00  0.00    +0.000 C 
ATOM     25  N   UNL     1      -2.774  10.728  15.702  0.00  0.00    +0.000 NA
ENDBRANCH  22  24
ENDBRANCH  17  18
ENDBRANCH  16  17
ENDBRANCH  15  16
ENDBRANCH  14  15
ENDBRANCH   1  14
TORSDOF 8
ENDMDL
