MODEL 1
REMARK VINA RESULT:      -8.9      0.000      0.000
REMARK  Name = 
REMARK  10 active torsions:
REMARK  status: ('A' for Active; 'I' for Inactive)
REMARK    1  A    between atoms: C_1  and  C_2
REMARK    2  A    between atoms: C_5  and  C_6
REMARK    3  A    between atoms: C_9  and  C_10
REMARK    4  A    between atoms: N_12  and  C_13
REMARK    5  A    between atoms: C_13  and  C_14
REMARK    6  A    between atoms: C_13  and  C_23
REMARK    7  A    between atoms: C_16  and  C_17
REMARK    8  A    between atoms: C_18  and  C_19
REMARK    9  A    between atoms: C_19  and  C_20
REMARK   10  A    between atoms: C_20  and  O_21
REMARK                            x       y       z     vdW  Elec       q    Type
REMARK                         _______ _______ _______ _____ _____    ______ ____
ROOT
ATOM      1  C   UNL     1       7.709   6.267  18.646  0.00  0.00    +0.000 C 
ATOM      2  O   UNL     1       8.304   5.510  19.391  0.00  0.00    +0.000 OA
ATOM      3  N   UNL     1       6.677   5.865  17.813  0.00  0.00    +0.000 N 
ATOM      4  H   UNL     1       6.302   6.540  17.170  0.00  0.00    +0.000 HD
ENDROOT
BRANCH   1   8
ATOM      5  C   UNL     1       9.023   9.765  18.780  0.00  0.00    +0.000 A 
ATOM      6  C   UNL     1       8.334   9.736  17.579  0.00  0.00    +0.000 A 
ATOM      7  C   UNL     1       7.588   8.561  17.522  0.00  0.00    +0.000 A 
ATOM      8  C   UNL     1       8.055   7.700  18.497  0.00  0.00    +0.000 A 
ATOM      9  N   UNL     1       8.929   8.464  19.294  0.00  0.00    +0.000 N 
ATOM     10  H   UNL     1       9.374   8.121  20.134  0.00  0.00    +0.000 HD
BRANCH   5  15
ATOM     11  C   UNL     1      10.429  14.721  21.458  0.00  0.00    +0.000 C 
ATOM     12  C   UNL     1      10.228  13.432  20.720  0.00  0.00    +0.000 A 
ATOM     13  C   UNL     1      10.509  13.268  19.352  0.00  0.00    +0.000 A 
ATOM     14  C   UNL     1      10.193  12.061  18.670  0.00  0.00    +0.000 A 
ATOM     15  C   UNL     1       9.593  11.003  19.357  0.00  0.00    +0.000 A 
ATOM     16  C   UNL     1       9.390  11.169  20.745  0.00  0.00    +0.000 A 
ATOM     17  C   UNL     1       9.685  12.353  21.402  0.00  0.00    +0.000 A 
ATOM     18  F   UNL     1       9.396  12.457  22.708  0.00  0.00    +0.000 F 
ENDBRANCH   5  15
ENDBRANCH   1   8
BRANCH   3  19
ATOM     19  C   UNL     1       6.223   4.501  17.485  0.00  0.00    +0.000 C 
BRANCH  19  20
ATOM     20  C   UNL     1       4.655   4.285  17.693  0.00  0.00    +0.000 C 
ATOM     21  C   UNL     1       3.863   5.623  17.688  0.00  0.00    +0.000 C 
ATOM     22  C   UNL     1       2.384   5.489  18.041  0.00  0.00    +0.000 C 
ATOM     23  C   UNL     1       2.166   4.582  19.238  0.00  0.00    +0.000 C 
ATOM     24  C   UNL     1       2.913   3.266  19.071  0.00  0.00    +0.000 C 
ATOM     25  N   UNL     1       4.350   3.489  18.899  0.00  0.00    +0.000 NA
ATOM     26  H   UNL     1       4.820   2.585  18.832  0.00  0.00    +0.000 HD
ENDBRANCH  19  20
BRANCH  19  27
ATOM     27  C   UNL     1       6.495   4.275  15.990  0.00  0.00    +0.000 A 
ATOM     28  N   UNL     1       7.402   4.946  15.300  0.00  0.00    +0.000 NA
ATOM     29  C   UNL     1       7.215   4.762  13.937  0.00  0.00    +0.000 A 
ATOM     30  C   UNL     1       8.097   5.511  12.999  0.00  0.00    +0.000 C 
ATOM     31  C   UNL     1       6.181   3.900  13.602  0.00  0.00    +0.000 A 
ATOM     32  S   UNL     1       5.453   3.289  15.036  0.00  0.00    +0.000 S 
BRANCH  31  33
ATOM     33  C   UNL     1       5.705   3.464  12.241  0.00  0.00    +0.000 C 
BRANCH  33  34
ATOM     34  C   UNL     1       6.581   2.392  11.588  0.00  0.00    +0.000 C 
BRANCH  34  35
ATOM     35  O   UNL     1       5.901   1.148  11.470  0.00  0.00    +0.000 OA
ATOM     36  H   UNL     1       5.514   0.946  12.340  0.00  0.00    +0.000 HD
ENDBRANCH  34  35
ENDBRANCH  33  34
ENDBRANCH  31  33
ENDBRANCH  19  27
ENDBRANCH   3  19
TORSDOF 8
ENDMDL
MODEL 2
REMARK VINA RESULT:      -8.9      1.144      1.408
REMARK  Name = 
REMARK  10 active torsions:
REMARK  status: ('A' for Active; 'I' for Inactive)
REMARK    1  A    between atoms: C_1  and  C_2
REMARK    2  A    between atoms: C_5  and  C_6
REMARK    3  A    between atoms: C_9  and  C_10
REMARK    4  A    between atoms: N_12  and  C_13
REMARK    5  A    between atoms: C_13  and  C_14
REMARK    6  A    between atoms: C_13  and  C_23
REMARK    7  A    between atoms: C_16  and  C_17
REMARK    8  A    between atoms: C_18  and  C_19
REMARK    9  A    between atoms: C_19  and  C_20
REMARK   10  A    between atoms: C_20  and  O_21
REMARK                            x       y       z     vdW  Elec       q    Type
REMARK                         _______ _______ _______ _____ _____    ______ ____
ROOT
ATOM      1  C   UNL     1       7.818   6.379  18.712  0.00  0.00    +0.000 C 
ATOM      2  O   UNL     1       8.432   5.679  19.496  0.00  0.00    +0.000 OA
ATOM      3  N   UNL     1       6.816   5.900  17.884  0.00  0.00    +0.000 N 
ATOM      4  H   UNL     1       6.424   6.532  17.208  0.00  0.00    +0.000 HD
ENDROOT
BRANCH   1   8
ATOM      5  C   UNL     1       8.992   9.928  18.711  0.00  0.00    +0.000 A 
ATOM      6  C   UNL     1       8.308   9.826  17.511  0.00  0.00    +0.000 A 
ATOM      7  C   UNL     1       7.608   8.621  17.500  0.00  0.00    +0.000 A 
ATOM      8  C   UNL     1       8.107   7.817  18.508  0.00  0.00    +0.000 A 
ATOM      9  N   UNL     1       8.949   8.646  19.275  0.00  0.00    +0.000 N 
ATOM     10  H   UNL     1       9.405   8.354  20.128  0.00  0.00    +0.000 HD
BRANCH   5  15
ATOM     11  C   UNL     1      11.632  14.917  20.073  0.00  0.00    +0.000 C 
ATOM     12  C   UNL     1      10.838  13.667  19.842  0.00  0.00    +0.000 A 
ATOM     13  C   UNL     1      10.598  12.704  20.838  0.00  0.00    +0.000 A 
ATOM     14  C   UNL     1       9.940  11.479  20.541  0.00  0.00    +0.000 A 
ATOM     15  C   UNL     1       9.511  11.209  19.239  0.00  0.00    +0.000 A 
ATOM     16  C   UNL     1       9.700  12.227  18.276  0.00  0.00    +0.000 A 
ATOM     17  C   UNL     1      10.357  13.412  18.567  0.00  0.00    +0.000 A 
ATOM     18  F   UNL     1      10.559  14.297  17.579  0.00  0.00    +0.000 F 
ENDBRANCH   5  15
ENDBRANCH   1   8
BRANCH   3  19
ATOM     19  C   UNL     1       6.423   4.506  17.607  0.00  0.00    +0.000 C 
BRANCH  19  20
ATOM     20  C   UNL     1       4.893   4.198  17.943  0.00  0.00    +0.000 C 
ATOM     21  C   UNL     1       4.143   5.440  18.499  0.00  0.00    +0.000 C 
ATOM     22  C   UNL     1       2.723   5.163  18.985  0.00  0.00    +0.000 C 
ATOM     23  C   UNL     1       2.647   3.900  19.824  0.00  0.00    +0.000 C 
ATOM     24  C   UNL     1       3.331   2.734  19.122  0.00  0.00    +0.000 C 
ATOM     25  N   UNL     1       4.736   3.035  18.840  0.00  0.00    +0.000 NA
ATOM     26  H   UNL     1       5.169   2.217  18.407  0.00  0.00    +0.000 HD
ENDBRANCH  19  20
BRANCH  19  27
ATOM     27  C   UNL     1       6.588   4.275  16.097  0.00  0.00    +0.000 A 
ATOM     28  N   UNL     1       7.477   4.909  15.352  0.00  0.00    +0.000 NA
ATOM     29  C   UNL     1       7.195   4.739  14.002  0.00  0.00    +0.000 A 
ATOM     30  C   UNL     1       8.046   5.453  13.011  0.00  0.00    +0.000 C 
ATOM     31  C   UNL     1       6.106   3.924  13.734  0.00  0.00    +0.000 A 
ATOM     32  S   UNL     1       5.446   3.339  15.211  0.00  0.00    +0.000 S 
BRANCH  31  33
ATOM     33  C   UNL     1       5.524   3.514  12.406  0.00  0.00    +0.000 C 
BRANCH  33  34
ATOM     34  C   UNL     1       6.415   2.564  11.602  0.00  0.00    +0.000 C 
BRANCH  34  35
ATOM     35  O   UNL     1       5.928   1.228  11.626  0.00  0.00    +0.000 OA
ATOM     36  H   UNL     1       4.973   1.273  11.814  0.00  0.00    +0.000 HD
ENDBRANCH  34  35
ENDBRANCH  33  34
ENDBRANCH  31  33
ENDBRANCH  19  27
ENDBRANCH   3  19
TORSDOF 8
ENDMDL
MODEL 3
REMARK VINA RESULT:      -8.5      3.360      5.799
REMARK  Name = 
REMARK  10 active torsions:
REMARK  status: ('A' for Active; 'I' for Inactive)
REMARK    1  A    between atoms: C_1  and  C_2
REMARK    2  A    between atoms: C_5  and  C_6
REMARK    3  A    between atoms: C_9  and  C_10
REMARK    4  A    between atoms: N_12  and  C_13
REMARK    5  A    between atoms: C_13  and  C_14
REMARK    6  A    between atoms: C_13  and  C_23
REMARK    7  A    between atoms: C_16  and  C_17
REMARK    8  A    between atoms: C_18  and  C_19
REMARK    9  A    between atoms: C_19  and  C_20
REMARK   10  A    between atoms: C_20  and  O_21
REMARK                            x       y       z     vdW  Elec       q    Type
REMARK                         _______ _______ _______ _____ _____    ______ ____
ROOT
ATOM      1  C   UNL     1       5.750   6.934  16.979  0.00  0.00    +0.000 C 
ATOM      2  O   UNL     1       5.579   6.907  15.773  0.00  0.00    +0.000 OA
ATOM      3  N   UNL     1       4.831   6.441  17.891  0.00  0.00    +0.000 N 
ATOM      4  H   UNL     1       5.016   6.583  18.868  0.00  0.00    +0.000 HD
ENDROOT
BRANCH   1   8
ATOM      5  C   UNL     1       8.443   9.085  18.427  0.00  0.00    +0.000 A 
ATOM      6  C   UNL     1       8.723   7.836  18.955  0.00  0.00    +0.000 A 
ATOM      7  C   UNL     1       7.939   6.889  18.300  0.00  0.00    +0.000 A 
ATOM      8  C   UNL     1       6.934   7.552  17.618  0.00  0.00    +0.000 A 
ATOM      9  N   UNL     1       7.269   8.918  17.679  0.00  0.00    +0.000 N 
ATOM     10  H   UNL     1       6.754   9.648  17.206  0.00  0.00    +0.000 HD
BRANCH   5  15
ATOM     11  C   UNL     1      11.318  13.978  19.655  0.00  0.00    +0.000 C 
ATOM     12  C   UNL     1      10.713  12.667  19.251  0.00  0.00    +0.000 A 
ATOM     13  C   UNL     1      10.542  12.269  17.914  0.00  0.00    +0.000 A 
ATOM     14  C   UNL     1       9.858  11.068  17.580  0.00  0.00    +0.000 A 
ATOM     15  C   UNL     1       9.339  10.252  18.587  0.00  0.00    +0.000 A 
ATOM     16  C   UNL     1       9.590  10.639  19.923  0.00  0.00    +0.000 A 
ATOM     17  C   UNL     1      10.244  11.819  20.243  0.00  0.00    +0.000 A 
ATOM     18  F   UNL     1      10.379  12.151  21.536  0.00  0.00    +0.000 F 
ENDBRANCH   5  15
ENDBRANCH   1   8
BRANCH   3  19
ATOM     19  C   UNL     1       3.443   5.995  17.668  0.00  0.00    +0.000 C 
BRANCH  19  20
ATOM     20  C   UNL     1       3.138   4.543  18.258  0.00  0.00    +0.000 C 
ATOM     21  C   UNL     1       4.362   3.930  18.995  0.00  0.00    +0.000 C 
ATOM     22  C   UNL     1       4.177   2.482  19.441  0.00  0.00    +0.000 C 
ATOM     23  C   UNL     1       3.551   1.629  18.353  0.00  0.00    +0.000 C 
ATOM     24  C   UNL     1       2.305   2.295  17.784  0.00  0.00    +0.000 C 
ATOM     25  N   UNL     1       2.614   3.616  17.234  0.00  0.00    +0.000 NA
ATOM     26  H   UNL     1       1.765   4.012  16.827  0.00  0.00    +0.000 HD
ENDBRANCH  19  20
BRANCH  19  27
ATOM     27  C   UNL     1       2.523   6.969  18.419  0.00  0.00    +0.000 A 
ATOM     28  N   UNL     1       2.074   8.099  17.902  0.00  0.00    +0.000 NA
ATOM     29  C   UNL     1       1.537   8.911  18.893  0.00  0.00    +0.000 A 
ATOM     30  C   UNL     1       1.055  10.266  18.506  0.00  0.00    +0.000 C 
ATOM     31  C   UNL     1       1.539   8.357  20.164  0.00  0.00    +0.000 A 
ATOM     32  S   UNL     1       2.206   6.772  20.100  0.00  0.00    +0.000 S 
BRANCH  31  33
ATOM     33  C   UNL     1       1.035   8.937  21.460  0.00  0.00    +0.000 C 
BRANCH  33  34
ATOM     34  C   UNL     1      -0.424   8.591  21.771  0.00  0.00    +0.000 C 
BRANCH  34  35
ATOM     35  O   UNL     1      -0.831   9.091  23.039  0.00  0.00    +0.000 OA
ATOM     36  H   UNL     1      -0.945  10.054  22.946  0.00  0.00    +0.000 HD
ENDBRANCH  34  35
ENDBRANCH  33  34
ENDBRANCH  31  33
ENDBRANCH  19  27
ENDBRANCH   3  19
TORSDOF 8
ENDMDL
MODEL 4
REMARK VINA RESULT:      -8.2      3.529      5.923
REMARK  Name = 
REMARK  10 active torsions:
REMARK  status: ('A' for Active; 'I' for Inactive)
REMARK    1  A    between atoms: C_1  and  C_2
REMARK    2  A    between atoms: C_5  and  C_6
REMARK    3  A    between atoms: C_9  and  C_10
REMARK    4  A    between atoms: N_12  and  C_13
REMARK    5  A    between atoms: C_13  and  C_14
REMARK    6  A    between atoms: C_13  and  C_23
REMARK    7  A    between atoms: C_16  and  C_17
REMARK    8  A    between atoms: C_18  and  C_19
REMARK    9  A    between atoms: C_19  and  C_20
REMARK   10  A    between atoms: C_20  and  O_21
REMARK                            x       y       z     vdW  Elec       q    Type
REMARK                         _______ _______ _______ _____ _____    ______ ____
ROOT
ATOM      1  C   UNL     1       5.963   6.861  17.015  0.00  0.00    +0.000 C 
ATOM      2  O   UNL     1       5.959   6.419  15.880  0.00  0.00    +0.000 OA
ATOM      3  N   UNL     1       4.916   6.688  17.904  0.00  0.00    +0.000 N 
ATOM      4  H   UNL     1       4.968   7.161  18.790  0.00  0.00    +0.000 HD
ENDROOT
BRANCH   1   8
ATOM      5  C   UNL     1       8.405   9.468  18.115  0.00  0.00    +0.000 A 
ATOM      6  C   UNL     1       8.766   8.365  18.870  0.00  0.00    +0.000 A 
ATOM      7  C   UNL     1       8.091   7.250  18.379  0.00  0.00    +0.000 A 
ATOM      8  C   UNL     1       7.064   7.686  17.561  0.00  0.00    +0.000 A 
ATOM      9  N   UNL     1       7.282   9.065  17.380  0.00  0.00    +0.000 N 
ATOM     10  H   UNL     1       6.729   9.650  16.767  0.00  0.00    +0.000 HD
BRANCH   5  15
ATOM     11  C   UNL     1      10.973  14.605  17.256  0.00  0.00    +0.000 C 
ATOM     12  C   UNL     1      10.401  13.268  17.620  0.00  0.00    +0.000 A 
ATOM     13  C   UNL     1      11.182  12.116  17.813  0.00  0.00    +0.000 A 
ATOM     14  C   UNL     1      10.585  10.845  18.043  0.00  0.00    +0.000 A 
ATOM     15  C   UNL     1       9.195  10.720  18.083  0.00  0.00    +0.000 A 
ATOM     16  C   UNL     1       8.438  11.907  17.959  0.00  0.00    +0.000 A 
ATOM     17  C   UNL     1       9.024  13.140  17.720  0.00  0.00    +0.000 A 
ATOM     18  F   UNL     1       8.232  14.208  17.542  0.00  0.00    +0.000 F 
ENDBRANCH   5  15
ENDBRANCH   1   8
BRANCH   3  19
ATOM     19  C   UNL     1       3.560   6.161  17.658  0.00  0.00    +0.000 C 
BRANCH  19  20
ATOM     20  C   UNL     1       3.280   4.763  18.376  0.00  0.00    +0.000 C 
ATOM     21  C   UNL     1       4.566   4.139  18.987  0.00  0.00    +0.000 C 
ATOM     22  C   UNL     1       4.387   2.730  19.545  0.00  0.00    +0.000 C 
ATOM     23  C   UNL     1       3.590   1.844  18.605  0.00  0.00    +0.000 C 
ATOM     24  C   UNL     1       2.306   2.532  18.161  0.00  0.00    +0.000 C 
ATOM     25  N   UNL     1       2.590   3.803  17.491  0.00  0.00    +0.000 NA
ATOM     26  H   UNL     1       1.711   4.213  17.172  0.00  0.00    +0.000 HD
ENDBRANCH  19  20
BRANCH  19  27
ATOM     27  C   UNL     1       2.564   7.163  18.260  0.00  0.00    +0.000 A 
ATOM     28  N   UNL     1       2.246   8.313  17.691  0.00  0.00    +0.000 NA
ATOM     29  C   UNL     1       1.581   9.137  18.589  0.00  0.00    +0.000 A 
ATOM     30  C   UNL     1       1.217  10.512  18.146  0.00  0.00    +0.000 C 
ATOM     31  C   UNL     1       1.354   8.575  19.837  0.00  0.00    +0.000 A 
ATOM     32  S   UNL     1       1.966   6.967  19.864  0.00  0.00    +0.000 S 
BRANCH  31  33
ATOM     33  C   UNL     1       0.664   9.164  21.039  0.00  0.00    +0.000 C 
BRANCH  33  34
ATOM     34  C   UNL     1       1.448   9.011  22.345  0.00  0.00    +0.000 C 
BRANCH  34  35
ATOM     35  O   UNL     1       0.820   9.691  23.425  0.00  0.00    +0.000 OA
ATOM     36  H   UNL     1       0.658   9.033  24.125  0.00  0.00    +0.000 HD
ENDBRANCH  34  35
ENDBRANCH  33  34
ENDBRANCH  31  33
ENDBRANCH  19  27
ENDBRANCH   3  19
TORSDOF 8
ENDMDL
MODEL 5
REMARK VINA RESULT:      -8.2      6.973     10.361
REMARK  Name = 
REMARK  10 active torsions:
REMARK  status: ('A' for Active; 'I' for Inactive)
REMARK    1  A    between atoms: C_1  and  C_2
REMARK    2  A    between atoms: C_5  and  C_6
REMARK    3  A    between atoms: C_9  and  C_10
REMARK    4  A    between atoms: N_12  and  C_13
REMARK    5  A    between atoms: C_13  and  C_14
REMARK    6  A    between atoms: C_13  and  C_23
REMARK    7  A    between atoms: C_16  and  C_17
REMARK    8  A    between atoms: C_18  and  C_19
REMARK    9  A    between atoms: C_19  and  C_20
REMARK   10  A    between atoms: C_20  and  O_21
REMARK                            x       y       z     vdW  Elec       q    Type
REMARK                         _______ _______ _______ _____ _____    ______ ____
ROOT
ATOM      1  C   UNL     1       0.670   8.966  21.050  0.00  0.00    +0.000 C 
ATOM      2  O   UNL     1      -0.083   8.812  21.995  0.00  0.00    +0.000 OA
ATOM      3  N   UNL     1       0.858  10.182  20.414  0.00  0.00    +0.000 N 
ATOM      4  H   UNL     1       1.432  10.197  19.590  0.00  0.00    +0.000 HD
ENDROOT
BRANCH   1   8
ATOM      5  C   UNL     1       2.850   6.656  19.079  0.00  0.00    +0.000 A 
ATOM      6  C   UNL     1       2.493   5.888  20.175  0.00  0.00    +0.000 A 
ATOM      7  C   UNL     1       1.480   6.547  20.869  0.00  0.00    +0.000 A 
ATOM      8  C   UNL     1       1.433   7.859  20.431  0.00  0.00    +0.000 A 
ATOM      9  N   UNL     1       2.269   7.912  19.299  0.00  0.00    +0.000 N 
ATOM     10  H   UNL     1       2.381   8.732  18.718  0.00  0.00    +0.000 HD
BRANCH   5  15
ATOM     11  C   UNL     1       6.130   3.932  15.138  0.00  0.00    +0.000 C 
ATOM     12  C   UNL     1       5.213   4.717  16.025  0.00  0.00    +0.000 A 
ATOM     13  C   UNL     1       5.190   6.122  16.072  0.00  0.00    +0.000 A 
ATOM     14  C   UNL     1       4.385   6.820  17.013  0.00  0.00    +0.000 A 
ATOM     15  C   UNL     1       3.590   6.113  17.919  0.00  0.00    +0.000 A 
ATOM     16  C   UNL     1       3.577   4.705  17.799  0.00  0.00    +0.000 A 
ATOM     17  C   UNL     1       4.375   4.029  16.890  0.00  0.00    +0.000 A 
ATOM     18  F   UNL     1       4.358   2.688  16.889  0.00  0.00    +0.000 F 
ENDBRANCH   5  15
ENDBRANCH   1   8
BRANCH   3  19
ATOM     19  C   UNL     1       0.100  11.439  20.562  0.00  0.00    +0.000 C 
BRANCH  19  20
ATOM     20  C   UNL     1       0.953  12.742  20.212  0.00  0.00    +0.000 C 
ATOM     21  C   UNL     1       1.906  12.523  19.004  0.00  0.00    +0.000 C 
ATOM     22  C   UNL     1       2.858  13.683  18.725  0.00  0.00    +0.000 C 
ATOM     23  C   UNL     1       3.495  14.212  19.997  0.00  0.00    +0.000 C 
ATOM     24  C   UNL     1       2.443  14.481  21.066  0.00  0.00    +0.000 C 
ATOM     25  N   UNL     1       1.686  13.268  21.381  0.00  0.00    +0.000 NA
ATOM     26  H   UNL     1       1.021  13.477  22.128  0.00  0.00    +0.000 HD
ENDBRANCH  19  20
BRANCH  19  27
ATOM     27  C   UNL     1      -1.058  11.396  19.553  0.00  0.00    +0.000 A 
ATOM     28  N   UNL     1      -2.203  12.034  19.725  0.00  0.00    +0.000 NA
ATOM     29  C   UNL     1      -3.160  11.572  18.830  0.00  0.00    +0.000 A 
ATOM     30  C   UNL     1      -4.541  12.120  18.932  0.00  0.00    +0.000 C 
ATOM     31  C   UNL     1      -2.708  10.606  17.942  0.00  0.00    +0.000 A 
ATOM     32  S   UNL     1      -1.038  10.301  18.224  0.00  0.00    +0.000 S 
BRANCH  31  33
ATOM     33  C   UNL     1      -3.453   9.897  16.843  0.00  0.00    +0.000 C 
BRANCH  33  34
ATOM     34  C   UNL     1      -2.966  10.246  15.434  0.00  0.00    +0.000 C 
BRANCH  34  35
ATOM     35  O   UNL     1      -3.382  11.546  15.034  0.00  0.00    +0.000 OA
ATOM     36  H   UNL     1      -4.352  11.525  14.948  0.00  0.00    +0.000 HD
ENDBRANCH  34  35
ENDBRANCH  33  34
ENDBRANCH  31  33
ENDBRANCH  19  27
ENDBRANCH   3  19
TORSDOF 8
ENDMDL
MODEL 6
REMARK VINA RESULT:      -8.1      6.722     10.123
REMARK  Name = 
REMARK  10 active torsions:
REMARK  status: ('A' for Active; 'I' for Inactive)
REMARK    1  A    between atoms: C_1  and  C_2
REMARK    2  A    between atoms: C_5  and  C_6
REMARK    3  A    between atoms: C_9  and  C_10
REMARK    4  A    between atoms: N_12  and  C_13
REMARK    5  A    between atoms: C_13  and  C_14
REMARK    6  A    between atoms: C_13  and  C_23
REMARK    7  A    between atoms: C_16  and  C_17
REMARK    8  A    between atoms: C_18  and  C_19
REMARK    9  A    between atoms: C_19  and  C_20
REMARK   10  A    between atoms: C_20  and  O_21
REMARK                            x       y       z     vdW  Elec       q    Type
REMARK                         _______ _______ _______ _____ _____    ______ ____
ROOT
ATOM      1  C   UNL     1       0.893   8.884  21.079  0.00  0.00    +0.000 C 
ATOM      2  O   UNL     1       0.501   8.961  22.230  0.00  0.00    +0.000 OA
ATOM      3  N   UNL     1       0.726   9.894  20.147  0.00  0.00    +0.000 N 
ATOM      4  H   UNL     1       1.004   9.710  19.199  0.00  0.00    +0.000 HD
ENDROOT
BRANCH   1   8
ATOM      5  C   UNL     1       2.947   6.282  19.351  0.00  0.00    +0.000 A 
ATOM      6  C   UNL     1       2.265   5.554  20.311  0.00  0.00    +0.000 A 
ATOM      7  C   UNL     1       1.278   6.365  20.867  0.00  0.00    +0.000 A 
ATOM      8  C   UNL     1       1.546   7.677  20.523  0.00  0.00    +0.000 A 
ATOM      9  N   UNL     1       2.569   7.616  19.558  0.00  0.00    +0.000 N 
ATOM     10  H   UNL     1       2.930   8.422  19.064  0.00  0.00    +0.000 HD
BRANCH   5  15
ATOM     11  C   UNL     1       5.680   4.308  14.623  0.00  0.00    +0.000 C 
ATOM     12  C   UNL     1       5.094   4.739  15.933  0.00  0.00    +0.000 A 
ATOM     13  C   UNL     1       4.679   3.841  16.932  0.00  0.00    +0.000 A 
ATOM     14  C   UNL     1       4.022   4.293  18.110  0.00  0.00    +0.000 A 
ATOM     15  C   UNL     1       3.777   5.655  18.298  0.00  0.00    +0.000 A 
ATOM     16  C   UNL     1       4.271   6.540  17.313  0.00  0.00    +0.000 A 
ATOM     17  C   UNL     1       4.897   6.093  16.160  0.00  0.00    +0.000 A 
ATOM     18  F   UNL     1       5.272   6.993  15.239  0.00  0.00    +0.000 F 
ENDBRANCH   5  15
ENDBRANCH   1   8
BRANCH   3  19
ATOM     19  C   UNL     1      -0.089  11.121  20.237  0.00  0.00    +0.000 C 
BRANCH  19  20
ATOM     20  C   UNL     1       0.751  12.460  20.015  0.00  0.00    +0.000 C 
ATOM     21  C   UNL     1       1.597  12.424  18.712  0.00  0.00    +0.000 C 
ATOM     22  C   UNL     1       2.539  13.611  18.531  0.00  0.00    +0.000 C 
ATOM     23  C   UNL     1       3.287  13.942  19.810  0.00  0.00    +0.000 C 
ATOM     24  C   UNL     1       2.332  14.048  20.991  0.00  0.00    +0.000 C 
ATOM     25  N   UNL     1       1.586  12.803  21.184  0.00  0.00    +0.000 NA
ATOM     26  H   UNL     1       0.989  12.898  22.007  0.00  0.00    +0.000 HD
ENDBRANCH  19  20
BRANCH  19  27
ATOM     27  C   UNL     1      -1.124  11.067  19.104  0.00  0.00    +0.000 A 
ATOM     28  N   UNL     1      -2.296  11.677  19.152  0.00  0.00    +0.000 NA
ATOM     29  C   UNL     1      -3.134  11.207  18.149  0.00  0.00    +0.000 A 
ATOM     30  C   UNL     1      -4.530  11.723  18.101  0.00  0.00    +0.000 C 
ATOM     31  C   UNL     1      -2.563  10.264  17.307  0.00  0.00    +0.000 A 
ATOM     32  S   UNL     1      -0.929   9.991  17.773  0.00  0.00    +0.000 S 
BRANCH  31  33
ATOM     33  C   UNL     1      -3.163   9.553  16.123  0.00  0.00    +0.000 C 
BRANCH  33  34
ATOM     34  C   UNL     1      -3.269  10.419  14.865  0.00  0.00    +0.000 C 
BRANCH  34  35
ATOM     35  O   UNL     1      -4.347  10.015  14.030  0.00  0.00    +0.000 OA
ATOM     36  H   UNL     1      -5.146  10.472  14.347  0.00  0.00    +0.000 HD
ENDBRANCH  34  35
ENDBRANCH  33  34
ENDBRANCH  31  33
ENDBRANCH  19  27
ENDBRANCH   3  19
TORSDOF 8
ENDMDL
MODEL 7
REMARK VINA RESULT:      -8.0      7.200     10.462
REMARK  Name = 
REMARK  10 active torsions:
REMARK  status: ('A' for Active; 'I' for Inactive)
REMARK    1  A    between atoms: C_1  and  C_2
REMARK    2  A    between atoms: C_5  and  C_6
REMARK    3  A    between atoms: C_9  and  C_10
REMARK    4  A    between atoms: N_12  and  C_13
REMARK    5  A    between atoms: C_13  and  C_14
REMARK    6  A    between atoms: C_13  and  C_23
REMARK    7  A    between atoms: C_16  and  C_17
REMARK    8  A    between atoms: C_18  and  C_19
REMARK    9  A    between atoms: C_19  and  C_20
REMARK   10  A    between atoms: C_20  and  O_21
REMARK                            x       y       z     vdW  Elec       q    Type
REMARK                         _______ _______ _______ _____ _____    ______ ____
ROOT
ATOM      1  C   UNL     1       0.688   8.833  21.026  0.00  0.00    +0.000 C 
ATOM      2  O   UNL     1      -0.102   8.641  21.933  0.00  0.00    +0.000 OA
ATOM      3  N   UNL     1       0.893  10.072  20.442  0.00  0.00    +0.000 N 
ATOM      4  H   UNL     1       1.501  10.120  19.644  0.00  0.00    +0.000 HD
ENDROOT
BRANCH   1   8
ATOM      5  C   UNL     1       2.914   6.597  19.022  0.00  0.00    +0.000 A 
ATOM      6  C   UNL     1       2.629   5.832  20.141  0.00  0.00    +0.000 A 
ATOM      7  C   UNL     1       1.608   6.453  20.856  0.00  0.00    +0.000 A 
ATOM      8  C   UNL     1       1.484   7.753  20.400  0.00  0.00    +0.000 A 
ATOM      9  N   UNL     1       2.281   7.828  19.242  0.00  0.00    +0.000 N 
ATOM     10  H   UNL     1       2.336   8.642  18.645  0.00  0.00    +0.000 HD
BRANCH   5  15
ATOM     11  C   UNL     1       6.158   3.930  15.012  0.00  0.00    +0.000 C 
ATOM     12  C   UNL     1       5.249   4.702  15.919  0.00  0.00    +0.000 A 
ATOM     13  C   UNL     1       5.226   6.106  15.985  0.00  0.00    +0.000 A 
ATOM     14  C   UNL     1       4.429   6.791  16.944  0.00  0.00    +0.000 A 
ATOM     15  C   UNL     1       3.644   6.071  17.847  0.00  0.00    +0.000 A 
ATOM     16  C   UNL     1       3.630   4.664  17.709  0.00  0.00    +0.000 A 
ATOM     17  C   UNL     1       4.420   4.001  16.783  0.00  0.00    +0.000 A 
ATOM     18  F   UNL     1       4.404   2.660  16.763  0.00  0.00    +0.000 F 
ENDBRANCH   5  15
ENDBRANCH   1   8
BRANCH   3  19
ATOM     19  C   UNL     1       0.120  11.318  20.603  0.00  0.00    +0.000 C 
BRANCH  19  20
ATOM     20  C   UNL     1       0.973  12.638  20.320  0.00  0.00    +0.000 C 
ATOM     21  C   UNL     1       0.787  13.716  21.424  0.00  0.00    +0.000 C 
ATOM     22  C   UNL     1       1.454  15.056  21.125  0.00  0.00    +0.000 C 
ATOM     23  C   UNL     1       1.206  15.506  19.697  0.00  0.00    +0.000 C 
ATOM     24  C   UNL     1       1.522  14.391  18.709  0.00  0.00    +0.000 C 
ATOM     25  N   UNL     1       0.716  13.199  18.979  0.00  0.00    +0.000 NA
ATOM     26  H   UNL     1       0.925  12.491  18.273  0.00  0.00    +0.000 HD
ENDBRANCH  19  20
BRANCH  19  27
ATOM     27  C   UNL     1      -1.004  11.298  19.557  0.00  0.00    +0.000 A 
ATOM     28  N   UNL     1      -2.153  11.937  19.703  0.00  0.00    +0.000 NA
ATOM     29  C   UNL     1      -3.081  11.494  18.769  0.00  0.00    +0.000 A 
ATOM     30  C   UNL     1      -4.463  12.046  18.836  0.00  0.00    +0.000 C 
ATOM     31  C   UNL     1      -2.604  10.543  17.880  0.00  0.00    +0.000 A 
ATOM     32  S   UNL     1      -0.945  10.226  18.210  0.00  0.00    +0.000 S 
BRANCH  31  33
ATOM     33  C   UNL     1      -3.315   9.856  16.744  0.00  0.00    +0.000 C 
BRANCH  33  34
ATOM     34  C   UNL     1      -2.921  10.372  15.358  0.00  0.00    +0.000 C 
BRANCH  34  35
ATOM     35  O   UNL     1      -3.317  11.724  15.161  0.00  0.00    +0.000 OA
ATOM     36  H   UNL     1      -4.265  11.717  14.939  0.00  0.00    +0.000 HD
ENDBRANCH  34  35
ENDBRANCH  33  34
ENDBRANCH  31  33
ENDBRANCH  19  27
ENDBRANCH   3  19
TORSDOF 8
ENDMDL
MODEL 8
REMARK VINA RESULT:      -8.0      7.295     10.632
REMARK  Name = 
REMARK  10 active torsions:
REMARK  status: ('A' for Active; 'I' for Inactive)
REMARK    1  A    between atoms: C_1  and  C_2
REMARK    2  A    between atoms: C_5  and  C_6
REMARK    3  A    between atoms: C_9  and  C_10
REMARK    4  A    between atoms: N_12  and  C_13
REMARK    5  A    between atoms: C_13  and  C_14
REMARK    6  A    between atoms: C_13  and  C_23
REMARK    7  A    between atoms: C_16  and  C_17
REMARK    8  A    between atoms: C_18  and  C_19
REMARK    9  A    between atoms: C_19  and  C_20
REMARK   10  A    between atoms: C_20  and  O_21
REMARK                            x       y       z     vdW  Elec       q    Type
REMARK                         _______ _______ _______ _____ _____    ______ ____
ROOT
ATOM      1  C   UNL     1       0.592   9.160  20.692  0.00  0.00    +0.000 C 
ATOM      2  O   UNL     1      -0.023   9.251  21.739  0.00  0.00    +0.000 OA
ATOM      3  N   UNL     1       0.609  10.155  19.728  0.00  0.00    +0.000 N 
ATOM      4  H   UNL     1       1.072   9.959  18.859  0.00  0.00    +0.000 HD
ENDROOT
BRANCH   1   8
ATOM      5  C   UNL     1       2.848   6.533  19.283  0.00  0.00    +0.000 A 
ATOM      6  C   UNL     1       2.290   5.907  20.385  0.00  0.00    +0.000 A 
ATOM      7  C   UNL     1       1.243   6.693  20.860  0.00  0.00    +0.000 A 
ATOM      8  C   UNL     1       1.351   7.952  20.297  0.00  0.00    +0.000 A 
ATOM      9  N   UNL     1       2.335   7.838  19.297  0.00  0.00    +0.000 N 
ATOM     10  H   UNL     1       2.585   8.584  18.662  0.00  0.00    +0.000 HD
BRANCH   5  15
ATOM     11  C   UNL     1       5.685   4.225  14.773  0.00  0.00    +0.000 C 
ATOM     12  C   UNL     1       5.069   4.747  16.036  0.00  0.00    +0.000 A 
ATOM     13  C   UNL     1       4.618   3.921  17.080  0.00  0.00    +0.000 A 
ATOM     14  C   UNL     1       3.935   4.457  18.206  0.00  0.00    +0.000 A 
ATOM     15  C   UNL     1       3.699   5.830  18.298  0.00  0.00    +0.000 A 
ATOM     16  C   UNL     1       4.229   6.643  17.270  0.00  0.00    +0.000 A 
ATOM     17  C   UNL     1       4.880   6.115  16.166  0.00  0.00    +0.000 A 
ATOM     18  F   UNL     1       5.290   6.949  15.199  0.00  0.00    +0.000 F 
ENDBRANCH   5  15
ENDBRANCH   1   8
BRANCH   3  19
ATOM     19  C   UNL     1      -0.215  11.375  19.633  0.00  0.00    +0.000 C 
BRANCH  19  20
ATOM     20  C   UNL     1       0.538  12.599  18.938  0.00  0.00    +0.000 C 
ATOM     21  C   UNL     1       2.046  12.312  18.698  0.00  0.00    +0.000 C 
ATOM     22  C   UNL     1       2.848  13.504  18.182  0.00  0.00    +0.000 C 
ATOM     23  C   UNL     1       2.518  14.778  18.937  0.00  0.00    +0.000 C 
ATOM     24  C   UNL     1       1.013  14.995  19.014  0.00  0.00    +0.000 C 
ATOM     25  N   UNL     1       0.347  13.868  19.670  0.00  0.00    +0.000 NA
ATOM     26  H   UNL     1      -0.652  14.068  19.740  0.00  0.00    +0.000 HD
ENDBRANCH  19  20
BRANCH  19  27
ATOM     27  C   UNL     1      -1.420  11.045  18.740  0.00  0.00    +0.000 A 
ATOM     28  N   UNL     1      -1.339  10.316  17.640  0.00  0.00    +0.000 NA
ATOM     29  C   UNL     1      -2.496  10.443  16.882  0.00  0.00    +0.000 A 
ATOM     30  C   UNL     1      -2.552   9.755  15.563  0.00  0.00    +0.000 C 
ATOM     31  C   UNL     1      -3.478  11.243  17.448  0.00  0.00    +0.000 A 
ATOM     32  S   UNL     1      -2.940  11.819  18.978  0.00  0.00    +0.000 S 
BRANCH  31  33
ATOM     33  C   UNL     1      -4.845  11.594  16.923  0.00  0.00    +0.000 C 
BRANCH  33  34
ATOM     34  C   UNL     1      -5.747  12.287  17.947  0.00  0.00    +0.000 C 
BRANCH  34  35
ATOM     35  O   UNL     1      -6.108  13.600  17.536  0.00  0.00    +0.000 OA
ATOM     36  H   UNL     1      -6.476  14.055  18.315  0.00  0.00    +0.000 HD
ENDBRANCH  34  35
ENDBRANCH  33  34
ENDBRANCH  31  33
ENDBRANCH  19  27
ENDBRANCH   3  19
TORSDOF 8
ENDMDL
MODEL 9
REMARK VINA RESULT:      -7.9      1.956      2.153
REMARK  Name = 
REMARK  10 active torsions:
REMARK  status: ('A' for Active; 'I' for Inactive)
REMARK    1  A    between atoms: C_1  and  C_2
REMARK    2  A    between atoms: C_5  and  C_6
REMARK    3  A    between atoms: C_9  and  C_10
REMARK    4  A    between atoms: N_12  and  C_13
REMARK    5  A    between atoms: C_13  and  C_14
REMARK    6  A    between atoms: C_13  and  C_23
REMARK    7  A    between atoms: C_16  and  C_17
REMARK    8  A    between atoms: C_18  and  C_19
REMARK    9  A    between atoms: C_19  and  C_20
REMARK   10  A    between atoms: C_20  and  O_21
REMARK                            x       y       z     vdW  Elec       q    Type
REMARK                         _______ _______ _______ _____ _____    ______ ____
ROOT
ATOM      1  C   UNL     1       7.130   7.301  17.219  0.00  0.00    +0.000 C 
ATOM      2  O   UNL     1       6.103   7.506  16.597  0.00  0.00    +0.000 OA
ATOM      3  N   UNL     1       7.623   6.034  17.482  0.00  0.00    +0.000 N 
ATOM      4  H   UNL     1       8.430   5.958  18.076  0.00  0.00    +0.000 HD
ENDROOT
BRANCH   1   8
ATOM      5  C   UNL     1       8.939  10.414  18.227  0.00  0.00    +0.000 A 
ATOM      6  C   UNL     1       9.077   9.599  19.338  0.00  0.00    +0.000 A 
ATOM      7  C   UNL     1       8.658   8.314  19.002  0.00  0.00    +0.000 A 
ATOM      8  C   UNL     1       7.945   8.382  17.819  0.00  0.00    +0.000 A 
ATOM      9  N   UNL     1       8.146   9.686  17.328  0.00  0.00    +0.000 N 
ATOM     10  H   UNL     1       7.803  10.014  16.435  0.00  0.00    +0.000 HD
BRANCH   5  15
ATOM     11  C   UNL     1      10.947  15.749  17.123  0.00  0.00    +0.000 C 
ATOM     12  C   UNL     1      10.556  14.357  17.519  0.00  0.00    +0.000 A 
ATOM     13  C   UNL     1      11.409  13.247  17.400  0.00  0.00    +0.000 A 
ATOM     14  C   UNL     1      10.953  11.929  17.679  0.00  0.00    +0.000 A 
ATOM     15  C   UNL     1       9.634  11.712  18.084  0.00  0.00    +0.000 A 
ATOM     16  C   UNL     1       8.822  12.854  18.265  0.00  0.00    +0.000 A 
ATOM     17  C   UNL     1       9.266  14.135  17.977  0.00  0.00    +0.000 A 
ATOM     18  F   UNL     1       8.410  15.160  18.107  0.00  0.00    +0.000 F 
ENDBRANCH   5  15
ENDBRANCH   1   8
BRANCH   3  19
ATOM     19  C   UNL     1       6.977   4.723  17.285  0.00  0.00    +0.000 C 
BRANCH  19  20
ATOM     20  C   UNL     1       5.459   4.679  17.777  0.00  0.00    +0.000 C 
ATOM     21  C   UNL     1       5.239   5.466  19.099  0.00  0.00    +0.000 C 
ATOM     22  C   UNL     1       3.843   5.326  19.699  0.00  0.00    +0.000 C 
ATOM     23  C   UNL     1       3.360   3.887  19.685  0.00  0.00    +0.000 C 
ATOM     24  C   UNL     1       3.539   3.264  18.306  0.00  0.00    +0.000 C 
ATOM     25  N   UNL     1       4.940   3.301  17.885  0.00  0.00    +0.000 NA
ATOM     26  H   UNL     1       5.026   2.839  16.977  0.00  0.00    +0.000 HD
ENDBRANCH  19  20
BRANCH  19  27
ATOM     27  C   UNL     1       6.949   4.450  15.773  0.00  0.00    +0.000 A 
ATOM     28  N   UNL     1       7.722   5.074  14.901  0.00  0.00    +0.000 NA
ATOM     29  C   UNL     1       7.269   4.860  13.605  0.00  0.00    +0.000 A 
ATOM     30  C   UNL     1       7.971   5.557  12.492  0.00  0.00    +0.000 C 
ATOM     31  C   UNL     1       6.169   4.022  13.504  0.00  0.00    +0.000 A 
ATOM     32  S   UNL     1       5.718   3.471  15.071  0.00  0.00    +0.000 S 
BRANCH  31  33
ATOM     33  C   UNL     1       5.427   3.565  12.276  0.00  0.00    +0.000 C 
BRANCH  33  34
ATOM     34  C   UNL     1       5.785   2.147  11.823  0.00  0.00    +0.000 C 
BRANCH  34  35
ATOM     35  O   UNL     1       7.153   2.037  11.449  0.00  0.00    +0.000 OA
ATOM     36  H   UNL     1       7.686   2.316  12.215  0.00  0.00    +0.000 HD
ENDBRANCH  34  35
ENDBRANCH  33  34
ENDBRANCH  31  33
ENDBRANCH  19  27
ENDBRANCH   3  19
TORSDOF 8
ENDMDL
