MODEL 1
REMARK VINA RESULT:      -8.2      0.000      0.000
REMARK  Name = 
REMARK  6 active torsions:
REMARK  status: ('A' for Active; 'I' for Inactive)
REMARK    1  A    between atoms: C_1  and  C_2
REMARK    2  A    between atoms: C_5  and  S_6
REMARK    3  A    between atoms: S_6  and  N_9
REMARK    4  A    between atoms: C_12  and  C_13
REMARK    5  A    between atoms: N_15  and  N_16
REMARK    6  A    between atoms: C_17  and  C_19
REMARK                            x       y       z     vdW  Elec       q    Type
REMARK                         _______ _______ _______ _____ _____    ______ ____
ROOT
ATOM      1  N   UNL     1       5.039   4.631  18.328  0.00  0.00    +0.000 NA
ATOM      2  C   UNL     1       5.505   4.925  16.953  0.00  0.00    +0.000 C 
ATOM      3  C   UNL     1       7.031   4.853  16.868  0.00  0.00    +0.000 C 
ATOM      4  C   UNL     1       7.710   5.747  17.910  0.00  0.00    +0.000 C 
ATOM      5  C   UNL     1       7.225   5.319  19.296  0.00  0.00    +0.000 C 
ATOM      6  C   UNL     1       5.707   5.387  19.413  0.00  0.00    +0.000 C 
ENDROOT
BRANCH   4   7
ATOM      7  C   UNL     1       7.465   7.226  17.609  0.00  0.00    +0.000 C 
ATOM      8  O   UNL     1       6.602   7.626  16.825  0.00  0.00    +0.000 OA
ATOM      9  N   UNL     1       8.305   8.104  18.252  0.00  0.00    +0.000 N 
ATOM     10  H   UNL     1       9.078   7.842  18.863  0.00  0.00    +0.000 HD
BRANCH   9  11
ATOM     11  N   UNL     1       8.111   9.473  18.041  0.00  0.00    +0.000 N 
ATOM     12  C   UNL     1       8.934  10.360  18.702  0.00  0.00    +0.000 C 
ATOM     13  O   UNL     1       9.817   9.995  19.473  0.00  0.00    +0.000 OA
ATOM     14  H   UNL     1       7.490   9.725  17.273  0.00  0.00    +0.000 HD
BRANCH  12  15
ATOM     15  C   UNL     1       8.714  11.796  18.427  0.00  0.00    +0.000 A 
ATOM     16  C   UNL     1       7.900  12.264  17.393  0.00  0.00    +0.000 A 
ATOM     17  C   UNL     1       7.734  13.639  17.222  0.00  0.00    +0.000 A 
ATOM     18  C   UNL     1       8.389  14.498  18.093  0.00  0.00    +0.000 A 
ATOM     19  N   UNL     1       9.177  14.078  19.105  0.00  0.00    +0.000 NA
ATOM     20  C   UNL     1       9.314  12.736  19.257  0.00  0.00    +0.000 A 
ENDBRANCH  12  15
ENDBRANCH   9  11
ENDBRANCH   4   7
BRANCH   1  21
ATOM     21  S   UNL     1       3.339   4.458  18.508  0.00  0.00    +0.000 S 
ATOM     22  O   UNL     1       3.115   3.721  19.737  0.00  0.00    +0.000 OA
ATOM     23  O   UNL     1       2.782   3.999  17.254  0.00  0.00    +0.000 OA
BRANCH  21  28
ATOM     24  C   UNL     1       1.077  10.027  19.500  0.00  0.00    +0.000 C 
ATOM     25  C   UNL     1       1.678   8.675  19.244  0.00  0.00    +0.000 A 
ATOM     26  C   UNL     1       2.178   8.326  17.980  0.00  0.00    +0.000 A 
ATOM     27  C   UNL     1       2.710   7.051  17.748  0.00  0.00    +0.000 A 
ATOM     28  C   UNL     1       2.750   6.123  18.790  0.00  0.00    +0.000 A 
ATOM     29  C   UNL     1       2.238   6.456  20.051  0.00  0.00    +0.000 A 
ATOM     30  C   UNL     1       1.714   7.730  20.277  0.00  0.00    +0.000 A 
ENDBRANCH  21  28
ENDBRANCH   1  21
TORSDOF 5
ENDMDL
MODEL 2
REMARK VINA RESULT:      -8.0      3.743      6.700
REMARK  Name = 
REMARK  6 active torsions:
REMARK  status: ('A' for Active; 'I' for Inactive)
REMARK    1  A    between atoms: C_1  and  C_2
REMARK    2  A    between atoms: C_5  and  S_6
REMARK    3  A    between atoms: S_6  and  N_9
REMARK    4  A    between atoms: C_12  and  C_13
REMARK    5  A    between atoms: N_15  and  N_16
REMARK    6  A    between atoms: C_17  and  C_19
REMARK                            x       y       z     vdW  Elec       q    Type
REMARK                         _______ _______ _______ _____ _____    ______ ____
ROOT
ATOM      1  N   UNL     1       4.792   6.195  18.744  0.00  0.00    +0.000 NA
ATOM      2  C   UNL     1       5.759   5.141  19.131  0.00  0.00    +0.000 C 
ATOM      3  C   UNL     1       7.187   5.689  19.140  0.00  0.00    +0.000 C 
ATOM      4  C   UNL     1       7.559   6.352  17.811  0.00  0.00    +0.000 C 
ATOM      5  C   UNL     1       6.553   7.472  17.536  0.00  0.00    +0.000 C 
ATOM      6  C   UNL     1       5.119   6.954  17.514  0.00  0.00    +0.000 C 
ENDROOT
BRANCH   4   7
ATOM      7  C   UNL     1       7.644   5.320  16.685  0.00  0.00    +0.000 C 
ATOM      8  O   UNL     1       7.954   4.142  16.867  0.00  0.00    +0.000 OA
ATOM      9  N   UNL     1       7.381   5.802  15.425  0.00  0.00    +0.000 N 
ATOM     10  H   UNL     1       7.180   6.775  15.194  0.00  0.00    +0.000 HD
BRANCH   9  11
ATOM     11  N   UNL     1       7.413   4.899  14.357  0.00  0.00    +0.000 N 
ATOM     12  C   UNL     1       6.220   4.375  13.908  0.00  0.00    +0.000 C 
ATOM     13  O   UNL     1       5.138   4.661  14.415  0.00  0.00    +0.000 OA
ATOM     14  H   UNL     1       8.300   4.822  13.861  0.00  0.00    +0.000 HD
BRANCH  12  15
ATOM     15  C   UNL     1       6.296   3.448  12.759  0.00  0.00    +0.000 A 
ATOM     16  C   UNL     1       7.493   3.112  12.122  0.00  0.00    +0.000 A 
ATOM     17  C   UNL     1       7.470   2.209  11.058  0.00  0.00    +0.000 A 
ATOM     18  C   UNL     1       6.251   1.676  10.668  0.00  0.00    +0.000 A 
ATOM     19  N   UNL     1       5.078   1.975  11.266  0.00  0.00    +0.000 NA
ATOM     20  C   UNL     1       5.127   2.847  12.305  0.00  0.00    +0.000 A 
ENDBRANCH  12  15
ENDBRANCH   9  11
ENDBRANCH   4   7
BRANCH   1  21
ATOM     21  S   UNL     1       3.135   5.773  18.913  0.00  0.00    +0.000 S 
ATOM     22  O   UNL     1       2.999   5.081  20.179  0.00  0.00    +0.000 OA
ATOM     23  O   UNL     1       2.682   5.163  17.681  0.00  0.00    +0.000 OA
BRANCH  21  28
ATOM     24  C   UNL     1       0.032  10.975  19.561  0.00  0.00    +0.000 C 
ATOM     25  C   UNL     1       0.836   9.719  19.386  0.00  0.00    +0.000 A 
ATOM     26  C   UNL     1       1.339   9.344  18.131  0.00  0.00    +0.000 A 
ATOM     27  C   UNL     1       2.063   8.155  17.976  0.00  0.00    +0.000 A 
ATOM     28  C   UNL     1       2.292   7.341  19.088  0.00  0.00    +0.000 A 
ATOM     29  C   UNL     1       1.780   7.698  20.341  0.00  0.00    +0.000 A 
ATOM     30  C   UNL     1       1.063   8.887  20.489  0.00  0.00    +0.000 A 
ENDBRANCH  21  28
ENDBRANCH   1  21
TORSDOF 5
ENDMDL
MODEL 3
REMARK VINA RESULT:      -7.9      4.679      7.404
REMARK  Name = 
REMARK  6 active torsions:
REMARK  status: ('A' for Active; 'I' for Inactive)
REMARK    1  A    between atoms: C_1  and  C_2
REMARK    2  A    between atoms: C_5  and  S_6
REMARK    3  A    between atoms: S_6  and  N_9
REMARK    4  A    between atoms: C_12  and  C_13
REMARK    5  A    between atoms: N_15  and  N_16
REMARK    6  A    between atoms: C_17  and  C_19
REMARK                            x       y       z     vdW  Elec       q    Type
REMARK                         _______ _______ _______ _____ _____    ______ ____
ROOT
ATOM      1  N   UNL     1       5.127   5.046  18.176  0.00  0.00    +0.000 NA
ATOM      2  C   UNL     1       4.947   5.287  19.627  0.00  0.00    +0.000 C 
ATOM      3  C   UNL     1       3.619   4.703  20.115  0.00  0.00    +0.000 C 
ATOM      4  C   UNL     1       2.430   5.210  19.294  0.00  0.00    +0.000 C 
ATOM      5  C   UNL     1       2.671   4.849  17.827  0.00  0.00    +0.000 C 
ATOM      6  C   UNL     1       3.985   5.423  17.310  0.00  0.00    +0.000 C 
ENDROOT
BRANCH   4   7
ATOM      7  C   UNL     1       2.199   6.704  19.523  0.00  0.00    +0.000 C 
ATOM      8  O   UNL     1       2.429   7.564  18.672  0.00  0.00    +0.000 OA
ATOM      9  N   UNL     1       1.743   7.044  20.775  0.00  0.00    +0.000 N 
ATOM     10  H   UNL     1       1.591   6.393  21.545  0.00  0.00    +0.000 HD
BRANCH   9  11
ATOM     11  N   UNL     1       1.484   8.393  21.035  0.00  0.00    +0.000 N 
ATOM     12  C   UNL     1       0.223   8.746  21.468  0.00  0.00    +0.000 C 
ATOM     13  O   UNL     1      -0.677   7.925  21.623  0.00  0.00    +0.000 OA
ATOM     14  H   UNL     1       2.295   9.010  21.060  0.00  0.00    +0.000 HD
BRANCH  12  15
ATOM     15  C   UNL     1       0.001  10.178  21.761  0.00  0.00    +0.000 A 
ATOM     16  C   UNL     1      -0.939  10.636  22.687  0.00  0.00    +0.000 A 
ATOM     17  C   UNL     1      -1.063  12.007  22.913  0.00  0.00    +0.000 A 
ATOM     18  C   UNL     1      -0.242  12.872  22.204  0.00  0.00    +0.000 A 
ATOM     19  N   UNL     1       0.679  12.462  21.307  0.00  0.00    +0.000 NA
ATOM     20  C   UNL     1       0.788  11.123  21.112  0.00  0.00    +0.000 A 
ENDBRANCH  12  15
ENDBRANCH   9  11
ENDBRANCH   4   7
BRANCH   1  21
ATOM     21  S   UNL     1       6.674   5.452  17.548  0.00  0.00    +0.000 S 
ATOM     22  O   UNL     1       7.650   4.679  18.292  0.00  0.00    +0.000 OA
ATOM     23  O   UNL     1       6.777   6.892  17.460  0.00  0.00    +0.000 OA
BRANCH  21  28
ATOM     24  C   UNL     1       6.520   3.476  11.788  0.00  0.00    +0.000 C 
ATOM     25  C   UNL     1       6.572   3.918  13.222  0.00  0.00    +0.000 A 
ATOM     26  C   UNL     1       5.753   3.328  14.197  0.00  0.00    +0.000 A 
ATOM     27  C   UNL     1       5.792   3.769  15.526  0.00  0.00    +0.000 A 
ATOM     28  C   UNL     1       6.662   4.802  15.882  0.00  0.00    +0.000 A 
ATOM     29  C   UNL     1       7.471   5.408  14.913  0.00  0.00    +0.000 A 
ATOM     30  C   UNL     1       7.432   4.960  13.592  0.00  0.00    +0.000 A 
ENDBRANCH  21  28
ENDBRANCH   1  21
TORSDOF 5
ENDMDL
MODEL 4
REMARK VINA RESULT:      -7.8      4.886      7.219
REMARK  Name = 
REMARK  6 active torsions:
REMARK  status: ('A' for Active; 'I' for Inactive)
REMARK    1  A    between atoms: C_1  and  C_2
REMARK    2  A    between atoms: C_5  and  S_6
REMARK    3  A    between atoms: S_6  and  N_9
REMARK    4  A    between atoms: C_12  and  C_13
REMARK    5  A    between atoms: N_15  and  N_16
REMARK    6  A    between atoms: C_17  and  C_19
REMARK                            x       y       z     vdW  Elec       q    Type
REMARK                         _______ _______ _______ _____ _____    ______ ____
ROOT
ATOM      1  N   UNL     1       4.852   4.505  17.960  0.00  0.00    +0.000 NA
ATOM      2  C   UNL     1       4.932   4.354  19.432  0.00  0.00    +0.000 C 
ATOM      3  C   UNL     1       4.118   3.147  19.901  0.00  0.00    +0.000 C 
ATOM      4  C   UNL     1       2.670   3.199  19.405  0.00  0.00    +0.000 C 
ATOM      5  C   UNL     1       2.690   3.275  17.876  0.00  0.00    +0.000 C 
ATOM      6  C   UNL     1       3.489   4.474  17.379  0.00  0.00    +0.000 C 
ENDROOT
BRANCH   4   7
ATOM      7  C   UNL     1       1.903   4.347  20.061  0.00  0.00    +0.000 C 
ATOM      8  O   UNL     1       0.697   4.304  20.308  0.00  0.00    +0.000 OA
ATOM      9  N   UNL     1       2.648   5.470  20.335  0.00  0.00    +0.000 N 
ATOM     10  H   UNL     1       3.632   5.598  20.102  0.00  0.00    +0.000 HD
BRANCH   9  11
ATOM     11  N   UNL     1       2.008   6.544  20.964  0.00  0.00    +0.000 N 
ATOM     12  C   UNL     1       1.783   7.690  20.232  0.00  0.00    +0.000 C 
ATOM     13  O   UNL     1       2.131   7.807  19.060  0.00  0.00    +0.000 OA
ATOM     14  H   UNL     1       1.588   6.347  21.872  0.00  0.00    +0.000 HD
BRANCH  12  15
ATOM     15  C   UNL     1       1.078   8.789  20.926  0.00  0.00    +0.000 A 
ATOM     16  C   UNL     1       0.241   9.697  20.273  0.00  0.00    +0.000 A 
ATOM     17  C   UNL     1      -0.401  10.689  21.014  0.00  0.00    +0.000 A 
ATOM     18  C   UNL     1      -0.182  10.739  22.383  0.00  0.00    +0.000 A 
ATOM     19  N   UNL     1       0.615   9.874  23.045  0.00  0.00    +0.000 NA
ATOM     20  C   UNL     1       1.220   8.911  22.303  0.00  0.00    +0.000 A 
ENDBRANCH  12  15
ENDBRANCH   9  11
ENDBRANCH   4   7
BRANCH   1  21
ATOM     21  S   UNL     1       5.901   5.685  17.282  0.00  0.00    +0.000 S 
ATOM     22  O   UNL     1       7.164   5.587  17.987  0.00  0.00    +0.000 OA
ATOM     23  O   UNL     1       5.192   6.944  17.199  0.00  0.00    +0.000 OA
BRANCH  21  28
ATOM     24  C   UNL     1       6.942   3.479  11.700  0.00  0.00    +0.000 C 
ATOM     25  C   UNL     1       6.685   4.069  13.057  0.00  0.00    +0.000 A 
ATOM     26  C   UNL     1       7.592   4.960  13.649  0.00  0.00    +0.000 A 
ATOM     27  C   UNL     1       7.353   5.481  14.927  0.00  0.00    +0.000 A 
ATOM     28  C   UNL     1       6.195   5.112  15.614  0.00  0.00    +0.000 A 
ATOM     29  C   UNL     1       5.292   4.209  15.039  0.00  0.00    +0.000 A 
ATOM     30  C   UNL     1       5.533   3.699  13.762  0.00  0.00    +0.000 A 
ENDBRANCH  21  28
ENDBRANCH   1  21
TORSDOF 5
ENDMDL
MODEL 5
REMARK VINA RESULT:      -7.7      3.839      6.584
REMARK  Name = 
REMARK  6 active torsions:
REMARK  status: ('A' for Active; 'I' for Inactive)
REMARK    1  A    between atoms: C_1  and  C_2
REMARK    2  A    between atoms: C_5  and  S_6
REMARK    3  A    between atoms: S_6  and  N_9
REMARK    4  A    between atoms: C_12  and  C_13
REMARK    5  A    between atoms: N_15  and  N_16
REMARK    6  A    between atoms: C_17  and  C_19
REMARK                            x       y       z     vdW  Elec       q    Type
REMARK                         _______ _______ _______ _____ _____    ______ ____
ROOT
ATOM      1  N   UNL     1       4.415   3.242  17.757  0.00  0.00    +0.000 NA
ATOM      2  C   UNL     1       4.778   3.788  19.085  0.00  0.00    +0.000 C 
ATOM      3  C   UNL     1       4.232   2.902  20.207  0.00  0.00    +0.000 C 
ATOM      4  C   UNL     1       2.724   2.666  20.073  0.00  0.00    +0.000 C 
ATOM      5  C   UNL     1       2.459   2.032  18.706  0.00  0.00    +0.000 C 
ATOM      6  C   UNL     1       2.986   2.896  17.567  0.00  0.00    +0.000 C 
ENDROOT
BRANCH   4   7
ATOM      7  C   UNL     1       1.941   3.958  20.307  0.00  0.00    +0.000 C 
ATOM      8  O   UNL     1       0.728   4.060  20.117  0.00  0.00    +0.000 OA
ATOM      9  N   UNL     1       2.692   5.034  20.718  0.00  0.00    +0.000 N 
ATOM     10  H   UNL     1       3.705   5.038  20.834  0.00  0.00    +0.000 HD
BRANCH   9  11
ATOM     11  N   UNL     1       2.027   6.237  20.978  0.00  0.00    +0.000 N 
ATOM     12  C   UNL     1       2.129   7.254  20.052  0.00  0.00    +0.000 C 
ATOM     13  O   UNL     1       2.787   7.146  19.020  0.00  0.00    +0.000 OA
ATOM     14  H   UNL     1       1.362   6.225  21.750  0.00  0.00    +0.000 HD
BRANCH  12  15
ATOM     15  C   UNL     1       1.386   8.497  20.351  0.00  0.00    +0.000 A 
ATOM     16  C   UNL     1       0.984   8.859  21.638  0.00  0.00    +0.000 A 
ATOM     17  C   UNL     1       0.306  10.064  21.828  0.00  0.00    +0.000 A 
ATOM     18  C   UNL     1       0.055  10.864  20.723  0.00  0.00    +0.000 A 
ATOM     19  N   UNL     1       0.435  10.545  19.468  0.00  0.00    +0.000 NA
ATOM     20  C   UNL     1       1.102   9.373  19.310  0.00  0.00    +0.000 A 
ENDBRANCH  12  15
ENDBRANCH   9  11
ENDBRANCH   4   7
BRANCH   1  21
ATOM     21  S   UNL     1       5.156   4.016  16.414  0.00  0.00    +0.000 S 
ATOM     22  O   UNL     1       4.099   4.655  15.656  0.00  0.00    +0.000 OA
ATOM     23  O   UNL     1       6.064   3.083  15.782  0.00  0.00    +0.000 OA
BRANCH  21  28
ATOM     24  C   UNL     1       8.587   8.534  18.634  0.00  0.00    +0.000 C 
ATOM     25  C   UNL     1       7.730   7.406  18.133  0.00  0.00    +0.000 A 
ATOM     26  C   UNL     1       8.027   6.071  18.444  0.00  0.00    +0.000 A 
ATOM     27  C   UNL     1       7.235   5.028  17.947  0.00  0.00    +0.000 A 
ATOM     28  C   UNL     1       6.135   5.324  17.140  0.00  0.00    +0.000 A 
ATOM     29  C   UNL     1       5.841   6.653  16.809  0.00  0.00    +0.000 A 
ATOM     30  C   UNL     1       6.631   7.688  17.313  0.00  0.00    +0.000 A 
ENDBRANCH  21  28
ENDBRANCH   1  21
TORSDOF 5
ENDMDL
MODEL 6
REMARK VINA RESULT:      -7.7      4.711      7.315
REMARK  Name = 
REMARK  6 active torsions:
REMARK  status: ('A' for Active; 'I' for Inactive)
REMARK    1  A    between atoms: C_1  and  C_2
REMARK    2  A    between atoms: C_5  and  S_6
REMARK    3  A    between atoms: S_6  and  N_9
REMARK    4  A    between atoms: C_12  and  C_13
REMARK    5  A    between atoms: N_15  and  N_16
REMARK    6  A    between atoms: C_17  and  C_19
REMARK                            x       y       z     vdW  Elec       q    Type
REMARK                         _______ _______ _______ _____ _____    ______ ____
ROOT
ATOM      1  N   UNL     1       5.379   4.744  17.068  0.00  0.00    +0.000 NA
ATOM      2  C   UNL     1       5.589   5.014  18.510  0.00  0.00    +0.000 C 
ATOM      3  C   UNL     1       5.153   3.817  19.357  0.00  0.00    +0.000 C 
ATOM      4  C   UNL     1       3.714   3.389  19.055  0.00  0.00    +0.000 C 
ATOM      5  C   UNL     1       3.616   3.059  17.564  0.00  0.00    +0.000 C 
ATOM      6  C   UNL     1       4.038   4.237  16.693  0.00  0.00    +0.000 C 
ENDROOT
BRANCH   4   7
ATOM      7  C   UNL     1       2.716   4.455  19.509  0.00  0.00    +0.000 C 
ATOM      8  O   UNL     1       1.499   4.359  19.342  0.00  0.00    +0.000 OA
ATOM      9  N   UNL     1       3.270   5.567  20.098  0.00  0.00    +0.000 N 
ATOM     10  H   UNL     1       4.268   5.739  20.212  0.00  0.00    +0.000 HD
BRANCH   9  11
ATOM     11  N   UNL     1       2.405   6.563  20.562  0.00  0.00    +0.000 N 
ATOM     12  C   UNL     1       2.139   7.635  19.737  0.00  0.00    +0.000 C 
ATOM     13  O   UNL     1       2.638   7.751  18.621  0.00  0.00    +0.000 OA
ATOM     14  H   UNL     1       1.885   6.346  21.412  0.00  0.00    +0.000 HD
BRANCH  12  15
ATOM     15  C   UNL     1       1.196   8.650  20.254  0.00  0.00    +0.000 A 
ATOM     16  C   UNL     1       0.604   8.574  21.517  0.00  0.00    +0.000 A 
ATOM     17  C   UNL     1      -0.257   9.591  21.930  0.00  0.00    +0.000 A 
ATOM     18  C   UNL     1      -0.497  10.648  21.063  0.00  0.00    +0.000 A 
ATOM     19  N   UNL     1       0.063  10.753  19.840  0.00  0.00    +0.000 NA
ATOM     20  C   UNL     1       0.906   9.756  19.465  0.00  0.00    +0.000 A 
ENDBRANCH  12  15
ENDBRANCH   9  11
ENDBRANCH   4   7
BRANCH   1  21
ATOM     21  S   UNL     1       6.034   5.915  15.995  0.00  0.00    +0.000 S 
ATOM     22  O   UNL     1       7.333   6.291  16.518  0.00  0.00    +0.000 OA
ATOM     23  O   UNL     1       5.024   6.916  15.726  0.00  0.00    +0.000 OA
BRANCH  21  28
ATOM     24  C   UNL     1       7.069   2.615  10.980  0.00  0.00    +0.000 C 
ATOM     25  C   UNL     1       6.815   3.470  12.189  0.00  0.00    +0.000 A 
ATOM     26  C   UNL     1       7.740   4.439  12.605  0.00  0.00    +0.000 A 
ATOM     27  C   UNL     1       7.504   5.210  13.750  0.00  0.00    +0.000 A 
ATOM     28  C   UNL     1       6.328   5.014  14.479  0.00  0.00    +0.000 A 
ATOM     29  C   UNL     1       5.407   4.038  14.082  0.00  0.00    +0.000 A 
ATOM     30  C   UNL     1       5.646   3.277  12.936  0.00  0.00    +0.000 A 
ENDBRANCH  21  28
ENDBRANCH   1  21
TORSDOF 5
ENDMDL
MODEL 7
REMARK VINA RESULT:      -7.7      4.917      7.209
REMARK  Name = 
REMARK  6 active torsions:
REMARK  status: ('A' for Active; 'I' for Inactive)
REMARK    1  A    between atoms: C_1  and  C_2
REMARK    2  A    between atoms: C_5  and  S_6
REMARK    3  A    between atoms: S_6  and  N_9
REMARK    4  A    between atoms: C_12  and  C_13
REMARK    5  A    between atoms: N_15  and  N_16
REMARK    6  A    between atoms: C_17  and  C_19
REMARK                            x       y       z     vdW  Elec       q    Type
REMARK                         _______ _______ _______ _____ _____    ______ ____
ROOT
ATOM      1  N   UNL     1       4.802   4.046  18.217  0.00  0.00    +0.000 NA
ATOM      2  C   UNL     1       4.720   3.841  19.682  0.00  0.00    +0.000 C 
ATOM      3  C   UNL     1       3.749   2.708  20.020  0.00  0.00    +0.000 C 
ATOM      4  C   UNL     1       2.369   2.923  19.390  0.00  0.00    +0.000 C 
ATOM      5  C   UNL     1       2.549   3.046  17.875  0.00  0.00    +0.000 C 
ATOM      6  C   UNL     1       3.507   4.172  17.507  0.00  0.00    +0.000 C 
ENDROOT
BRANCH   4   7
ATOM      7  C   UNL     1       1.658   4.122  20.018  0.00  0.00    +0.000 C 
ATOM      8  O   UNL     1       0.453   4.138  20.276  0.00  0.00    +0.000 OA
ATOM      9  N   UNL     1       2.451   5.221  20.250  0.00  0.00    +0.000 N 
ATOM     10  H   UNL     1       3.437   5.300  20.005  0.00  0.00    +0.000 HD
BRANCH   9  11
ATOM     11  N   UNL     1       1.863   6.339  20.851  0.00  0.00    +0.000 N 
ATOM     12  C   UNL     1       1.826   7.520  20.140  0.00  0.00    +0.000 C 
ATOM     13  O   UNL     1       2.297   7.628  19.010  0.00  0.00    +0.000 OA
ATOM     14  H   UNL     1       1.339   6.165  21.707  0.00  0.00    +0.000 HD
BRANCH  12  15
ATOM     15  C   UNL     1       1.169   8.669  20.800  0.00  0.00    +0.000 A 
ATOM     16  C   UNL     1       0.348   9.575  20.125  0.00  0.00    +0.000 A 
ATOM     17  C   UNL     1      -0.248  10.617  20.835  0.00  0.00    +0.000 A 
ATOM     18  C   UNL     1      -0.001  10.716  22.197  0.00  0.00    +0.000 A 
ATOM     19  N   UNL     1       0.782   9.854  22.879  0.00  0.00    +0.000 NA
ATOM     20  C   UNL     1       1.343   8.843  22.168  0.00  0.00    +0.000 A 
ENDBRANCH  12  15
ENDBRANCH   9  11
ENDBRANCH   4   7
BRANCH   1  21
ATOM     21  S   UNL     1       6.023   5.134  17.691  0.00  0.00    +0.000 S 
ATOM     22  O   UNL     1       7.233   4.796  18.416  0.00  0.00    +0.000 OA
ATOM     23  O   UNL     1       5.491   6.479  17.719  0.00  0.00    +0.000 OA
BRANCH  21  28
ATOM     24  C   UNL     1       6.904   3.887  11.794  0.00  0.00    +0.000 C 
ATOM     25  C   UNL     1       6.695   4.147  13.258  0.00  0.00    +0.000 A 
ATOM     26  C   UNL     1       5.671   3.508  13.974  0.00  0.00    +0.000 A 
ATOM     27  C   UNL     1       5.471   3.781  15.333  0.00  0.00    +0.000 A 
ATOM     28  C   UNL     1       6.306   4.693  15.981  0.00  0.00    +0.000 A 
ATOM     29  C   UNL     1       7.319   5.349  15.272  0.00  0.00    +0.000 A 
ATOM     30  C   UNL     1       7.518   5.068  13.919  0.00  0.00    +0.000 A 
ENDBRANCH  21  28
ENDBRANCH   1  21
TORSDOF 5
ENDMDL
MODEL 8
REMARK VINA RESULT:      -7.7      3.751      6.692
REMARK  Name = 
REMARK  6 active torsions:
REMARK  status: ('A' for Active; 'I' for Inactive)
REMARK    1  A    between atoms: C_1  and  C_2
REMARK    2  A    between atoms: C_5  and  S_6
REMARK    3  A    between atoms: S_6  and  N_9
REMARK    4  A    between atoms: C_12  and  C_13
REMARK    5  A    between atoms: N_15  and  N_16
REMARK    6  A    between atoms: C_17  and  C_19
REMARK                            x       y       z     vdW  Elec       q    Type
REMARK                         _______ _______ _______ _____ _____    ______ ____
ROOT
ATOM      1  N   UNL     1       4.770   6.114  18.828  0.00  0.00    +0.000 NA
ATOM      2  C   UNL     1       5.762   5.070  19.177  0.00  0.00    +0.000 C 
ATOM      3  C   UNL     1       7.180   5.642  19.172  0.00  0.00    +0.000 C 
ATOM      4  C   UNL     1       7.517   6.337  17.849  0.00  0.00    +0.000 C 
ATOM      5  C   UNL     1       6.487   7.444  17.614  0.00  0.00    +0.000 C 
ATOM      6  C   UNL     1       5.063   6.903  17.608  0.00  0.00    +0.000 C 
ENDROOT
BRANCH   4   7
ATOM      7  C   UNL     1       7.599   5.329  16.702  0.00  0.00    +0.000 C 
ATOM      8  O   UNL     1       7.953   4.159  16.852  0.00  0.00    +0.000 OA
ATOM      9  N   UNL     1       7.281   5.825  15.460  0.00  0.00    +0.000 N 
ATOM     10  H   UNL     1       7.042   6.794  15.254  0.00  0.00    +0.000 HD
BRANCH   9  11
ATOM     11  N   UNL     1       7.309   4.943  14.375  0.00  0.00    +0.000 N 
ATOM     12  C   UNL     1       6.139   4.304  14.022  0.00  0.00    +0.000 C 
ATOM     13  O   UNL     1       5.084   4.471  14.629  0.00  0.00    +0.000 OA
ATOM     14  H   UNL     1       8.150   4.964  13.800  0.00  0.00    +0.000 HD
BRANCH  12  15
ATOM     15  C   UNL     1       6.205   3.403  12.851  0.00  0.00    +0.000 A 
ATOM     16  C   UNL     1       5.074   2.870  12.228  0.00  0.00    +0.000 A 
ATOM     17  C   UNL     1       5.233   2.046  11.114  0.00  0.00    +0.000 A 
ATOM     18  C   UNL     1       6.518   1.784  10.662  0.00  0.00    +0.000 A 
ATOM     19  N   UNL     1       7.630   2.288  11.237  0.00  0.00    +0.000 NA
ATOM     20  C   UNL     1       7.449   3.095  12.314  0.00  0.00    +0.000 A 
ENDBRANCH  12  15
ENDBRANCH   9  11
ENDBRANCH   4   7
BRANCH   1  21
ATOM     21  S   UNL     1       3.124   5.660  19.017  0.00  0.00    +0.000 S 
ATOM     22  O   UNL     1       3.013   4.987  20.296  0.00  0.00    +0.000 OA
ATOM     23  O   UNL     1       2.675   5.020  17.799  0.00  0.00    +0.000 OA
BRANCH  21  28
ATOM     24  C   UNL     1       0.384  11.080  19.497  0.00  0.00    +0.000 C 
ATOM     25  C   UNL     1       1.018   9.722  19.394  0.00  0.00    +0.000 A 
ATOM     26  C   UNL     1       1.164   8.898  20.520  0.00  0.00    +0.000 A 
ATOM     27  C   UNL     1       1.782   7.646  20.415  0.00  0.00    +0.000 A 
ATOM     28  C   UNL     1       2.250   7.213  19.173  0.00  0.00    +0.000 A 
ATOM     29  C   UNL     1       2.125   8.035  18.046  0.00  0.00    +0.000 A 
ATOM     30  C   UNL     1       1.503   9.280  18.157  0.00  0.00    +0.000 A 
ENDBRANCH  21  28
ENDBRANCH   1  21
TORSDOF 5
ENDMDL
MODEL 9
REMARK VINA RESULT:      -7.6      2.035      2.800
REMARK  Name = 
REMARK  6 active torsions:
REMARK  status: ('A' for Active; 'I' for Inactive)
REMARK    1  A    between atoms: C_1  and  C_2
REMARK    2  A    between atoms: C_5  and  S_6
REMARK    3  A    between atoms: S_6  and  N_9
REMARK    4  A    between atoms: C_12  and  C_13
REMARK    5  A    between atoms: N_15  and  N_16
REMARK    6  A    between atoms: C_17  and  C_19
REMARK                            x       y       z     vdW  Elec       q    Type
REMARK                         _______ _______ _______ _____ _____    ______ ____
ROOT
ATOM      1  N   UNL     1       5.257   4.771  18.013  0.00  0.00    +0.000 NA
ATOM      2  C   UNL     1       6.163   4.916  16.849  0.00  0.00    +0.000 C 
ATOM      3  C   UNL     1       7.627   4.813  17.282  0.00  0.00    +0.000 C 
ATOM      4  C   UNL     1       7.968   5.798  18.404  0.00  0.00    +0.000 C 
ATOM      5  C   UNL     1       7.035   5.521  19.584  0.00  0.00    +0.000 C 
ATOM      6  C   UNL     1       5.568   5.624  19.185  0.00  0.00    +0.000 C 
ENDROOT
BRANCH   4   7
ATOM      7  C   UNL     1       7.906   7.243  17.905  0.00  0.00    +0.000 C 
ATOM      8  O   UNL     1       7.294   7.586  16.893  0.00  0.00    +0.000 OA
ATOM      9  N   UNL     1       8.619   8.153  18.651  0.00  0.00    +0.000 N 
ATOM     10  H   UNL     1       9.196   7.929  19.461  0.00  0.00    +0.000 HD
BRANCH   9  11
ATOM     11  N   UNL     1       8.577   9.495  18.262  0.00  0.00    +0.000 N 
ATOM     12  C   UNL     1       9.102  10.441  19.118  0.00  0.00    +0.000 C 
ATOM     13  O   UNL     1       9.592  10.149  20.206  0.00  0.00    +0.000 OA
ATOM     14  H   UNL     1       8.322   9.675  17.292  0.00  0.00    +0.000 HD
BRANCH  12  15
ATOM     15  C   UNL     1       9.064  11.845  18.655  0.00  0.00    +0.000 A 
ATOM     16  C   UNL     1       8.177  12.308  17.681  0.00  0.00    +0.000 A 
ATOM     17  C   UNL     1       8.199  13.657  17.324  0.00  0.00    +0.000 A 
ATOM     18  C   UNL     1       9.109  14.494  17.953  0.00  0.00    +0.000 A 
ATOM     19  N   UNL     1       9.975  14.078  18.901  0.00  0.00    +0.000 NA
ATOM     20  C   UNL     1       9.927  12.765  19.240  0.00  0.00    +0.000 A 
ENDBRANCH  12  15
ENDBRANCH   9  11
ENDBRANCH   4   7
BRANCH   1  21
ATOM     21  S   UNL     1       3.586   4.643  17.636  0.00  0.00    +0.000 S 
ATOM     22  O   UNL     1       3.458   3.617  16.619  0.00  0.00    +0.000 OA
ATOM     23  O   UNL     1       3.054   5.972  17.422  0.00  0.00    +0.000 OA
BRANCH  21  28
ATOM     24  C   UNL     1       1.007   2.182  22.575  0.00  0.00    +0.000 C 
ATOM     25  C   UNL     1       1.644   2.832  21.381  0.00  0.00    +0.000 A 
ATOM     26  C   UNL     1       1.019   3.892  20.707  0.00  0.00    +0.000 A 
ATOM     27  C   UNL     1       1.612   4.471  19.578  0.00  0.00    +0.000 A 
ATOM     28  C   UNL     1       2.843   3.990  19.125  0.00  0.00    +0.000 A 
ATOM     29  C   UNL     1       3.466   2.921  19.780  0.00  0.00    +0.000 A 
ATOM     30  C   UNL     1       2.872   2.352  20.909  0.00  0.00    +0.000 A 
ENDBRANCH  21  28
ENDBRANCH   1  21
TORSDOF 5
ENDMDL
