MODEL 1
REMARK VINA RESULT:      -7.7      0.000      0.000
REMARK  Name = 
REMARK  7 active torsions:
REMARK  status: ('A' for Active; 'I' for Inactive)
REMARK    1  A    between atoms: C_1  and  N_2
REMARK    2  A    between atoms: N_2  and  C_3
REMARK    3  A    between atoms: N_2  and  C_4
REMARK    4  A    between atoms: C_6  and  C_7
REMARK    5  A    between atoms: C_7  and  C_8
REMARK    6  A    between atoms: C_14  and  C_15
REMARK    7  A    between atoms: C_15  and  C_16
REMARK                            x       y       z     vdW  Elec       q    Type
REMARK                         _______ _______ _______ _____ _____    ______ ____
ROOT
ATOM      1  C   UNL     1       2.118   6.242  19.775  0.00  0.00    +0.000 A 
ATOM      2  C   UNL     1       1.343   5.627  20.739  0.00  0.00    +0.000 A 
ATOM      3  N   UNL     1       1.482   4.271  20.604  0.00  0.00    +0.000 N 
ATOM      4  C   UNL     1       2.336   3.982  19.567  0.00  0.00    +0.000 A 
ATOM      5  C   UNL     1       2.750   2.747  19.060  0.00  0.00    +0.000 A 
ATOM      6  C   UNL     1       3.638   2.753  17.980  0.00  0.00    +0.000 A 
ATOM      7  C   UNL     1       4.113   3.949  17.427  0.00  0.00    +0.000 A 
ATOM      8  C   UNL     1       3.669   5.176  17.953  0.00  0.00    +0.000 A 
ATOM      9  C   UNL     1       2.765   5.198  19.036  0.00  0.00    +0.000 A 
ATOM     10  H   UNL     1       1.020   3.577  21.176  0.00  0.00    +0.000 HD
ENDROOT
BRANCH   1  11
ATOM     11  C   UNL     1       2.251   7.718  19.567  0.00  0.00    +0.000 C 
BRANCH  11  14
ATOM     12  C   UNL     1       0.797  10.369  21.365  0.00  0.00    +0.000 C 
ATOM     13  C   UNL     1       1.595   9.079  21.679  0.00  0.00    +0.000 C 
ATOM     14  C   UNL     1       1.169   8.500  20.307  0.00  0.00    +0.000 C 
ATOM     15  C   UNL     1       0.904   9.965  19.864  0.00  0.00    +0.000 C 
BRANCH  12  17
ATOM     16  C   UNL     1      -1.252  11.590  21.431  0.00  0.00    +0.000 C 
ATOM     17  N   UNL     1      -0.630  10.294  21.754  0.00  0.00    +0.000 NA
ATOM     18  C   UNL     1      -0.791  10.061  23.193  0.00  0.00    +0.000 C 
ENDBRANCH  12  17
ENDBRANCH  11  14
ENDBRANCH   1  11
BRANCH   7  19
ATOM     19  C   UNL     1       5.046   3.913  16.241  0.00  0.00    +0.000 C 
BRANCH  19  20
ATOM     20  C   UNL     1       6.498   4.291  16.540  0.00  0.00    +0.000 C 
ATOM     21  C   UNL     1       6.847   5.745  16.272  0.00  0.00    +0.000 C 
ATOM     22  O   UNL     1       7.689   6.138  17.370  0.00  0.00    +0.000 OA
ATOM     23  C   UNL     1       7.588   5.202  18.353  0.00  0.00    +0.000 C 
ATOM     24  O   UNL     1       8.142   5.257  19.434  0.00  0.00    +0.000 OA
ATOM     25  N   UNL     1       6.800   4.169  17.934  0.00  0.00    +0.000 N 
ATOM     26  H   UNL     1       6.814   3.308  18.464  0.00  0.00    +0.000 HD
ENDBRANCH  19  20
ENDBRANCH   7  19
TORSDOF 5
ENDMDL
MODEL 2
REMARK VINA RESULT:      -7.6      1.279      1.738
REMARK  Name = 
REMARK  7 active torsions:
REMARK  status: ('A' for Active; 'I' for Inactive)
REMARK    1  A    between atoms: C_1  and  N_2
REMARK    2  A    between atoms: N_2  and  C_3
REMARK    3  A    between atoms: N_2  and  C_4
REMARK    4  A    between atoms: C_6  and  C_7
REMARK    5  A    between atoms: C_7  and  C_8
REMARK    6  A    between atoms: C_14  and  C_15
REMARK    7  A    between atoms: C_15  and  C_16
REMARK                            x       y       z     vdW  Elec       q    Type
REMARK                         _______ _______ _______ _____ _____    ______ ____
ROOT
ATOM      1  C   UNL     1       1.811   5.124  20.173  0.00  0.00    +0.000 A 
ATOM      2  C   UNL     1       0.970   4.032  20.268  0.00  0.00    +0.000 A 
ATOM      3  N   UNL     1       1.245   3.183  19.230  0.00  0.00    +0.000 N 
ATOM      4  C   UNL     1       2.256   3.696  18.452  0.00  0.00    +0.000 A 
ATOM      5  C   UNL     1       2.843   3.187  17.291  0.00  0.00    +0.000 A 
ATOM      6  C   UNL     1       3.867   3.935  16.700  0.00  0.00    +0.000 A 
ATOM      7  C   UNL     1       4.304   5.145  17.252  0.00  0.00    +0.000 A 
ATOM      8  C   UNL     1       3.686   5.635  18.416  0.00  0.00    +0.000 A 
ATOM      9  C   UNL     1       2.643   4.905  19.027  0.00  0.00    +0.000 A 
ATOM     10  H   UNL     1       0.773   2.307  19.052  0.00  0.00    +0.000 HD
ENDROOT
BRANCH   1  11
ATOM     11  C   UNL     1       1.840   6.293  21.107  0.00  0.00    +0.000 C 
BRANCH  11  14
ATOM     12  C   UNL     1       0.997   9.626  20.362  0.00  0.00    +0.000 C 
ATOM     13  C   UNL     1       0.865   8.656  21.563  0.00  0.00    +0.000 C 
ATOM     14  C   UNL     1       1.000   7.458  20.591  0.00  0.00    +0.000 C 
ATOM     15  C   UNL     1       1.668   8.446  19.596  0.00  0.00    +0.000 C 
BRANCH  12  17
ATOM     16  C   UNL     1      -0.013  10.188  18.274  0.00  0.00    +0.000 C 
ATOM     17  N   UNL     1      -0.293   9.923  19.696  0.00  0.00    +0.000 NA
ATOM     18  C   UNL     1      -0.936  11.114  20.260  0.00  0.00    +0.000 C 
ENDBRANCH  12  17
ENDBRANCH  11  14
ENDBRANCH   1  11
BRANCH   7  19
ATOM     19  C   UNL     1       5.390   5.937  16.565  0.00  0.00    +0.000 C 
BRANCH  19  20
ATOM     20  C   UNL     1       6.792   5.772  17.155  0.00  0.00    +0.000 C 
ATOM     21  C   UNL     1       7.498   7.072  17.500  0.00  0.00    +0.000 C 
ATOM     22  O   UNL     1       8.152   6.823  18.756  0.00  0.00    +0.000 OA
ATOM     23  C   UNL     1       7.644   5.680  19.293  0.00  0.00    +0.000 C 
ATOM     24  O   UNL     1       7.954   5.213  20.372  0.00  0.00    +0.000 OA
ATOM     25  N   UNL     1       6.757   5.111  18.424  0.00  0.00    +0.000 N 
ATOM     26  H   UNL     1       6.471   4.155  18.587  0.00  0.00    +0.000 HD
ENDBRANCH  19  20
ENDBRANCH   7  19
TORSDOF 5
ENDMDL
MODEL 3
REMARK VINA RESULT:      -7.6      3.196      7.139
REMARK  Name = 
REMARK  7 active torsions:
REMARK  status: ('A' for Active; 'I' for Inactive)
REMARK    1  A    between atoms: C_1  and  N_2
REMARK    2  A    between atoms: N_2  and  C_3
REMARK    3  A    between atoms: N_2  and  C_4
REMARK    4  A    between atoms: C_6  and  C_7
REMARK    5  A    between atoms: C_7  and  C_8
REMARK    6  A    between atoms: C_14  and  C_15
REMARK    7  A    between atoms: C_15  and  C_16
REMARK                            x       y       z     vdW  Elec       q    Type
REMARK                         _______ _______ _______ _____ _____    ______ ____
ROOT
ATOM      1  C   UNL     1       3.303   3.355  17.641  0.00  0.00    +0.000 A 
ATOM      2  C   UNL     1       2.719   2.111  17.771  0.00  0.00    +0.000 A 
ATOM      3  N   UNL     1       1.758   2.184  18.745  0.00  0.00    +0.000 N 
ATOM      4  C   UNL     1       1.699   3.458  19.258  0.00  0.00    +0.000 A 
ATOM      5  C   UNL     1       0.892   3.982  20.272  0.00  0.00    +0.000 A 
ATOM      6  C   UNL     1       1.051   5.334  20.594  0.00  0.00    +0.000 A 
ATOM      7  C   UNL     1       1.973   6.145  19.921  0.00  0.00    +0.000 A 
ATOM      8  C   UNL     1       2.778   5.585  18.913  0.00  0.00    +0.000 A 
ATOM      9  C   UNL     1       2.646   4.221  18.576  0.00  0.00    +0.000 A 
ATOM     10  H   UNL     1       1.178   1.415  19.051  0.00  0.00    +0.000 HD
ENDROOT
BRANCH   1  11
ATOM     11  C   UNL     1       4.403   3.713  16.692  0.00  0.00    +0.000 C 
BRANCH  11  14
ATOM     12  C   UNL     1       7.022   6.060  16.755  0.00  0.00    +0.000 C 
ATOM     13  C   UNL     1       6.826   4.559  17.082  0.00  0.00    +0.000 C 
ATOM     14  C   UNL     1       5.308   4.808  17.249  0.00  0.00    +0.000 C 
ATOM     15  C   UNL     1       5.507   6.088  16.393  0.00  0.00    +0.000 C 
BRANCH  12  17
ATOM     16  C   UNL     1       7.862   8.159  17.521  0.00  0.00    +0.000 C 
ATOM     17  N   UNL     1       7.216   6.907  17.955  0.00  0.00    +0.000 NA
ATOM     18  C   UNL     1       8.093   6.265  18.940  0.00  0.00    +0.000 C 
ENDBRANCH  12  17
ENDBRANCH  11  14
ENDBRANCH   1  11
BRANCH   7  19
ATOM     19  C   UNL     1       2.136   7.592  20.321  0.00  0.00    +0.000 C 
BRANCH  19  20
ATOM     20  C   UNL     1       0.976   8.182  21.126  0.00  0.00    +0.000 C 
ATOM     21  C   UNL     1       1.390   9.001  22.336  0.00  0.00    +0.000 C 
ATOM     22  O   UNL     1       0.507  10.136  22.343  0.00  0.00    +0.000 OA
ATOM     23  C   UNL     1      -0.117  10.209  21.135  0.00  0.00    +0.000 C 
ATOM     24  O   UNL     1      -0.897  11.079  20.800  0.00  0.00    +0.000 OA
ATOM     25  N   UNL     1       0.236   9.139  20.363  0.00  0.00    +0.000 N 
ATOM     26  H   UNL     1      -0.312   8.943  19.536  0.00  0.00    +0.000 HD
ENDBRANCH  19  20
ENDBRANCH   7  19
TORSDOF 5
ENDMDL
MODEL 4
REMARK VINA RESULT:      -7.6      1.509      1.895
REMARK  Name = 
REMARK  7 active torsions:
REMARK  status: ('A' for Active; 'I' for Inactive)
REMARK    1  A    between atoms: C_1  and  N_2
REMARK    2  A    between atoms: N_2  and  C_3
REMARK    3  A    between atoms: N_2  and  C_4
REMARK    4  A    between atoms: C_6  and  C_7
REMARK    5  A    between atoms: C_7  and  C_8
REMARK    6  A    between atoms: C_14  and  C_15
REMARK    7  A    between atoms: C_15  and  C_16
REMARK                            x       y       z     vdW  Elec       q    Type
REMARK                         _______ _______ _______ _____ _____    ______ ____
ROOT
ATOM      1  C   UNL     1       2.067   7.674  19.357  0.00  0.00    +0.000 A 
ATOM      2  C   UNL     1       1.534   7.521  20.622  0.00  0.00    +0.000 A 
ATOM      3  N   UNL     1       1.754   6.233  21.030  0.00  0.00    +0.000 N 
ATOM      4  C   UNL     1       2.425   5.534  20.055  0.00  0.00    +0.000 A 
ATOM      5  C   UNL     1       2.838   4.199  20.029  0.00  0.00    +0.000 A 
ATOM      6  C   UNL     1       3.510   3.750  18.887  0.00  0.00    +0.000 A 
ATOM      7  C   UNL     1       3.778   4.603  17.810  0.00  0.00    +0.000 A 
ATOM      8  C   UNL     1       3.341   5.939  17.863  0.00  0.00    +0.000 A 
ATOM      9  C   UNL     1       2.650   6.415  18.999  0.00  0.00    +0.000 A 
ATOM     10  H   UNL     1       1.463   5.844  21.916  0.00  0.00    +0.000 HD
ENDROOT
BRANCH   1  11
ATOM     11  C   UNL     1       2.040   8.928  18.540  0.00  0.00    +0.000 C 
BRANCH  11  14
ATOM     12  C   UNL     1      -0.113  11.708  18.621  0.00  0.00    +0.000 C 
ATOM     13  C   UNL     1       1.410  11.440  18.712  0.00  0.00    +0.000 C 
ATOM     14  C   UNL     1       1.113   9.982  19.138  0.00  0.00    +0.000 C 
ATOM     15  C   UNL     1      -0.287  10.165  18.492  0.00  0.00    +0.000 C 
BRANCH  12  17
ATOM     16  C   UNL     1      -2.141  12.422  19.657  0.00  0.00    +0.000 C 
ATOM     17  N   UNL     1      -0.719  12.127  19.906  0.00  0.00    +0.000 NA
ATOM     18  C   UNL     1      -0.092  13.342  20.435  0.00  0.00    +0.000 C 
ENDBRANCH  12  17
ENDBRANCH  11  14
ENDBRANCH   1  11
BRANCH   7  19
ATOM     19  C   UNL     1       4.478   4.071  16.583  0.00  0.00    +0.000 C 
BRANCH  19  20
ATOM     20  C   UNL     1       6.003   4.196  16.596  0.00  0.00    +0.000 C 
ATOM     21  C   UNL     1       6.537   5.544  16.145  0.00  0.00    +0.000 C 
ATOM     22  O   UNL     1       7.620   5.840  17.044  0.00  0.00    +0.000 OA
ATOM     23  C   UNL     1       7.545   4.995  18.109  0.00  0.00    +0.000 C 
ATOM     24  O   UNL     1       8.289   5.009  19.070  0.00  0.00    +0.000 OA
ATOM     25  N   UNL     1       6.530   4.100  17.923  0.00  0.00    +0.000 N 
ATOM     26  H   UNL     1       6.496   3.282  18.517  0.00  0.00    +0.000 HD
ENDBRANCH  19  20
ENDBRANCH   7  19
TORSDOF 5
ENDMDL
MODEL 5
REMARK VINA RESULT:      -7.6      2.080      2.638
REMARK  Name = 
REMARK  7 active torsions:
REMARK  status: ('A' for Active; 'I' for Inactive)
REMARK    1  A    between atoms: C_1  and  N_2
REMARK    2  A    between atoms: N_2  and  C_3
REMARK    3  A    between atoms: N_2  and  C_4
REMARK    4  A    between atoms: C_6  and  C_7
REMARK    5  A    between atoms: C_7  and  C_8
REMARK    6  A    between atoms: C_14  and  C_15
REMARK    7  A    between atoms: C_15  and  C_16
REMARK                            x       y       z     vdW  Elec       q    Type
REMARK                         _______ _______ _______ _____ _____    ______ ____
ROOT
ATOM      1  C   UNL     1       2.180   7.479  19.169  0.00  0.00    +0.000 A 
ATOM      2  C   UNL     1       1.717   7.343  20.463  0.00  0.00    +0.000 A 
ATOM      3  N   UNL     1       2.058   6.096  20.916  0.00  0.00    +0.000 N 
ATOM      4  C   UNL     1       2.740   5.408  19.940  0.00  0.00    +0.000 A 
ATOM      5  C   UNL     1       3.257   4.109  19.951  0.00  0.00    +0.000 A 
ATOM      6  C   UNL     1       3.913   3.662  18.799  0.00  0.00    +0.000 A 
ATOM      7  C   UNL     1       4.063   4.483  17.675  0.00  0.00    +0.000 A 
ATOM      8  C   UNL     1       3.523   5.781  17.692  0.00  0.00    +0.000 A 
ATOM      9  C   UNL     1       2.847   6.254  18.838  0.00  0.00    +0.000 A 
ATOM     10  H   UNL     1       1.838   5.726  21.830  0.00  0.00    +0.000 HD
ENDROOT
BRANCH   1  11
ATOM     11  C   UNL     1       2.017   8.687  18.302  0.00  0.00    +0.000 C 
BRANCH  11  14
ATOM     12  C   UNL     1       0.080  11.610  18.575  0.00  0.00    +0.000 C 
ATOM     13  C   UNL     1       1.577  11.220  18.662  0.00  0.00    +0.000 C 
ATOM     14  C   UNL     1       1.163   9.760  18.970  0.00  0.00    +0.000 C 
ATOM     15  C   UNL     1      -0.208  10.100  18.324  0.00  0.00    +0.000 C 
BRANCH  12  17
ATOM     16  C   UNL     1      -1.914  12.370  19.644  0.00  0.00    +0.000 C 
ATOM     17  N   UNL     1      -0.514  11.975  19.882  0.00  0.00    +0.000 NA
ATOM     18  C   UNL     1       0.178  13.112  20.498  0.00  0.00    +0.000 C 
ENDBRANCH  12  17
ENDBRANCH  11  14
ENDBRANCH   1  11
BRANCH   7  19
ATOM     19  C   UNL     1       4.750   3.951  16.440  0.00  0.00    +0.000 C 
BRANCH  19  20
ATOM     20  C   UNL     1       5.487   4.997  15.602  0.00  0.00    +0.000 C 
ATOM     21  C   UNL     1       6.860   5.383  16.125  0.00  0.00    +0.000 C 
ATOM     22  O   UNL     1       7.693   5.484  14.958  0.00  0.00    +0.000 OA
ATOM     23  C   UNL     1       7.047   4.902  13.910  0.00  0.00    +0.000 C 
ATOM     24  O   UNL     1       7.497   4.782  12.787  0.00  0.00    +0.000 OA
ATOM     25  N   UNL     1       5.799   4.502  14.295  0.00  0.00    +0.000 N 
ATOM     26  H   UNL     1       5.130   4.259  13.578  0.00  0.00    +0.000 HD
ENDBRANCH  19  20
ENDBRANCH   7  19
TORSDOF 5
ENDMDL
MODEL 6
REMARK VINA RESULT:      -7.4      2.615      3.178
REMARK  Name = 
REMARK  7 active torsions:
REMARK  status: ('A' for Active; 'I' for Inactive)
REMARK    1  A    between atoms: C_1  and  N_2
REMARK    2  A    between atoms: N_2  and  C_3
REMARK    3  A    between atoms: N_2  and  C_4
REMARK    4  A    between atoms: C_6  and  C_7
REMARK    5  A    between atoms: C_7  and  C_8
REMARK    6  A    between atoms: C_14  and  C_15
REMARK    7  A    between atoms: C_15  and  C_16
REMARK                            x       y       z     vdW  Elec       q    Type
REMARK                         _______ _______ _______ _____ _____    ______ ____
ROOT
ATOM      1  C   UNL     1       2.581   7.467  18.592  0.00  0.00    +0.000 A 
ATOM      2  C   UNL     1       1.993   6.891  19.701  0.00  0.00    +0.000 A 
ATOM      3  N   UNL     1       2.778   5.847  20.114  0.00  0.00    +0.000 N 
ATOM      4  C   UNL     1       3.875   5.726  19.295  0.00  0.00    +0.000 A 
ATOM      5  C   UNL     1       4.921   4.800  19.325  0.00  0.00    +0.000 A 
ATOM      6  C   UNL     1       5.919   4.916  18.351  0.00  0.00    +0.000 A 
ATOM      7  C   UNL     1       5.886   5.928  17.384  0.00  0.00    +0.000 A 
ATOM      8  C   UNL     1       4.815   6.838  17.374  0.00  0.00    +0.000 A 
ATOM      9  C   UNL     1       3.789   6.738  18.339  0.00  0.00    +0.000 A 
ATOM     10  H   UNL     1       2.581   5.245  20.901  0.00  0.00    +0.000 HD
ENDROOT
BRANCH   1  11
ATOM     11  C   UNL     1       2.049   8.635  17.824  0.00  0.00    +0.000 C 
BRANCH  11  14
ATOM     12  C   UNL     1       0.045  11.402  18.660  0.00  0.00    +0.000 C 
ATOM     13  C   UNL     1       1.551  11.040  18.666  0.00  0.00    +0.000 C 
ATOM     14  C   UNL     1       1.174   9.539  18.689  0.00  0.00    +0.000 C 
ATOM     15  C   UNL     1      -0.209   9.962  18.125  0.00  0.00    +0.000 C 
BRANCH  12  17
ATOM     16  C   UNL     1      -1.860  12.152  19.887  0.00  0.00    +0.000 C 
ATOM     17  N   UNL     1      -0.548  11.494  20.015  0.00  0.00    +0.000 NA
ATOM     18  C   UNL     1       0.277  12.303  20.918  0.00  0.00    +0.000 C 
ENDBRANCH  12  17
ENDBRANCH  11  14
ENDBRANCH   1  11
BRANCH   7  19
ATOM     19  C   UNL     1       6.966   5.999  16.331  0.00  0.00    +0.000 C 
BRANCH  19  20
ATOM     20  C   UNL     1       7.043   4.792  15.393  0.00  0.00    +0.000 C 
ATOM     21  C   UNL     1       5.700   4.250  14.938  0.00  0.00    +0.000 C 
ATOM     22  O   UNL     1       5.873   3.935  13.545  0.00  0.00    +0.000 OA
ATOM     23  C   UNL     1       7.020   4.521  13.106  0.00  0.00    +0.000 C 
ATOM     24  O   UNL     1       7.434   4.484  11.963  0.00  0.00    +0.000 OA
ATOM     25  N   UNL     1       7.661   5.130  14.147  0.00  0.00    +0.000 N 
ATOM     26  H   UNL     1       8.623   5.413  14.020  0.00  0.00    +0.000 HD
ENDBRANCH  19  20
ENDBRANCH   7  19
TORSDOF 5
ENDMDL
MODEL 7
REMARK VINA RESULT:      -7.4      1.322      1.787
REMARK  Name = 
REMARK  7 active torsions:
REMARK  status: ('A' for Active; 'I' for Inactive)
REMARK    1  A    between atoms: C_1  and  N_2
REMARK    2  A    between atoms: N_2  and  C_3
REMARK    3  A    between atoms: N_2  and  C_4
REMARK    4  A    between atoms: C_6  and  C_7
REMARK    5  A    between atoms: C_7  and  C_8
REMARK    6  A    between atoms: C_14  and  C_15
REMARK    7  A    between atoms: C_15  and  C_16
REMARK                            x       y       z     vdW  Elec       q    Type
REMARK                         _______ _______ _______ _____ _____    ______ ____
ROOT
ATOM      1  C   UNL     1       2.009   5.954  19.921  0.00  0.00    +0.000 A 
ATOM      2  C   UNL     1       1.242   5.388  20.920  0.00  0.00    +0.000 A 
ATOM      3  N   UNL     1       1.235   4.030  20.743  0.00  0.00    +0.000 N 
ATOM      4  C   UNL     1       1.987   3.691  19.644  0.00  0.00    +0.000 A 
ATOM      5  C   UNL     1       2.241   2.438  19.081  0.00  0.00    +0.000 A 
ATOM      6  C   UNL     1       3.054   2.390  17.943  0.00  0.00    +0.000 A 
ATOM      7  C   UNL     1       3.608   3.550  17.388  0.00  0.00    +0.000 A 
ATOM      8  C   UNL     1       3.325   4.798  17.973  0.00  0.00    +0.000 A 
ATOM      9  C   UNL     1       2.499   4.875  19.115  0.00  0.00    +0.000 A 
ATOM     10  H   UNL     1       0.745   3.368  21.329  0.00  0.00    +0.000 HD
ENDROOT
BRANCH   1  11
ATOM     11  C   UNL     1       2.275   7.415  19.740  0.00  0.00    +0.000 C 
BRANCH  11  14
ATOM     12  C   UNL     1       0.873  10.190  21.386  0.00  0.00    +0.000 C 
ATOM     13  C   UNL     1       1.567   8.862  21.777  0.00  0.00    +0.000 C 
ATOM     14  C   UNL     1       1.198   8.278  20.392  0.00  0.00    +0.000 C 
ATOM     15  C   UNL     1       1.053   9.746  19.904  0.00  0.00    +0.000 C 
BRANCH  12  17
ATOM     16  C   UNL     1      -1.140  11.437  21.089  0.00  0.00    +0.000 C 
ATOM     17  N   UNL     1      -0.578  10.210  21.681  0.00  0.00    +0.000 NA
ATOM     18  C   UNL     1      -0.842  10.242  23.123  0.00  0.00    +0.000 C 
ENDBRANCH  12  17
ENDBRANCH  11  14
ENDBRANCH   1  11
BRANCH   7  19
ATOM     19  C   UNL     1       4.454   3.459  16.141  0.00  0.00    +0.000 C 
BRANCH  19  20
ATOM     20  C   UNL     1       5.432   4.616  15.929  0.00  0.00    +0.000 C 
ATOM     21  C   UNL     1       6.788   4.434  16.587  0.00  0.00    +0.000 C 
ATOM     22  O   UNL     1       7.742   4.921  15.626  0.00  0.00    +0.000 OA
ATOM     23  C   UNL     1       7.120   5.048  14.422  0.00  0.00    +0.000 C 
ATOM     24  O   UNL     1       7.656   5.398  13.389  0.00  0.00    +0.000 OA
ATOM     25  N   UNL     1       5.791   4.759  14.551  0.00  0.00    +0.000 N 
ATOM     26  H   UNL     1       5.167   5.022  13.800  0.00  0.00    +0.000 HD
ENDBRANCH  19  20
ENDBRANCH   7  19
TORSDOF 5
ENDMDL
MODEL 8
REMARK VINA RESULT:      -7.4      1.134      1.486
REMARK  Name = 
REMARK  7 active torsions:
REMARK  status: ('A' for Active; 'I' for Inactive)
REMARK    1  A    between atoms: C_1  and  N_2
REMARK    2  A    between atoms: N_2  and  C_3
REMARK    3  A    between atoms: N_2  and  C_4
REMARK    4  A    between atoms: C_6  and  C_7
REMARK    5  A    between atoms: C_7  and  C_8
REMARK    6  A    between atoms: C_14  and  C_15
REMARK    7  A    between atoms: C_15  and  C_16
REMARK                            x       y       z     vdW  Elec       q    Type
REMARK                         _______ _______ _______ _____ _____    ______ ____
ROOT
ATOM      1  C   UNL     1       2.089   5.925  19.908  0.00  0.00    +0.000 A 
ATOM      2  C   UNL     1       1.108   5.162  20.509  0.00  0.00    +0.000 A 
ATOM      3  N   UNL     1       1.173   3.892  19.998  0.00  0.00    +0.000 N 
ATOM      4  C   UNL     1       2.183   3.807  19.070  0.00  0.00    +0.000 A 
ATOM      5  C   UNL     1       2.595   2.724  18.288  0.00  0.00    +0.000 A 
ATOM      6  C   UNL     1       3.667   2.927  17.412  0.00  0.00    +0.000 A 
ATOM      7  C   UNL     1       4.319   4.163  17.325  0.00  0.00    +0.000 A 
ATOM      8  C   UNL     1       3.874   5.236  18.118  0.00  0.00    +0.000 A 
ATOM      9  C   UNL     1       2.787   5.061  19.002  0.00  0.00    +0.000 A 
ATOM     10  H   UNL     1       0.565   3.127  20.256  0.00  0.00    +0.000 HD
ENDROOT
BRANCH   1  11
ATOM     11  C   UNL     1       2.362   7.371  20.175  0.00  0.00    +0.000 C 
BRANCH  11  14
ATOM     12  C   UNL     1       0.602  10.304  19.357  0.00  0.00    +0.000 C 
ATOM     13  C   UNL     1       1.060   9.569  20.641  0.00  0.00    +0.000 C 
ATOM     14  C   UNL     1       1.165   8.253  19.831  0.00  0.00    +0.000 C 
ATOM     15  C   UNL     1       1.261   9.140  18.560  0.00  0.00    +0.000 C 
BRANCH  12  17
ATOM     16  C   UNL     1      -1.087  10.249  17.671  0.00  0.00    +0.000 C 
ATOM     17  N   UNL     1      -0.860  10.240  19.127  0.00  0.00    +0.000 NA
ATOM     18  C   UNL     1      -1.554  11.399  19.699  0.00  0.00    +0.000 C 
ENDBRANCH  12  17
ENDBRANCH  11  14
ENDBRANCH   1  11
BRANCH   7  19
ATOM     19  C   UNL     1       5.452   4.349  16.344  0.00  0.00    +0.000 C 
BRANCH  19  20
ATOM     20  C   UNL     1       6.801   4.718  16.966  0.00  0.00    +0.000 C 
ATOM     21  C   UNL     1       7.126   6.201  16.953  0.00  0.00    +0.000 C 
ATOM     22  O   UNL     1       7.723   6.467  18.234  0.00  0.00    +0.000 OA
ATOM     23  C   UNL     1       7.480   5.408  19.055  0.00  0.00    +0.000 C 
ATOM     24  O   UNL     1       7.814   5.334  20.222  0.00  0.00    +0.000 OA
ATOM     25  N   UNL     1       6.836   4.421  18.365  0.00  0.00    +0.000 N 
ATOM     26  H   UNL     1       6.789   3.499  18.777  0.00  0.00    +0.000 HD
ENDBRANCH  19  20
ENDBRANCH   7  19
TORSDOF 5
ENDMDL
MODEL 9
REMARK VINA RESULT:      -7.3      2.892      6.528
REMARK  Name = 
REMARK  7 active torsions:
REMARK  status: ('A' for Active; 'I' for Inactive)
REMARK    1  A    between atoms: C_1  and  N_2
REMARK    2  A    between atoms: N_2  and  C_3
REMARK    3  A    between atoms: N_2  and  C_4
REMARK    4  A    between atoms: C_6  and  C_7
REMARK    5  A    between atoms: C_7  and  C_8
REMARK    6  A    between atoms: C_14  and  C_15
REMARK    7  A    between atoms: C_15  and  C_16
REMARK                            x       y       z     vdW  Elec       q    Type
REMARK                         _______ _______ _______ _____ _____    ______ ____
ROOT
ATOM      1  C   UNL     1       3.658   3.100  17.590  0.00  0.00    +0.000 A 
ATOM      2  C   UNL     1       3.483   1.735  17.700  0.00  0.00    +0.000 A 
ATOM      3  N   UNL     1       2.643   1.490  18.754  0.00  0.00    +0.000 N 
ATOM      4  C   UNL     1       2.261   2.673  19.340  0.00  0.00    +0.000 A 
ATOM      5  C   UNL     1       1.437   2.904  20.445  0.00  0.00    +0.000 A 
ATOM      6  C   UNL     1       1.219   4.232  20.827  0.00  0.00    +0.000 A 
ATOM      7  C   UNL     1       1.791   5.300  20.125  0.00  0.00    +0.000 A 
ATOM      8  C   UNL     1       2.623   5.034  19.023  0.00  0.00    +0.000 A 
ATOM      9  C   UNL     1       2.868   3.703  18.623  0.00  0.00    +0.000 A 
ATOM     10  H   UNL     1       2.348   0.575  19.065  0.00  0.00    +0.000 HD
ENDROOT
BRANCH   1  11
ATOM     11  C   UNL     1       4.505   3.797  16.572  0.00  0.00    +0.000 C 
BRANCH  11  14
ATOM     12  C   UNL     1       7.090   6.171  16.805  0.00  0.00    +0.000 C 
ATOM     13  C   UNL     1       6.904   4.656  17.070  0.00  0.00    +0.000 C 
ATOM     14  C   UNL     1       5.378   4.881  17.198  0.00  0.00    +0.000 C 
ATOM     15  C   UNL     1       5.588   6.194  16.395  0.00  0.00    +0.000 C 
BRANCH  12  17
ATOM     16  C   UNL     1       7.884   8.247  17.675  0.00  0.00    +0.000 C 
ATOM     17  N   UNL     1       7.236   6.975  18.041  0.00  0.00    +0.000 NA
ATOM     18  C   UNL     1       8.085   6.305  19.031  0.00  0.00    +0.000 C 
ENDBRANCH  12  17
ENDBRANCH  11  14
ENDBRANCH   1  11
BRANCH   7  19
ATOM     19  C   UNL     1       1.557   6.717  20.588  0.00  0.00    +0.000 C 
BRANCH  19  20
ATOM     20  C   UNL     1       2.156   7.805  19.694  0.00  0.00    +0.000 C 
ATOM     21  C   UNL     1       2.016   7.554  18.203  0.00  0.00    +0.000 C 
ATOM     22  O   UNL     1       1.685   8.833  17.635  0.00  0.00    +0.000 OA
ATOM     23  C   UNL     1       1.317   9.673  18.641  0.00  0.00    +0.000 C 
ATOM     24  O   UNL     1       0.937  10.819  18.495  0.00  0.00    +0.000 OA
ATOM     25  N   UNL     1       1.471   9.052  19.847  0.00  0.00    +0.000 N 
ATOM     26  H   UNL     1       1.450   9.618  20.685  0.00  0.00    +0.000 HD
ENDBRANCH  19  20
ENDBRANCH   7  19
TORSDOF 5
ENDMDL
