MODEL 1
REMARK VINA RESULT:      -8.5      0.000      0.000
REMARK  Name = 
REMARK  8 active torsions:
REMARK  status: ('A' for Active; 'I' for Inactive)
REMARK    1  A    between atoms: C_1  and  C_2
REMARK    2  A    between atoms: C_3  and  C_4
REMARK    3  A    between atoms: C_6  and  O_7
REMARK    4  A    between atoms: O_7  and  C_8
REMARK    5  A    between atoms: C_8  and  C_9
REMARK    6  A    between atoms: C_14  and  C_15
REMARK    7  A    between atoms: C_29  and  C_30
REMARK    8  A    between atoms: C_29  and  C_31
REMARK                            x       y       z     vdW  Elec       q    Type
REMARK                         _______ _______ _______ _____ _____    ______ ____
ROOT
ATOM      1  C   UNL     1      -2.744   9.636  15.520  0.00  0.00    +0.000 C 
ATOM      2  C   UNL     1      -2.402  10.255  16.853  0.00  0.00    +0.000 A 
ATOM      3  C   UNL     1      -1.292  10.031  17.579  0.00  0.00    +0.000 A 
ATOM      4  C   UNL     1      -0.221   9.116  17.086  0.00  0.00    +0.000 C 
ATOM      5  C   UNL     1      -1.067  10.740  18.878  0.00  0.00    +0.000 A 
ATOM      6  C   UNL     1       0.038  10.574  19.751  0.00  0.00    +0.000 A 
ATOM      7  C   UNL     1       0.140  11.307  20.941  0.00  0.00    +0.000 A 
ATOM      8  C   UNL     1      -0.877  12.187  21.313  0.00  0.00    +0.000 A 
ATOM      9  C   UNL     1      -1.965  12.395  20.467  0.00  0.00    +0.000 A 
ATOM     10  C   UNL     1      -2.042  11.657  19.277  0.00  0.00    +0.000 A 
ATOM     11  O   UNL     1      -3.192  11.877  18.499  0.00  0.00    +0.000 OA
ATOM     12  C   UNL     1      -3.432  11.201  17.324  0.00  0.00    +0.000 A 
ATOM     13  O   UNL     1      -4.468  11.394  16.685  0.00  0.00    +0.000 OA
ATOM     14  C   UNL     1      -3.070  13.344  20.843  0.00  0.00    +0.000 C 
ATOM     15  C   UNL     1      -2.650  14.214  22.015  0.00  0.00    +0.000 C 
ATOM     16  C   UNL     1      -1.951  13.362  23.081  0.00  0.00    +0.000 C 
ATOM     17  C   UNL     1      -1.545  14.270  24.250  0.00  0.00    +0.000 C 
ATOM     18  C   UNL     1      -2.839  12.236  23.643  0.00  0.00    +0.000 C 
ATOM     19  O   UNL     1      -0.739  12.794  22.537  0.00  0.00    +0.000 OA
ENDROOT
BRANCH   6  20
ATOM     20  O   UNL     1       1.019   9.718  19.355  0.00  0.00    +0.000 OA
BRANCH  20  21
ATOM     21  C   UNL     1       1.377   8.594  20.145  0.00  0.00    +0.000 C 
BRANCH  21  22
ATOM     22  C   UNL     1       2.213   7.654  19.264  0.00  0.00    +0.000 C 
ATOM     23  O   UNL     1       2.903   8.122  18.352  0.00  0.00    +0.000 OA
ATOM     24  N   UNL     1       2.140   6.276  19.497  0.00  0.00    +0.000 N 
ATOM     25  C   UNL     1       3.088   5.406  18.808  0.00  0.00    +0.000 C 
ATOM     26  C   UNL     1       2.440   4.075  18.446  0.00  0.00    +0.000 C 
ATOM     27  C   UNL     1       1.827   3.383  19.669  0.00  0.00    +0.000 C 
ATOM     28  C   UNL     1       0.851   4.339  20.365  0.00  0.00    +0.000 C 
ATOM     29  C   UNL     1       1.497   5.675  20.663  0.00  0.00    +0.000 C 
BRANCH  27  30
ATOM     30  C   UNL     1       2.914   2.843  20.605  0.00  0.00    +0.000 C 
ATOM     31  N   UNL     1       2.527   2.648  21.896  0.00  0.00    +0.000 N 
ATOM     32  O   UNL     1       4.063   2.599  20.262  0.00  0.00    +0.000 OA
ATOM     33  H   UNL     1       1.591   2.814  22.240  0.00  0.00    +0.000 HD
ATOM     34  H   UNL     1       3.218   2.294  22.546  0.00  0.00    +0.000 HD
ENDBRANCH  27  30
ENDBRANCH  21  22
ENDBRANCH  20  21
ENDBRANCH   6  20
TORSDOF 4
ENDMDL
MODEL 2
REMARK VINA RESULT:      -8.4      3.216      9.805
REMARK  Name = 
REMARK  8 active torsions:
REMARK  status: ('A' for Active; 'I' for Inactive)
REMARK    1  A    between atoms: C_1  and  C_2
REMARK    2  A    between atoms: C_3  and  C_4
REMARK    3  A    between atoms: C_6  and  O_7
REMARK    4  A    between atoms: O_7  and  C_8
REMARK    5  A    between atoms: C_8  and  C_9
REMARK    6  A    between atoms: C_14  and  C_15
REMARK    7  A    between atoms: C_29  and  C_30
REMARK    8  A    between atoms: C_29  and  C_31
REMARK                            x       y       z     vdW  Elec       q    Type
REMARK                         _______ _______ _______ _____ _____    ______ ____
ROOT
ATOM      1  C   UNL     1       1.502   3.515  21.434  0.00  0.00    +0.000 C 
ATOM      2  C   UNL     1       2.351   3.983  20.278  0.00  0.00    +0.000 A 
ATOM      3  C   UNL     1       2.415   5.233  19.786  0.00  0.00    +0.000 A 
ATOM      4  C   UNL     1       1.626   6.343  20.397  0.00  0.00    +0.000 C 
ATOM      5  C   UNL     1       3.329   5.564  18.647  0.00  0.00    +0.000 A 
ATOM      6  C   UNL     1       3.471   6.827  18.018  0.00  0.00    +0.000 A 
ATOM      7  C   UNL     1       4.372   7.015  16.960  0.00  0.00    +0.000 A 
ATOM      8  C   UNL     1       5.118   5.941  16.475  0.00  0.00    +0.000 A 
ATOM      9  C   UNL     1       5.024   4.692  17.087  0.00  0.00    +0.000 A 
ATOM     10  C   UNL     1       4.122   4.529  18.148  0.00  0.00    +0.000 A 
ATOM     11  O   UNL     1       4.040   3.231  18.682  0.00  0.00    +0.000 OA
ATOM     12  C   UNL     1       3.174   2.903  19.700  0.00  0.00    +0.000 A 
ATOM     13  O   UNL     1       3.103   1.746  20.121  0.00  0.00    +0.000 OA
ATOM     14  C   UNL     1       5.824   3.520  16.587  0.00  0.00    +0.000 C 
ATOM     15  C   UNL     1       6.909   3.986  15.630  0.00  0.00    +0.000 C 
ATOM     16  C   UNL     1       6.342   5.023  14.653  0.00  0.00    +0.000 C 
ATOM     17  C   UNL     1       7.460   5.467  13.700  0.00  0.00    +0.000 C 
ATOM     18  C   UNL     1       5.177   4.487  13.799  0.00  0.00    +0.000 C 
ATOM     19  O   UNL     1       5.907   6.193  15.380  0.00  0.00    +0.000 OA
ENDROOT
BRANCH   6  20
ATOM     20  O   UNL     1       2.738   7.858  18.521  0.00  0.00    +0.000 OA
BRANCH  20  21
ATOM     21  C   UNL     1       1.775   8.533  17.725  0.00  0.00    +0.000 C 
BRANCH  21  22
ATOM     22  C   UNL     1       1.936  10.040  17.980  0.00  0.00    +0.000 C 
ATOM     23  O   UNL     1       2.890  10.646  17.483  0.00  0.00    +0.000 OA
ATOM     24  N   UNL     1       1.007  10.681  18.808  0.00  0.00    +0.000 N 
ATOM     25  C   UNL     1       1.034  12.139  18.878  0.00  0.00    +0.000 C 
ATOM     26  C   UNL     1       0.682  12.622  20.280  0.00  0.00    +0.000 C 
ATOM     27  C   UNL     1      -0.661  12.059  20.760  0.00  0.00    +0.000 C 
ATOM     28  C   UNL     1      -0.645  10.531  20.655  0.00  0.00    +0.000 C 
ATOM     29  C   UNL     1      -0.236  10.071  19.272  0.00  0.00    +0.000 C 
BRANCH  27  30
ATOM     30  C   UNL     1      -1.832  12.704  20.012  0.00  0.00    +0.000 C 
ATOM     31  N   UNL     1      -1.757  14.056  19.867  0.00  0.00    +0.000 N 
ATOM     32  O   UNL     1      -2.792  12.089  19.568  0.00  0.00    +0.000 OA
ATOM     33  H   UNL     1      -0.986  14.621  20.194  0.00  0.00    +0.000 HD
ATOM     34  H   UNL     1      -2.514  14.520  19.379  0.00  0.00    +0.000 HD
ENDBRANCH  27  30
ENDBRANCH  21  22
ENDBRANCH  20  21
ENDBRANCH   6  20
TORSDOF 4
ENDMDL
MODEL 3
REMARK VINA RESULT:      -8.3      3.034      9.605
REMARK  Name = 
REMARK  8 active torsions:
REMARK  status: ('A' for Active; 'I' for Inactive)
REMARK    1  A    between atoms: C_1  and  C_2
REMARK    2  A    between atoms: C_3  and  C_4
REMARK    3  A    between atoms: C_6  and  O_7
REMARK    4  A    between atoms: O_7  and  C_8
REMARK    5  A    between atoms: C_8  and  C_9
REMARK    6  A    between atoms: C_14  and  C_15
REMARK    7  A    between atoms: C_29  and  C_30
REMARK    8  A    between atoms: C_29  and  C_31
REMARK                            x       y       z     vdW  Elec       q    Type
REMARK                         _______ _______ _______ _____ _____    ______ ____
ROOT
ATOM      1  C   UNL     1       1.842   3.503  21.844  0.00  0.00    +0.000 C 
ATOM      2  C   UNL     1       2.611   3.996  20.643  0.00  0.00    +0.000 A 
ATOM      3  C   UNL     1       2.499   5.204  20.061  0.00  0.00    +0.000 A 
ATOM      4  C   UNL     1       1.570   6.237  20.605  0.00  0.00    +0.000 C 
ATOM      5  C   UNL     1       3.351   5.572  18.887  0.00  0.00    +0.000 A 
ATOM      6  C   UNL     1       3.313   6.793  18.166  0.00  0.00    +0.000 A 
ATOM      7  C   UNL     1       4.172   7.024  17.083  0.00  0.00    +0.000 A 
ATOM      8  C   UNL     1       5.055   6.030  16.663  0.00  0.00    +0.000 A 
ATOM      9  C   UNL     1       5.139   4.827  17.364  0.00  0.00    +0.000 A 
ATOM     10  C   UNL     1       4.275   4.621  18.450  0.00  0.00    +0.000 A 
ATOM     11  O   UNL     1       4.375   3.367  19.076  0.00  0.00    +0.000 OA
ATOM     12  C   UNL     1       3.570   2.999  20.130  0.00  0.00    +0.000 A 
ATOM     13  O   UNL     1       3.662   1.877  20.633  0.00  0.00    +0.000 OA
ATOM     14  C   UNL     1       6.088   3.743  16.935  0.00  0.00    +0.000 C 
ATOM     15  C   UNL     1       7.092   4.280  15.929  0.00  0.00    +0.000 C 
ATOM     16  C   UNL     1       6.381   5.156  14.890  0.00  0.00    +0.000 C 
ATOM     17  C   UNL     1       7.420   5.677  13.890  0.00  0.00    +0.000 C 
ATOM     18  C   UNL     1       5.295   4.405  14.097  0.00  0.00    +0.000 C 
ATOM     19  O   UNL     1       5.795   6.306  15.539  0.00  0.00    +0.000 OA
ENDROOT
BRANCH   6  20
ATOM     20  O   UNL     1       2.449   7.748  18.607  0.00  0.00    +0.000 OA
BRANCH  20  21
ATOM     21  C   UNL     1       2.267   8.962  17.891  0.00  0.00    +0.000 C 
BRANCH  21  22
ATOM     22  C   UNL     1       0.802   9.391  18.070  0.00  0.00    +0.000 C 
ATOM     23  O   UNL     1      -0.046   9.030  17.247  0.00  0.00    +0.000 OA
ATOM     24  N   UNL     1       0.474  10.218  19.150  0.00  0.00    +0.000 N 
ATOM     25  C   UNL     1      -0.937  10.448  19.441  0.00  0.00    +0.000 C 
ATOM     26  C   UNL     1      -1.162  11.867  19.950  0.00  0.00    +0.000 C 
ATOM     27  C   UNL     1      -0.278  12.189  21.160  0.00  0.00    +0.000 C 
ATOM     28  C   UNL     1       1.190  11.919  20.811  0.00  0.00    +0.000 C 
ATOM     29  C   UNL     1       1.382  10.526  20.252  0.00  0.00    +0.000 C 
BRANCH  27  30
ATOM     30  C   UNL     1      -0.750  11.438  22.409  0.00  0.00    +0.000 C 
ATOM     31  N   UNL     1      -2.036  11.681  22.784  0.00  0.00    +0.000 N 
ATOM     32  O   UNL     1      -0.053  10.671  23.060  0.00  0.00    +0.000 OA
ATOM     33  H   UNL     1      -2.669  12.289  22.282  0.00  0.00    +0.000 HD
ATOM     34  H   UNL     1      -2.385  11.204  23.607  0.00  0.00    +0.000 HD
ENDBRANCH  27  30
ENDBRANCH  21  22
ENDBRANCH  20  21
ENDBRANCH   6  20
TORSDOF 4
ENDMDL
MODEL 4
REMARK VINA RESULT:      -8.1      1.403      1.789
REMARK  Name = 
REMARK  8 active torsions:
REMARK  status: ('A' for Active; 'I' for Inactive)
REMARK    1  A    between atoms: C_1  and  C_2
REMARK    2  A    between atoms: C_3  and  C_4
REMARK    3  A    between atoms: C_6  and  O_7
REMARK    4  A    between atoms: O_7  and  C_8
REMARK    5  A    between atoms: C_8  and  C_9
REMARK    6  A    between atoms: C_14  and  C_15
REMARK    7  A    between atoms: C_29  and  C_30
REMARK    8  A    between atoms: C_29  and  C_31
REMARK                            x       y       z     vdW  Elec       q    Type
REMARK                         _______ _______ _______ _____ _____    ______ ____
ROOT
ATOM      1  C   UNL     1      -3.497   9.956  15.488  0.00  0.00    +0.000 C 
ATOM      2  C   UNL     1      -3.109  10.540  16.825  0.00  0.00    +0.000 A 
ATOM      3  C   UNL     1      -1.990  10.271  17.522  0.00  0.00    +0.000 A 
ATOM      4  C   UNL     1      -0.956   9.337  16.988  0.00  0.00    +0.000 C 
ATOM      5  C   UNL     1      -1.718  10.949  18.828  0.00  0.00    +0.000 A 
ATOM      6  C   UNL     1      -0.599  10.736  19.673  0.00  0.00    +0.000 A 
ATOM      7  C   UNL     1      -0.451  11.443  20.875  0.00  0.00    +0.000 A 
ATOM      8  C   UNL     1      -1.435  12.342  21.285  0.00  0.00    +0.000 A 
ATOM      9  C   UNL     1      -2.535  12.597  20.468  0.00  0.00    +0.000 A 
ATOM     10  C   UNL     1      -2.658  11.884  19.266  0.00  0.00    +0.000 A 
ATOM     11  O   UNL     1      -3.818  12.151  18.518  0.00  0.00    +0.000 OA
ATOM     12  C   UNL     1      -4.102  11.504  17.336  0.00  0.00    +0.000 A 
ATOM     13  O   UNL     1      -5.146  11.738  16.724  0.00  0.00    +0.000 OA
ATOM     14  C   UNL     1      -3.605  13.568  20.885  0.00  0.00    +0.000 C 
ATOM     15  C   UNL     1      -3.135  14.404  22.064  0.00  0.00    +0.000 C 
ATOM     16  C   UNL     1      -2.437  13.513  23.099  0.00  0.00    +0.000 C 
ATOM     17  C   UNL     1      -1.981  14.386  24.275  0.00  0.00    +0.000 C 
ATOM     18  C   UNL     1      -3.344  12.400  23.659  0.00  0.00    +0.000 C 
ATOM     19  O   UNL     1      -1.254  12.922  22.517  0.00  0.00    +0.000 OA
ENDROOT
BRANCH   6  20
ATOM     20  O   UNL     1       0.349   9.861  19.239  0.00  0.00    +0.000 OA
BRANCH  20  21
ATOM     21  C   UNL     1       1.576   9.701  19.937  0.00  0.00    +0.000 C 
BRANCH  21  22
ATOM     22  C   UNL     1       1.501   8.377  20.712  0.00  0.00    +0.000 C 
ATOM     23  O   UNL     1       1.163   8.381  21.901  0.00  0.00    +0.000 OA
ATOM     24  N   UNL     1       1.856   7.194  20.053  0.00  0.00    +0.000 N 
ATOM     25  C   UNL     1       1.582   5.924  20.717  0.00  0.00    +0.000 C 
ATOM     26  C   UNL     1       2.671   4.903  20.407  0.00  0.00    +0.000 C 
ATOM     27  C   UNL     1       2.873   4.719  18.899  0.00  0.00    +0.000 C 
ATOM     28  C   UNL     1       3.143   6.080  18.247  0.00  0.00    +0.000 C 
ATOM     29  C   UNL     1       2.082   7.095  18.614  0.00  0.00    +0.000 C 
BRANCH  27  30
ATOM     30  C   UNL     1       1.694   3.971  18.268  0.00  0.00    +0.000 C 
ATOM     31  N   UNL     1       1.236   2.902  18.977  0.00  0.00    +0.000 N 
ATOM     32  O   UNL     1       1.176   4.270  17.201  0.00  0.00    +0.000 OA
ATOM     33  H   UNL     1       1.608   2.612  19.871  0.00  0.00    +0.000 HD
ATOM     34  H   UNL     1       0.458   2.380  18.592  0.00  0.00    +0.000 HD
ENDBRANCH  27  30
ENDBRANCH  21  22
ENDBRANCH  20  21
ENDBRANCH   6  20
TORSDOF 4
ENDMDL
MODEL 5
REMARK VINA RESULT:      -7.9      3.100     10.022
REMARK  Name = 
REMARK  8 active torsions:
REMARK  status: ('A' for Active; 'I' for Inactive)
REMARK    1  A    between atoms: C_1  and  C_2
REMARK    2  A    between atoms: C_3  and  C_4
REMARK    3  A    between atoms: C_6  and  O_7
REMARK    4  A    between atoms: O_7  and  C_8
REMARK    5  A    between atoms: C_8  and  C_9
REMARK    6  A    between atoms: C_14  and  C_15
REMARK    7  A    between atoms: C_29  and  C_30
REMARK    8  A    between atoms: C_29  and  C_31
REMARK                            x       y       z     vdW  Elec       q    Type
REMARK                         _______ _______ _______ _____ _____    ______ ____
ROOT
ATOM      1  C   UNL     1       2.262   2.844  21.871  0.00  0.00    +0.000 C 
ATOM      2  C   UNL     1       2.944   3.440  20.665  0.00  0.00    +0.000 A 
ATOM      3  C   UNL     1       2.575   4.553  20.004  0.00  0.00    +0.000 A 
ATOM      4  C   UNL     1       1.405   5.362  20.453  0.00  0.00    +0.000 C 
ATOM      5  C   UNL     1       3.367   5.049  18.834  0.00  0.00    +0.000 A 
ATOM      6  C   UNL     1       3.073   6.184  18.036  0.00  0.00    +0.000 A 
ATOM      7  C   UNL     1       3.900   6.553  16.966  0.00  0.00    +0.000 A 
ATOM      8  C   UNL     1       5.011   5.777  16.637  0.00  0.00    +0.000 A 
ATOM      9  C   UNL     1       5.345   4.670  17.416  0.00  0.00    +0.000 A 
ATOM     10  C   UNL     1       4.508   4.323  18.486  0.00  0.00    +0.000 A 
ATOM     11  O   UNL     1       4.875   3.165  19.194  0.00  0.00    +0.000 OA
ATOM     12  C   UNL     1       4.134   2.674  20.245  0.00  0.00    +0.000 A 
ATOM     13  O   UNL     1       4.466   1.636  20.821  0.00  0.00    +0.000 OA
ATOM     14  C   UNL     1       6.542   3.821  17.085  0.00  0.00    +0.000 C 
ATOM     15  C   UNL     1       7.434   4.527  16.077  0.00  0.00    +0.000 C 
ATOM     16  C   UNL     1       6.582   5.149  14.964  0.00  0.00    +0.000 C 
ATOM     17  C   UNL     1       7.512   5.848  13.963  0.00  0.00    +0.000 C 
ATOM     18  C   UNL     1       5.741   4.118  14.188  0.00  0.00    +0.000 C 
ATOM     19  O   UNL     1       5.713   6.160  15.520  0.00  0.00    +0.000 OA
ENDROOT
BRANCH   6  20
ATOM     20  O   UNL     1       1.989   6.928  18.389  0.00  0.00    +0.000 OA
BRANCH  20  21
ATOM     21  C   UNL     1       1.988   8.341  18.244  0.00  0.00    +0.000 C 
BRANCH  21  22
ATOM     22  C   UNL     1       1.525   8.944  19.579  0.00  0.00    +0.000 C 
ATOM     23  O   UNL     1       1.893   8.434  20.642  0.00  0.00    +0.000 OA
ATOM     24  N   UNL     1       0.659  10.044  19.551  0.00  0.00    +0.000 N 
ATOM     25  C   UNL     1       0.392  10.744  20.803  0.00  0.00    +0.000 C 
ATOM     26  C   UNL     1      -1.046  11.249  20.847  0.00  0.00    +0.000 C 
ATOM     27  C   UNL     1      -1.387  12.117  19.631  0.00  0.00    +0.000 C 
ATOM     28  C   UNL     1      -1.077  11.345  18.344  0.00  0.00    +0.000 C 
ATOM     29  C   UNL     1       0.336  10.803  18.346  0.00  0.00    +0.000 C 
BRANCH  27  30
ATOM     30  C   UNL     1      -0.683  13.476  19.704  0.00  0.00    +0.000 C 
ATOM     31  N   UNL     1      -0.558  14.132  18.517  0.00  0.00    +0.000 N 
ATOM     32  O   UNL     1      -0.241  13.972  20.731  0.00  0.00    +0.000 OA
ATOM     33  H   UNL     1      -0.915  13.787  17.637  0.00  0.00    +0.000 HD
ATOM     34  H   UNL     1      -0.096  15.034  18.523  0.00  0.00    +0.000 HD
ENDBRANCH  27  30
ENDBRANCH  21  22
ENDBRANCH  20  21
ENDBRANCH   6  20
TORSDOF 4
ENDMDL
MODEL 6
REMARK VINA RESULT:      -7.9      3.609     10.018
REMARK  Name = 
REMARK  8 active torsions:
REMARK  status: ('A' for Active; 'I' for Inactive)
REMARK    1  A    between atoms: C_1  and  C_2
REMARK    2  A    between atoms: C_3  and  C_4
REMARK    3  A    between atoms: C_6  and  O_7
REMARK    4  A    between atoms: O_7  and  C_8
REMARK    5  A    between atoms: C_8  and  C_9
REMARK    6  A    between atoms: C_14  and  C_15
REMARK    7  A    between atoms: C_29  and  C_30
REMARK    8  A    between atoms: C_29  and  C_31
REMARK                            x       y       z     vdW  Elec       q    Type
REMARK                         _______ _______ _______ _____ _____    ______ ____
ROOT
ATOM      1  C   UNL     1       1.780   3.593  21.681  0.00  0.00    +0.000 C 
ATOM      2  C   UNL     1       2.577   4.063  20.489  0.00  0.00    +0.000 A 
ATOM      3  C   UNL     1       2.533   5.286  19.928  0.00  0.00    +0.000 A 
ATOM      4  C   UNL     1       1.659   6.358  20.487  0.00  0.00    +0.000 C 
ATOM      5  C   UNL     1       3.406   5.626  18.761  0.00  0.00    +0.000 A 
ATOM      6  C   UNL     1       3.437   6.860  18.061  0.00  0.00    +0.000 A 
ATOM      7  C   UNL     1       4.310   7.061  16.983  0.00  0.00    +0.000 A 
ATOM      8  C   UNL     1       5.139   6.028  16.548  0.00  0.00    +0.000 A 
ATOM      9  C   UNL     1       5.156   4.811  17.229  0.00  0.00    +0.000 A 
ATOM     10  C   UNL     1       4.279   4.634  18.310  0.00  0.00    +0.000 A 
ATOM     11  O   UNL     1       4.310   3.366  18.915  0.00  0.00    +0.000 OA
ATOM     12  C   UNL     1       3.483   3.025  19.962  0.00  0.00    +0.000 A 
ATOM     13  O   UNL     1       3.513   1.891  20.446  0.00  0.00    +0.000 OA
ATOM     14  C   UNL     1       6.046   3.684  16.784  0.00  0.00    +0.000 C 
ATOM     15  C   UNL     1       7.080   4.183  15.789  0.00  0.00    +0.000 C 
ATOM     16  C   UNL     1       6.420   5.113  14.764  0.00  0.00    +0.000 C 
ATOM     17  C   UNL     1       7.489   5.594  13.774  0.00  0.00    +0.000 C 
ATOM     18  C   UNL     1       5.297   4.436  13.956  0.00  0.00    +0.000 C 
ATOM     19  O   UNL     1       5.895   6.282  15.430  0.00  0.00    +0.000 OA
ENDROOT
BRANCH   6  20
ATOM     20  O   UNL     1       2.625   7.852  18.517  0.00  0.00    +0.000 OA
BRANCH  20  21
ATOM     21  C   UNL     1       2.251   8.938  17.680  0.00  0.00    +0.000 C 
BRANCH  21  22
ATOM     22  C   UNL     1       1.184   9.754  18.428  0.00  0.00    +0.000 C 
ATOM     23  O   UNL     1       0.166   9.193  18.846  0.00  0.00    +0.000 OA
ATOM     24  N   UNL     1       1.382  11.131  18.583  0.00  0.00    +0.000 N 
ATOM     25  C   UNL     1       0.484  11.862  19.470  0.00  0.00    +0.000 C 
ATOM     26  C   UNL     1       0.219  13.266  18.937  0.00  0.00    +0.000 C 
ATOM     27  C   UNL     1       1.519  14.040  18.688  0.00  0.00    +0.000 C 
ATOM     28  C   UNL     1       2.432  13.226  17.764  0.00  0.00    +0.000 C 
ATOM     29  C   UNL     1       2.635  11.818  18.280  0.00  0.00    +0.000 C 
BRANCH  27  30
ATOM     30  C   UNL     1       2.191  14.436  20.006  0.00  0.00    +0.000 C 
ATOM     31  N   UNL     1       1.353  14.913  20.968  0.00  0.00    +0.000 N 
ATOM     32  O   UNL     1       3.393  14.355  20.222  0.00  0.00    +0.000 OA
ATOM     33  H   UNL     1       0.351  14.990  20.861  0.00  0.00    +0.000 HD
ATOM     34  H   UNL     1       1.760  15.188  21.854  0.00  0.00    +0.000 HD
ENDBRANCH  27  30
ENDBRANCH  21  22
ENDBRANCH  20  21
ENDBRANCH   6  20
TORSDOF 4
ENDMDL
MODEL 7
REMARK VINA RESULT:      -7.8      3.498      5.279
REMARK  Name = 
REMARK  8 active torsions:
REMARK  status: ('A' for Active; 'I' for Inactive)
REMARK    1  A    between atoms: C_1  and  C_2
REMARK    2  A    between atoms: C_3  and  C_4
REMARK    3  A    between atoms: C_6  and  O_7
REMARK    4  A    between atoms: O_7  and  C_8
REMARK    5  A    between atoms: C_8  and  C_9
REMARK    6  A    between atoms: C_14  and  C_15
REMARK    7  A    between atoms: C_29  and  C_30
REMARK    8  A    between atoms: C_29  and  C_31
REMARK                            x       y       z     vdW  Elec       q    Type
REMARK                         _______ _______ _______ _____ _____    ______ ____
ROOT
ATOM      1  C   UNL     1      -1.077   9.544  23.220  0.00  0.00    +0.000 C 
ATOM      2  C   UNL     1      -0.358  10.359  22.174  0.00  0.00    +0.000 A 
ATOM      3  C   UNL     1       0.294   9.885  21.097  0.00  0.00    +0.000 A 
ATOM      4  C   UNL     1       0.341   8.422  20.808  0.00  0.00    +0.000 C 
ATOM      5  C   UNL     1       0.940  10.816  20.119  0.00  0.00    +0.000 A 
ATOM      6  C   UNL     1       1.679  10.449  18.966  0.00  0.00    +0.000 A 
ATOM      7  C   UNL     1       2.232  11.420  18.119  0.00  0.00    +0.000 A 
ATOM      8  C   UNL     1       2.102  12.774  18.423  0.00  0.00    +0.000 A 
ATOM      9  C   UNL     1       1.359  13.173  19.534  0.00  0.00    +0.000 A 
ATOM     10  C   UNL     1       0.808  12.185  20.363  0.00  0.00    +0.000 A 
ATOM     11  O   UNL     1       0.119  12.656  21.494  0.00  0.00    +0.000 OA
ATOM     12  C   UNL     1      -0.444  11.811  22.423  0.00  0.00    +0.000 A 
ATOM     13  O   UNL     1      -1.012  12.260  23.422  0.00  0.00    +0.000 OA
ATOM     14  C   UNL     1       1.198  14.628  19.879  0.00  0.00    +0.000 C 
ATOM     15  C   UNL     1       1.637  15.503  18.717  0.00  0.00    +0.000 C 
ATOM     16  C   UNL     1       2.951  14.978  18.128  0.00  0.00    +0.000 C 
ATOM     17  C   UNL     1       3.367  15.885  16.963  0.00  0.00    +0.000 C 
ATOM     18  C   UNL     1       4.110  14.950  19.143  0.00  0.00    +0.000 C 
ATOM     19  O   UNL     1       2.751  13.652  17.590  0.00  0.00    +0.000 OA
ENDROOT
BRANCH   6  20
ATOM     20  O   UNL     1       1.779   9.121  18.689  0.00  0.00    +0.000 OA
BRANCH  20  21
ATOM     21  C   UNL     1       2.756   8.630  17.782  0.00  0.00    +0.000 C 
BRANCH  21  22
ATOM     22  C   UNL     1       3.009   7.154  18.125  0.00  0.00    +0.000 C 
ATOM     23  O   UNL     1       2.152   6.514  18.744  0.00  0.00    +0.000 OA
ATOM     24  N   UNL     1       4.231   6.580  17.757  0.00  0.00    +0.000 N 
ATOM     25  C   UNL     1       4.385   5.136  17.891  0.00  0.00    +0.000 C 
ATOM     26  C   UNL     1       5.810   4.777  18.297  0.00  0.00    +0.000 C 
ATOM     27  C   UNL     1       6.847   5.367  17.335  0.00  0.00    +0.000 C 
ATOM     28  C   UNL     1       6.636   6.881  17.218  0.00  0.00    +0.000 C 
ATOM     29  C   UNL     1       5.202   7.219  16.871  0.00  0.00    +0.000 C 
BRANCH  27  30
ATOM     30  C   UNL     1       6.824   4.648  15.982  0.00  0.00    +0.000 C 
ATOM     31  N   UNL     1       7.551   5.240  14.995  0.00  0.00    +0.000 N 
ATOM     32  O   UNL     1       6.203   3.617  15.757  0.00  0.00    +0.000 OA
ATOM     33  H   UNL     1       8.098   6.081  15.118  0.00  0.00    +0.000 HD
ATOM     34  H   UNL     1       7.559   4.796  14.085  0.00  0.00    +0.000 HD
ENDBRANCH  27  30
ENDBRANCH  21  22
ENDBRANCH  20  21
ENDBRANCH   6  20
TORSDOF 4
ENDMDL
MODEL 8
REMARK VINA RESULT:      -7.7      7.952      9.642
REMARK  Name = 
REMARK  8 active torsions:
REMARK  status: ('A' for Active; 'I' for Inactive)
REMARK    1  A    between atoms: C_1  and  C_2
REMARK    2  A    between atoms: C_3  and  C_4
REMARK    3  A    between atoms: C_6  and  O_7
REMARK    4  A    between atoms: O_7  and  C_8
REMARK    5  A    between atoms: C_8  and  C_9
REMARK    6  A    between atoms: C_14  and  C_15
REMARK    7  A    between atoms: C_29  and  C_30
REMARK    8  A    between atoms: C_29  and  C_31
REMARK                            x       y       z     vdW  Elec       q    Type
REMARK                         _______ _______ _______ _____ _____    ______ ____
ROOT
ATOM      1  C   UNL     1      10.102  15.994  17.347  0.00  0.00    +0.000 C 
ATOM      2  C   UNL     1       9.724  15.178  18.559  0.00  0.00    +0.000 A 
ATOM      3  C   UNL     1       9.698  13.835  18.644  0.00  0.00    +0.000 A 
ATOM      4  C   UNL     1      10.092  12.982  17.485  0.00  0.00    +0.000 C 
ATOM      5  C   UNL     1       9.330  13.154  19.925  0.00  0.00    +0.000 A 
ATOM      6  C   UNL     1       9.235  11.755  20.141  0.00  0.00    +0.000 A 
ATOM      7  C   UNL     1       8.887  11.236  21.396  0.00  0.00    +0.000 A 
ATOM      8  C   UNL     1       8.582  12.096  22.451  0.00  0.00    +0.000 A 
ATOM      9  C   UNL     1       8.691  13.475  22.283  0.00  0.00    +0.000 A 
ATOM     10  C   UNL     1       9.048  13.972  21.021  0.00  0.00    +0.000 A 
ATOM     11  O   UNL     1       9.086  15.373  20.908  0.00  0.00    +0.000 OA
ATOM     12  C   UNL     1       9.381  16.013  19.726  0.00  0.00    +0.000 A 
ATOM     13  O   UNL     1       9.371  17.244  19.655  0.00  0.00    +0.000 OA
ATOM     14  C   UNL     1       8.375  14.422  23.408  0.00  0.00    +0.000 C 
ATOM     15  C   UNL     1       8.280  13.671  24.725  0.00  0.00    +0.000 C 
ATOM     16  C   UNL     1       7.477  12.378  24.539  0.00  0.00    +0.000 C 
ATOM     17  C   UNL     1       7.396  11.649  25.886  0.00  0.00    +0.000 C 
ATOM     18  C   UNL     1       6.038  12.617  24.043  0.00  0.00    +0.000 C 
ATOM     19  O   UNL     1       8.164  11.504  23.618  0.00  0.00    +0.000 OA
ENDROOT
BRANCH   6  20
ATOM     20  O   UNL     1       9.550  10.943  19.095  0.00  0.00    +0.000 OA
BRANCH  20  21
ATOM     21  C   UNL     1       9.308   9.544  19.153  0.00  0.00    +0.000 C 
BRANCH  21  22
ATOM     22  C   UNL     1       8.233   9.216  18.106  0.00  0.00    +0.000 C 
ATOM     23  O   UNL     1       7.837  10.098  17.337  0.00  0.00    +0.000 OA
ATOM     24  N   UNL     1       7.700   7.922  18.077  0.00  0.00    +0.000 N 
ATOM     25  C   UNL     1       6.842   7.552  16.956  0.00  0.00    +0.000 C 
ATOM     26  C   UNL     1       5.733   6.609  17.408  0.00  0.00    +0.000 C 
ATOM     27  C   UNL     1       6.288   5.373  18.125  0.00  0.00    +0.000 C 
ATOM     28  C   UNL     1       7.190   5.812  19.283  0.00  0.00    +0.000 C 
ATOM     29  C   UNL     1       8.248   6.793  18.824  0.00  0.00    +0.000 C 
BRANCH  27  30
ATOM     30  C   UNL     1       6.984   4.426  17.142  0.00  0.00    +0.000 C 
ATOM     31  N   UNL     1       6.155   3.750  16.299  0.00  0.00    +0.000 N 
ATOM     32  O   UNL     1       8.193   4.252  17.088  0.00  0.00    +0.000 OA
ATOM     33  H   UNL     1       5.150   3.860  16.280  0.00  0.00    +0.000 HD
ATOM     34  H   UNL     1       6.577   3.112  15.635  0.00  0.00    +0.000 HD
ENDBRANCH  27  30
ENDBRANCH  21  22
ENDBRANCH  20  21
ENDBRANCH   6  20
TORSDOF 4
ENDMDL
MODEL 9
REMARK VINA RESULT:      -7.6      2.377      3.280
REMARK  Name = 
REMARK  8 active torsions:
REMARK  status: ('A' for Active; 'I' for Inactive)
REMARK    1  A    between atoms: C_1  and  C_2
REMARK    2  A    between atoms: C_3  and  C_4
REMARK    3  A    between atoms: C_6  and  O_7
REMARK    4  A    between atoms: O_7  and  C_8
REMARK    5  A    between atoms: C_8  and  C_9
REMARK    6  A    between atoms: C_14  and  C_15
REMARK    7  A    between atoms: C_29  and  C_30
REMARK    8  A    between atoms: C_29  and  C_31
REMARK                            x       y       z     vdW  Elec       q    Type
REMARK                         _______ _______ _______ _____ _____    ______ ____
ROOT
ATOM      1  C   UNL     1       3.339  14.566  17.757  0.00  0.00    +0.000 C 
ATOM      2  C   UNL     1       2.291  14.041  18.707  0.00  0.00    +0.000 A 
ATOM      3  C   UNL     1       1.924  12.756  18.865  0.00  0.00    +0.000 A 
ATOM      4  C   UNL     1       2.582  11.666  18.086  0.00  0.00    +0.000 C 
ATOM      5  C   UNL     1       0.885  12.373  19.872  0.00  0.00    +0.000 A 
ATOM      6  C   UNL     1       0.388  11.067  20.117  0.00  0.00    +0.000 A 
ATOM      7  C   UNL     1      -0.585  10.833  21.099  0.00  0.00    +0.000 A 
ATOM      8  C   UNL     1      -1.117  11.896  21.827  0.00  0.00    +0.000 A 
ATOM      9  C   UNL     1      -0.633  13.189  21.632  0.00  0.00    +0.000 A 
ATOM     10  C   UNL     1       0.345  13.399  20.650  0.00  0.00    +0.000 A 
ATOM     11  O   UNL     1       0.748  14.734  20.469  0.00  0.00    +0.000 OA
ATOM     12  C   UNL     1       1.671  15.106  19.518  0.00  0.00    +0.000 A 
ATOM     13  O   UNL     1       1.975  16.291  19.364  0.00  0.00    +0.000 OA
ATOM     14  C   UNL     1      -1.187  14.351  22.410  0.00  0.00    +0.000 C 
ATOM     15  C   UNL     1      -2.021  13.859  23.581  0.00  0.00    +0.000 C 
ATOM     16  C   UNL     1      -2.932  12.709  23.135  0.00  0.00    +0.000 C 
ATOM     17  C   UNL     1      -3.761  12.241  24.337  0.00  0.00    +0.000 C 
ATOM     18  C   UNL     1      -3.909  13.103  22.010  0.00  0.00    +0.000 C 
ATOM     19  O   UNL     1      -2.129  11.588  22.704  0.00  0.00    +0.000 OA
ENDROOT
BRANCH   6  20
ATOM     20  O   UNL     1       0.935  10.049  19.398  0.00  0.00    +0.000 OA
BRANCH  20  21
ATOM     21  C   UNL     1       1.401   8.867  20.034  0.00  0.00    +0.000 C 
BRANCH  21  22
ATOM     22  C   UNL     1       1.985   7.953  18.946  0.00  0.00    +0.000 C 
ATOM     23  O   UNL     1       2.372   8.442  17.879  0.00  0.00    +0.000 OA
ATOM     24  N   UNL     1       2.029   6.575  19.182  0.00  0.00    +0.000 N 
ATOM     25  C   UNL     1       2.772   5.736  18.248  0.00  0.00    +0.000 C 
ATOM     26  C   UNL     1       2.095   4.382  18.076  0.00  0.00    +0.000 C 
ATOM     27  C   UNL     1       1.878   3.674  19.418  0.00  0.00    +0.000 C 
ATOM     28  C   UNL     1       1.107   4.597  20.368  0.00  0.00    +0.000 C 
ATOM     29  C   UNL     1       1.764   5.957  20.479  0.00  0.00    +0.000 C 
BRANCH  27  30
ATOM     30  C   UNL     1       3.204   3.176  20.004  0.00  0.00    +0.000 C 
ATOM     31  N   UNL     1       3.132   2.686  21.273  0.00  0.00    +0.000 N 
ATOM     32  O   UNL     1       4.275   3.205  19.414  0.00  0.00    +0.000 OA
ATOM     33  H   UNL     1       2.278   2.619  21.809  0.00  0.00    +0.000 HD
ATOM     34  H   UNL     1       3.988   2.349  21.696  0.00  0.00    +0.000 HD
ENDBRANCH  27  30
ENDBRANCH  21  22
ENDBRANCH  20  21
ENDBRANCH   6  20
TORSDOF 4
ENDMDL
