MODEL 1
REMARK VINA RESULT:      -7.1      0.000      0.000
REMARK  Name = 
REMARK  7 active torsions:
REMARK  status: ('A' for Active; 'I' for Inactive)
REMARK    1  A    between atoms: N_1  and  CA_2
REMARK    2  A    between atoms: CA_2  and  C_3
REMARK    3  A    between atoms: CA_2  and  C_5
REMARK    4  A    between atoms: C_3  and  O_4
REMARK    5  A    between atoms: N_7  and  C_8
REMARK    6  A    between atoms: C_14  and  C_15
REMARK    7  A    between atoms: C_15  and  C_17
REMARK                            x       y       z     vdW  Elec       q    Type
REMARK                         _______ _______ _______ _____ _____    ______ ____
ROOT
ATOM      1  C   UNL     1       2.374   6.469  19.942  0.00  0.00    +0.000 A 
ATOM      2  C   UNL     1       1.764   7.553  20.591  0.00  0.00    +0.000 A 
ATOM      3  C   UNL     1       1.526   8.752  19.916  0.00  0.00    +0.000 A 
ATOM      4  C   UNL     1       1.834   8.846  18.568  0.00  0.00    +0.000 A 
ATOM      5 CL   UNL     1       1.525  10.314  17.720  0.00  0.00    +0.000 Cl
ATOM      6  C   UNL     1       2.380   7.761  17.887  0.00  0.00    +0.000 A 
ATOM      7  C   UNL     1       2.692   6.571  18.572  0.00  0.00    +0.000 A 
ENDROOT
BRANCH   1  10
ATOM      8  C   UNL     1       1.733   4.282  20.909  0.00  0.00    +0.000 C 
ATOM      9  O   UNL     1       0.675   4.162  20.293  0.00  0.00    +0.000 OA
ATOM     10  N   UNL     1       2.612   5.344  20.750  0.00  0.00    +0.000 N 
ATOM     11  H   UNL     1       3.561   5.182  21.077  0.00  0.00    +0.000 HD
BRANCH   8  12
ATOM     12  CA  UNL     1       2.298   3.149  21.804  0.00  0.00    +0.000 C 
BRANCH  12  13
ATOM     13  N   UNL     1       1.182   2.314  22.317  0.00  0.00    +0.000 NA
ATOM     14  H1  UNL     1       1.154   2.369  23.332  0.00  0.00    +0.000 HD
ATOM     15  H2  UNL     1       1.357   1.339  22.078  0.00  0.00    +0.000 HD
ENDBRANCH  12  13
BRANCH  12  16
ATOM     16  C   UNL     1       3.335   2.291  21.059  0.00  0.00    +0.000 C 
BRANCH  16  17
ATOM     17  O   UNL     1       3.375   2.655  19.668  0.00  0.00    +0.000 OA
ATOM     18  H   UNL     1       4.306   2.849  19.455  0.00  0.00    +0.000 HD
ENDBRANCH  16  17
ENDBRANCH  12  16
ENDBRANCH   8  12
ENDBRANCH   1  10
BRANCH   7  19
ATOM     19  C   UNL     1       3.160   5.407  17.758  0.00  0.00    +0.000 C 
ATOM     20  O   UNL     1       2.363   4.517  17.460  0.00  0.00    +0.000 OA
BRANCH  19  21
ATOM     21  C   UNL     1       4.540   5.373  17.182  0.00  0.00    +0.000 A 
ATOM     22  C   UNL     1       4.821   4.436  16.178  0.00  0.00    +0.000 A 
ATOM     23  C   UNL     1       6.069   4.430  15.548  0.00  0.00    +0.000 A 
ATOM     24  C   UNL     1       7.042   5.355  15.921  0.00  0.00    +0.000 A 
ATOM     25  C   UNL     1       6.780   6.272  16.938  0.00  0.00    +0.000 A 
ATOM     26  C   UNL     1       5.540   6.271  17.581  0.00  0.00    +0.000 A 
ENDBRANCH  19  21
ENDBRANCH   7  19
TORSDOF 7
ENDMDL
MODEL 2
REMARK VINA RESULT:      -7.0      1.071      1.295
REMARK  Name = 
REMARK  7 active torsions:
REMARK  status: ('A' for Active; 'I' for Inactive)
REMARK    1  A    between atoms: N_1  and  CA_2
REMARK    2  A    between atoms: CA_2  and  C_3
REMARK    3  A    between atoms: CA_2  and  C_5
REMARK    4  A    between atoms: C_3  and  O_4
REMARK    5  A    between atoms: N_7  and  C_8
REMARK    6  A    between atoms: C_14  and  C_15
REMARK    7  A    between atoms: C_15  and  C_17
REMARK                            x       y       z     vdW  Elec       q    Type
REMARK                         _______ _______ _______ _____ _____    ______ ____
ROOT
ATOM      1  C   UNL     1       2.084   6.760  20.283  0.00  0.00    +0.000 A 
ATOM      2  C   UNL     1       1.235   7.687  20.907  0.00  0.00    +0.000 A 
ATOM      3  C   UNL     1       0.950   8.915  20.307  0.00  0.00    +0.000 A 
ATOM      4  C   UNL     1       1.457   9.191  19.047  0.00  0.00    +0.000 A 
ATOM      5 CL   UNL     1       1.096  10.695  18.289  0.00  0.00    +0.000 Cl
ATOM      6  C   UNL     1       2.248   8.259  18.381  0.00  0.00    +0.000 A 
ATOM      7  C   UNL     1       2.603   7.046  19.005  0.00  0.00    +0.000 A 
ENDROOT
BRANCH   1  10
ATOM      8  C   UNL     1       1.662   4.389  20.857  0.00  0.00    +0.000 C 
ATOM      9  O   UNL     1       0.816   4.183  19.988  0.00  0.00    +0.000 OA
ATOM     10  N   UNL     1       2.337   5.589  21.020  0.00  0.00    +0.000 N 
ATOM     11  H   UNL     1       3.199   5.540  21.557  0.00  0.00    +0.000 HD
BRANCH   8  12
ATOM     12  CA  UNL     1       2.209   3.252  21.759  0.00  0.00    +0.000 C 
BRANCH  12  13
ATOM     13  N   UNL     1       1.087   2.391  22.212  0.00  0.00    +0.000 NA
ATOM     14  H1  UNL     1       0.883   2.584  23.190  0.00  0.00    +0.000 HD
ATOM     15  H2  UNL     1       1.373   1.415  22.157  0.00  0.00    +0.000 HD
ENDBRANCH  12  13
BRANCH  12  16
ATOM     16  C   UNL     1       3.290   2.423  21.046  0.00  0.00    +0.000 C 
BRANCH  16  17
ATOM     17  O   UNL     1       3.268   2.687  19.632  0.00  0.00    +0.000 OA
ATOM     18  H   UNL     1       2.344   2.582  19.340  0.00  0.00    +0.000 HD
ENDBRANCH  16  17
ENDBRANCH  12  16
ENDBRANCH   8  12
ENDBRANCH   1  10
BRANCH   7  19
ATOM     19  C   UNL     1       3.350   6.042  18.187  0.00  0.00    +0.000 C 
ATOM     20  O   UNL     1       2.730   5.298  17.426  0.00  0.00    +0.000 OA
BRANCH  19  21
ATOM     21  C   UNL     1       4.846   6.016  18.172  0.00  0.00    +0.000 A 
ATOM     22  C   UNL     1       5.515   6.696  17.146  0.00  0.00    +0.000 A 
ATOM     23  C   UNL     1       6.910   6.776  17.145  0.00  0.00    +0.000 A 
ATOM     24  C   UNL     1       7.644   6.174  18.165  0.00  0.00    +0.000 A 
ATOM     25  C   UNL     1       6.987   5.471  19.175  0.00  0.00    +0.000 A 
ATOM     26  C   UNL     1       5.593   5.376  19.170  0.00  0.00    +0.000 A 
ENDBRANCH  19  21
ENDBRANCH   7  19
TORSDOF 7
ENDMDL
MODEL 3
REMARK VINA RESULT:      -7.0      3.247      5.908
REMARK  Name = 
REMARK  7 active torsions:
REMARK  status: ('A' for Active; 'I' for Inactive)
REMARK    1  A    between atoms: N_1  and  CA_2
REMARK    2  A    between atoms: CA_2  and  C_3
REMARK    3  A    between atoms: CA_2  and  C_5
REMARK    4  A    between atoms: C_3  and  O_4
REMARK    5  A    between atoms: N_7  and  C_8
REMARK    6  A    between atoms: C_14  and  C_15
REMARK    7  A    between atoms: C_15  and  C_17
REMARK                            x       y       z     vdW  Elec       q    Type
REMARK                         _______ _______ _______ _____ _____    ______ ____
ROOT
ATOM      1  C   UNL     1       4.096   4.373  18.009  0.00  0.00    +0.000 A 
ATOM      2  C   UNL     1       3.904   2.984  17.997  0.00  0.00    +0.000 A 
ATOM      3  C   UNL     1       2.659   2.429  18.302  0.00  0.00    +0.000 A 
ATOM      4  C   UNL     1       1.584   3.267  18.550  0.00  0.00    +0.000 A 
ATOM      5 CL   UNL     1       0.039   2.594  18.907  0.00  0.00    +0.000 Cl
ATOM      6  C   UNL     1       1.736   4.650  18.502  0.00  0.00    +0.000 A 
ATOM      7  C   UNL     1       3.002   5.222  18.268  0.00  0.00    +0.000 A 
ENDROOT
BRANCH   1  10
ATOM      8  C   UNL     1       6.345   5.135  18.711  0.00  0.00    +0.000 C 
ATOM      9  O   UNL     1       6.160   5.019  19.921  0.00  0.00    +0.000 OA
ATOM     10  N   UNL     1       5.410   4.799  17.744  0.00  0.00    +0.000 N 
ATOM     11  H   UNL     1       5.778   4.656  16.806  0.00  0.00    +0.000 HD
BRANCH   8  12
ATOM     12  CA  UNL     1       7.733   5.496  18.121  0.00  0.00    +0.000 C 
BRANCH  12  13
ATOM     13  N   UNL     1       8.053   4.577  16.999  0.00  0.00    +0.000 NA
ATOM     14  H1  UNL     1       7.531   4.854  16.172  0.00  0.00    +0.000 HD
ATOM     15  H2  UNL     1       7.747   3.636  17.241  0.00  0.00    +0.000 HD
ENDBRANCH  12  13
BRANCH  12  16
ATOM     16  C   UNL     1       7.801   6.965  17.670  0.00  0.00    +0.000 C 
BRANCH  16  17
ATOM     17  O   UNL     1       6.718   7.259  16.770  0.00  0.00    +0.000 OA
ATOM     18  H   UNL     1       6.670   6.521  16.136  0.00  0.00    +0.000 HD
ENDBRANCH  16  17
ENDBRANCH  12  16
ENDBRANCH   8  12
ENDBRANCH   1  10
BRANCH   7  19
ATOM     19  C   UNL     1       3.069   6.708  18.108  0.00  0.00    +0.000 C 
ATOM     20  O   UNL     1       3.711   7.188  17.172  0.00  0.00    +0.000 OA
BRANCH  19  21
ATOM     21  C   UNL     1       2.261   7.616  18.979  0.00  0.00    +0.000 A 
ATOM     22  C   UNL     1       1.694   8.762  18.405  0.00  0.00    +0.000 A 
ATOM     23  C   UNL     1       0.857   9.589  19.158  0.00  0.00    +0.000 A 
ATOM     24  C   UNL     1       0.585   9.278  20.489  0.00  0.00    +0.000 A 
ATOM     25  C   UNL     1       1.167   8.155  21.076  0.00  0.00    +0.000 A 
ATOM     26  C   UNL     1       2.018   7.335  20.330  0.00  0.00    +0.000 A 
ENDBRANCH  19  21
ENDBRANCH   7  19
TORSDOF 7
ENDMDL
MODEL 4
REMARK VINA RESULT:      -6.9      3.255      5.904
REMARK  Name = 
REMARK  7 active torsions:
REMARK  status: ('A' for Active; 'I' for Inactive)
REMARK    1  A    between atoms: N_1  and  CA_2
REMARK    2  A    between atoms: CA_2  and  C_3
REMARK    3  A    between atoms: CA_2  and  C_5
REMARK    4  A    between atoms: C_3  and  O_4
REMARK    5  A    between atoms: N_7  and  C_8
REMARK    6  A    between atoms: C_14  and  C_15
REMARK    7  A    between atoms: C_15  and  C_17
REMARK                            x       y       z     vdW  Elec       q    Type
REMARK                         _______ _______ _______ _____ _____    ______ ____
ROOT
ATOM      1  C   UNL     1       4.098   4.329  17.962  0.00  0.00    +0.000 A 
ATOM      2  C   UNL     1       3.903   2.940  17.949  0.00  0.00    +0.000 A 
ATOM      3  C   UNL     1       2.655   2.389  18.246  0.00  0.00    +0.000 A 
ATOM      4  C   UNL     1       1.580   3.229  18.488  0.00  0.00    +0.000 A 
ATOM      5 CL   UNL     1       0.031   2.560  18.836  0.00  0.00    +0.000 Cl
ATOM      6  C   UNL     1       1.736   4.612  18.442  0.00  0.00    +0.000 A 
ATOM      7  C   UNL     1       3.004   5.181  18.214  0.00  0.00    +0.000 A 
ENDROOT
BRANCH   1  10
ATOM      8  C   UNL     1       6.332   5.125  18.675  0.00  0.00    +0.000 C 
ATOM      9  O   UNL     1       6.127   5.050  19.886  0.00  0.00    +0.000 OA
ATOM     10  N   UNL     1       5.415   4.751  17.705  0.00  0.00    +0.000 N 
ATOM     11  H   UNL     1       5.799   4.579  16.779  0.00  0.00    +0.000 HD
BRANCH   8  12
ATOM     12  CA  UNL     1       7.728   5.472  18.097  0.00  0.00    +0.000 C 
BRANCH  12  13
ATOM     13  N   UNL     1       8.032   4.574  16.954  0.00  0.00    +0.000 NA
ATOM     14  H1  UNL     1       9.035   4.570  16.782  0.00  0.00    +0.000 HD
ATOM     15  H2  UNL     1       7.589   4.941  16.114  0.00  0.00    +0.000 HD
ENDBRANCH  12  13
BRANCH  12  16
ATOM     16  C   UNL     1       7.826   6.949  17.682  0.00  0.00    +0.000 C 
BRANCH  16  17
ATOM     17  O   UNL     1       6.714   7.306  16.843  0.00  0.00    +0.000 OA
ATOM     18  H   UNL     1       7.059   7.376  15.934  0.00  0.00    +0.000 HD
ENDBRANCH  16  17
ENDBRANCH  12  16
ENDBRANCH   8  12
ENDBRANCH   1  10
BRANCH   7  19
ATOM     19  C   UNL     1       3.077   6.666  18.055  0.00  0.00    +0.000 C 
ATOM     20  O   UNL     1       3.776   7.147  17.163  0.00  0.00    +0.000 OA
BRANCH  19  21
ATOM     21  C   UNL     1       2.209   7.573  18.869  0.00  0.00    +0.000 A 
ATOM     22  C   UNL     1       2.007   7.268  20.221  0.00  0.00    +0.000 A 
ATOM     23  C   UNL     1       1.280   8.136  21.040  0.00  0.00    +0.000 A 
ATOM     24  C   UNL     1       0.748   9.311  20.512  0.00  0.00    +0.000 A 
ATOM     25  C   UNL     1       0.921   9.609  19.160  0.00  0.00    +0.000 A 
ATOM     26  C   UNL     1       1.634   8.735  18.335  0.00  0.00    +0.000 A 
ENDBRANCH  19  21
ENDBRANCH   7  19
TORSDOF 7
ENDMDL
MODEL 5
REMARK VINA RESULT:      -6.9      1.029      1.299
REMARK  Name = 
REMARK  7 active torsions:
REMARK  status: ('A' for Active; 'I' for Inactive)
REMARK    1  A    between atoms: N_1  and  CA_2
REMARK    2  A    between atoms: CA_2  and  C_3
REMARK    3  A    between atoms: CA_2  and  C_5
REMARK    4  A    between atoms: C_3  and  O_4
REMARK    5  A    between atoms: N_7  and  C_8
REMARK    6  A    between atoms: C_14  and  C_15
REMARK    7  A    between atoms: C_15  and  C_17
REMARK                            x       y       z     vdW  Elec       q    Type
REMARK                         _______ _______ _______ _____ _____    ______ ____
ROOT
ATOM      1  C   UNL     1       2.095   6.749  20.286  0.00  0.00    +0.000 A 
ATOM      2  C   UNL     1       1.240   7.661  20.923  0.00  0.00    +0.000 A 
ATOM      3  C   UNL     1       0.944   8.894  20.338  0.00  0.00    +0.000 A 
ATOM      4  C   UNL     1       1.445   9.189  19.080  0.00  0.00    +0.000 A 
ATOM      5 CL   UNL     1       1.069  10.699  18.341  0.00  0.00    +0.000 Cl
ATOM      6  C   UNL     1       2.242   8.271  18.401  0.00  0.00    +0.000 A 
ATOM      7  C   UNL     1       2.608   7.055  19.010  0.00  0.00    +0.000 A 
ENDROOT
BRANCH   1  10
ATOM      8  C   UNL     1       1.631   4.396  20.903  0.00  0.00    +0.000 C 
ATOM      9  O   UNL     1       0.715   4.220  20.101  0.00  0.00    +0.000 OA
ATOM     10  N   UNL     1       2.359   5.572  21.008  0.00  0.00    +0.000 N 
ATOM     11  H   UNL     1       3.257   5.492  21.481  0.00  0.00    +0.000 HD
BRANCH   8  12
ATOM     12  CA  UNL     1       2.202   3.243  21.768  0.00  0.00    +0.000 C 
BRANCH  12  13
ATOM     13  N   UNL     1       1.090   2.382  22.248  0.00  0.00    +0.000 NA
ATOM     14  H1  UNL     1       1.114   2.331  23.264  0.00  0.00    +0.000 HD
ATOM     15  H2  UNL     1       1.229   1.434  21.901  0.00  0.00    +0.000 HD
ENDBRANCH  12  13
BRANCH  12  16
ATOM     16  C   UNL     1       3.251   2.418  21.004  0.00  0.00    +0.000 C 
BRANCH  16  17
ATOM     17  O   UNL     1       3.322   2.849  19.634  0.00  0.00    +0.000 OA
ATOM     18  H   UNL     1       2.412   2.837  19.287  0.00  0.00    +0.000 HD
ENDBRANCH  16  17
ENDBRANCH  12  16
ENDBRANCH   8  12
ENDBRANCH   1  10
BRANCH   7  19
ATOM     19  C   UNL     1       3.361   6.065  18.178  0.00  0.00    +0.000 C 
ATOM     20  O   UNL     1       2.742   5.298  17.440  0.00  0.00    +0.000 OA
BRANCH  19  21
ATOM     21  C   UNL     1       4.856   6.083  18.122  0.00  0.00    +0.000 A 
ATOM     22  C   UNL     1       5.570   5.470  19.160  0.00  0.00    +0.000 A 
ATOM     23  C   UNL     1       6.963   5.382  19.102  0.00  0.00    +0.000 A 
ATOM     24  C   UNL     1       7.650   5.909  18.010  0.00  0.00    +0.000 A 
ATOM     25  C   UNL     1       6.949   6.545  16.986  0.00  0.00    +0.000 A 
ATOM     26  C   UNL     1       5.557   6.649  17.049  0.00  0.00    +0.000 A 
ENDBRANCH  19  21
ENDBRANCH   7  19
TORSDOF 7
ENDMDL
MODEL 6
REMARK VINA RESULT:      -6.9      4.207      6.491
REMARK  Name = 
REMARK  7 active torsions:
REMARK  status: ('A' for Active; 'I' for Inactive)
REMARK    1  A    between atoms: N_1  and  CA_2
REMARK    2  A    between atoms: CA_2  and  C_3
REMARK    3  A    between atoms: CA_2  and  C_5
REMARK    4  A    between atoms: C_3  and  O_4
REMARK    5  A    between atoms: N_7  and  C_8
REMARK    6  A    between atoms: C_14  and  C_15
REMARK    7  A    between atoms: C_15  and  C_17
REMARK                            x       y       z     vdW  Elec       q    Type
REMARK                         _______ _______ _______ _____ _____    ______ ____
ROOT
ATOM      1  C   UNL     1       6.558   4.701  15.730  0.00  0.00    +0.000 A 
ATOM      2  C   UNL     1       7.342   4.513  14.581  0.00  0.00    +0.000 A 
ATOM      3  C   UNL     1       6.765   4.094  13.381  0.00  0.00    +0.000 A 
ATOM      4  C   UNL     1       5.391   3.930  13.307  0.00  0.00    +0.000 A 
ATOM      5 CL   UNL     1       4.666   3.433  11.825  0.00  0.00    +0.000 Cl
ATOM      6  C   UNL     1       4.586   4.174  14.416  0.00  0.00    +0.000 A 
ATOM      7  C   UNL     1       5.162   4.527  15.653  0.00  0.00    +0.000 A 
ENDROOT
BRANCH   1  10
ATOM      8  C   UNL     1       7.480   6.369  17.311  0.00  0.00    +0.000 C 
ATOM      9  O   UNL     1       6.995   7.360  16.767  0.00  0.00    +0.000 OA
ATOM     10  N   UNL     1       7.269   5.065  16.887  0.00  0.00    +0.000 N 
ATOM     11  H   UNL     1       7.467   4.342  17.574  0.00  0.00    +0.000 HD
BRANCH   8  12
ATOM     12  CA  UNL     1       8.236   6.458  18.661  0.00  0.00    +0.000 C 
BRANCH  12  13
ATOM     13  N   UNL     1       8.531   7.880  18.975  0.00  0.00    +0.000 NA
ATOM     14  H1  UNL     1       8.409   8.041  19.972  0.00  0.00    +0.000 HD
ATOM     15  H2  UNL     1       7.858   8.474  18.494  0.00  0.00    +0.000 HD
ENDBRANCH  12  13
BRANCH  12  16
ATOM     16  C   UNL     1       7.453   5.791  19.804  0.00  0.00    +0.000 C 
BRANCH  16  17
ATOM     17  O   UNL     1       8.359   5.290  20.802  0.00  0.00    +0.000 OA
ATOM     18  H   UNL     1       8.134   5.740  21.637  0.00  0.00    +0.000 HD
ENDBRANCH  16  17
ENDBRANCH  12  16
ENDBRANCH   8  12
ENDBRANCH   1  10
BRANCH   7  19
ATOM     19  C   UNL     1       4.234   4.894  16.767  0.00  0.00    +0.000 C 
ATOM     20  O   UNL     1       4.109   6.077  17.087  0.00  0.00    +0.000 OA
BRANCH  19  21
ATOM     21  C   UNL     1       3.353   3.870  17.407  0.00  0.00    +0.000 A 
ATOM     22  C   UNL     1       3.921   2.650  17.797  0.00  0.00    +0.000 A 
ATOM     23  C   UNL     1       3.156   1.701  18.481  0.00  0.00    +0.000 A 
ATOM     24  C   UNL     1       1.820   1.964  18.776  0.00  0.00    +0.000 A 
ATOM     25  C   UNL     1       1.239   3.164  18.367  0.00  0.00    +0.000 A 
ATOM     26  C   UNL     1       1.996   4.108  17.668  0.00  0.00    +0.000 A 
ENDBRANCH  19  21
ENDBRANCH   7  19
TORSDOF 7
ENDMDL
MODEL 7
REMARK VINA RESULT:      -6.7      3.155      5.938
REMARK  Name = 
REMARK  7 active torsions:
REMARK  status: ('A' for Active; 'I' for Inactive)
REMARK    1  A    between atoms: N_1  and  CA_2
REMARK    2  A    between atoms: CA_2  and  C_3
REMARK    3  A    between atoms: CA_2  and  C_5
REMARK    4  A    between atoms: C_3  and  O_4
REMARK    5  A    between atoms: N_7  and  C_8
REMARK    6  A    between atoms: C_14  and  C_15
REMARK    7  A    between atoms: C_15  and  C_17
REMARK                            x       y       z     vdW  Elec       q    Type
REMARK                         _______ _______ _______ _____ _____    ______ ____
ROOT
ATOM      1  C   UNL     1       4.290   4.621  18.700  0.00  0.00    +0.000 A 
ATOM      2  C   UNL     1       4.249   3.242  18.955  0.00  0.00    +0.000 A 
ATOM      3  C   UNL     1       3.031   2.574  19.088  0.00  0.00    +0.000 A 
ATOM      4  C   UNL     1       1.848   3.270  18.896  0.00  0.00    +0.000 A 
ATOM      5 CL   UNL     1       0.339   2.451  19.038  0.00  0.00    +0.000 Cl
ATOM      6  C   UNL     1       1.866   4.625  18.578  0.00  0.00    +0.000 A 
ATOM      7  C   UNL     1       3.085   5.327  18.512  0.00  0.00    +0.000 A 
ENDROOT
BRANCH   1  10
ATOM      8  C   UNL     1       6.419   5.139  17.546  0.00  0.00    +0.000 C 
ATOM      9  O   UNL     1       6.102   4.674  16.453  0.00  0.00    +0.000 OA
ATOM     10  N   UNL     1       5.578   5.183  18.648  0.00  0.00    +0.000 N 
ATOM     11  H   UNL     1       5.841   5.843  19.376  0.00  0.00    +0.000 HD
BRANCH   8  12
ATOM     12  CA  UNL     1       7.748   5.908  17.759  0.00  0.00    +0.000 C 
BRANCH  12  13
ATOM     13  N   UNL     1       7.774   7.111  16.888  0.00  0.00    +0.000 NA
ATOM     14  H1  UNL     1       8.144   7.902  17.411  0.00  0.00    +0.000 HD
ATOM     15  H2  UNL     1       6.820   7.351  16.623  0.00  0.00    +0.000 HD
ENDBRANCH  12  13
BRANCH  12  16
ATOM     16  C   UNL     1       7.962   6.287  19.234  0.00  0.00    +0.000 C 
BRANCH  16  17
ATOM     17  O   UNL     1       8.428   5.148  19.979  0.00  0.00    +0.000 OA
ATOM     18  H   UNL     1       9.334   5.355  20.271  0.00  0.00    +0.000 HD
ENDBRANCH  16  17
ENDBRANCH  12  16
ENDBRANCH   8  12
ENDBRANCH   1  10
BRANCH   7  19
ATOM     19  C   UNL     1       3.040   6.748  18.045  0.00  0.00    +0.000 C 
ATOM     20  O   UNL     1       3.655   7.071  17.028  0.00  0.00    +0.000 OA
BRANCH  19  21
ATOM     21  C   UNL     1       2.152   7.751  18.710  0.00  0.00    +0.000 A 
ATOM     22  C   UNL     1       1.929   7.636  20.088  0.00  0.00    +0.000 A 
ATOM     23  C   UNL     1       1.181   8.603  20.766  0.00  0.00    +0.000 A 
ATOM     24  C   UNL     1       0.650   9.687  20.070  0.00  0.00    +0.000 A 
ATOM     25  C   UNL     1       0.843   9.794  18.693  0.00  0.00    +0.000 A 
ATOM     26  C   UNL     1       1.576   8.820  18.010  0.00  0.00    +0.000 A 
ENDBRANCH  19  21
ENDBRANCH   7  19
TORSDOF 7
ENDMDL
MODEL 8
REMARK VINA RESULT:      -6.7      3.056      6.019
REMARK  Name = 
REMARK  7 active torsions:
REMARK  status: ('A' for Active; 'I' for Inactive)
REMARK    1  A    between atoms: N_1  and  CA_2
REMARK    2  A    between atoms: CA_2  and  C_3
REMARK    3  A    between atoms: CA_2  and  C_5
REMARK    4  A    between atoms: C_3  and  O_4
REMARK    5  A    between atoms: N_7  and  C_8
REMARK    6  A    between atoms: C_14  and  C_15
REMARK    7  A    between atoms: C_15  and  C_17
REMARK                            x       y       z     vdW  Elec       q    Type
REMARK                         _______ _______ _______ _____ _____    ______ ____
ROOT
ATOM      1  C   UNL     1       4.509   4.520  18.978  0.00  0.00    +0.000 A 
ATOM      2  C   UNL     1       4.529   3.234  19.539  0.00  0.00    +0.000 A 
ATOM      3  C   UNL     1       3.426   2.739  20.238  0.00  0.00    +0.000 A 
ATOM      4  C   UNL     1       2.273   3.503  20.317  0.00  0.00    +0.000 A 
ATOM      5 CL   UNL     1       0.899   2.894  21.160  0.00  0.00    +0.000 Cl
ATOM      6  C   UNL     1       2.207   4.755  19.712  0.00  0.00    +0.000 A 
ATOM      7  C   UNL     1       3.336   5.296  19.066  0.00  0.00    +0.000 A 
ENDROOT
BRANCH   1  10
ATOM      8  C   UNL     1       6.100   4.537  17.080  0.00  0.00    +0.000 C 
ATOM      9  O   UNL     1       5.410   3.867  16.314  0.00  0.00    +0.000 OA
ATOM     10  N   UNL     1       5.703   4.920  18.353  0.00  0.00    +0.000 N 
ATOM     11  H   UNL     1       6.216   5.699  18.758  0.00  0.00    +0.000 HD
BRANCH   8  12
ATOM     12  CA  UNL     1       7.429   5.194  16.630  0.00  0.00    +0.000 C 
BRANCH  12  13
ATOM     13  N   UNL     1       7.491   5.230  15.146  0.00  0.00    +0.000 NA
ATOM     14  H1  UNL     1       8.038   4.441  14.809  0.00  0.00    +0.000 HD
ATOM     15  H2  UNL     1       7.978   6.075  14.852  0.00  0.00    +0.000 HD
ENDBRANCH  12  13
BRANCH  12  16
ATOM     16  C   UNL     1       7.605   6.601  17.225  0.00  0.00    +0.000 C 
BRANCH  16  17
ATOM     17  O   UNL     1       6.473   7.425  16.898  0.00  0.00    +0.000 OA
ATOM     18  H   UNL     1       6.631   8.296  17.305  0.00  0.00    +0.000 HD
ENDBRANCH  16  17
ENDBRANCH  12  16
ENDBRANCH   8  12
ENDBRANCH   1  10
BRANCH   7  19
ATOM     19  C   UNL     1       3.159   6.588  18.333  0.00  0.00    +0.000 C 
ATOM     20  O   UNL     1       3.691   6.738  17.232  0.00  0.00    +0.000 OA
BRANCH  19  21
ATOM     21  C   UNL     1       2.238   7.648  18.848  0.00  0.00    +0.000 A 
ATOM     22  C   UNL     1       1.921   7.652  20.213  0.00  0.00    +0.000 A 
ATOM     23  C   UNL     1       1.139   8.676  20.753  0.00  0.00    +0.000 A 
ATOM     24  C   UNL     1       0.666   9.699  19.932  0.00  0.00    +0.000 A 
ATOM     25  C   UNL     1       0.954   9.687  18.568  0.00  0.00    +0.000 A 
ATOM     26  C   UNL     1       1.722   8.656  18.022  0.00  0.00    +0.000 A 
ENDBRANCH  19  21
ENDBRANCH   7  19
TORSDOF 7
ENDMDL
MODEL 9
REMARK VINA RESULT:      -6.7      3.261      6.163
REMARK  Name = 
REMARK  7 active torsions:
REMARK  status: ('A' for Active; 'I' for Inactive)
REMARK    1  A    between atoms: N_1  and  CA_2
REMARK    2  A    between atoms: CA_2  and  C_3
REMARK    3  A    between atoms: CA_2  and  C_5
REMARK    4  A    between atoms: C_3  and  O_4
REMARK    5  A    between atoms: N_7  and  C_8
REMARK    6  A    between atoms: C_14  and  C_15
REMARK    7  A    between atoms: C_15  and  C_17
REMARK                            x       y       z     vdW  Elec       q    Type
REMARK                         _______ _______ _______ _____ _____    ______ ____
ROOT
ATOM      1  C   UNL     1       4.120   4.167  17.771  0.00  0.00    +0.000 A 
ATOM      2  C   UNL     1       3.869   2.787  17.753  0.00  0.00    +0.000 A 
ATOM      3  C   UNL     1       2.628   2.280  18.145  0.00  0.00    +0.000 A 
ATOM      4  C   UNL     1       1.612   3.157  18.488  0.00  0.00    +0.000 A 
ATOM      5 CL   UNL     1       0.071   2.542  18.953  0.00  0.00    +0.000 Cl
ATOM      6  C   UNL     1       1.819   4.533  18.449  0.00  0.00    +0.000 A 
ATOM      7  C   UNL     1       3.086   5.056  18.126  0.00  0.00    +0.000 A 
ENDROOT
BRANCH   1  10
ATOM      8  C   UNL     1       5.925   4.543  16.117  0.00  0.00    +0.000 C 
ATOM      9  O   UNL     1       5.252   4.293  15.118  0.00  0.00    +0.000 OA
ATOM     10  N   UNL     1       5.427   4.543  17.412  0.00  0.00    +0.000 N 
ATOM     11  H   UNL     1       5.986   5.044  18.098  0.00  0.00    +0.000 HD
BRANCH   8  12
ATOM     12  CA  UNL     1       7.377   5.076  16.020  0.00  0.00    +0.000 C 
BRANCH  12  13
ATOM     13  N   UNL     1       7.668   5.480  14.620  0.00  0.00    +0.000 NA
ATOM     14  H1  UNL     1       8.310   4.812  14.200  0.00  0.00    +0.000 HD
ATOM     15  H2  UNL     1       8.140   6.382  14.624  0.00  0.00    +0.000 HD
ENDBRANCH  12  13
BRANCH  12  16
ATOM     16  C   UNL     1       7.629   6.238  16.994  0.00  0.00    +0.000 C 
BRANCH  16  17
ATOM     17  O   UNL     1       6.706   7.312  16.738  0.00  0.00    +0.000 OA
ATOM     18  H   UNL     1       6.990   7.734  15.907  0.00  0.00    +0.000 HD
ENDBRANCH  16  17
ENDBRANCH  12  16
ENDBRANCH   8  12
ENDBRANCH   1  10
BRANCH   7  19
ATOM     19  C   UNL     1       3.205   6.540  17.984  0.00  0.00    +0.000 C 
ATOM     20  O   UNL     1       3.877   7.009  17.065  0.00  0.00    +0.000 OA
BRANCH  19  21
ATOM     21  C   UNL     1       2.412   7.465  18.852  0.00  0.00    +0.000 A 
ATOM     22  C   UNL     1       1.890   8.633  18.280  0.00  0.00    +0.000 A 
ATOM     23  C   UNL     1       1.067   9.479  19.028  0.00  0.00    +0.000 A 
ATOM     24  C   UNL     1       0.764   9.164  20.352  0.00  0.00    +0.000 A 
ATOM     25  C   UNL     1       1.302   8.019  20.937  0.00  0.00    +0.000 A 
ATOM     26  C   UNL     1       2.139   7.180  20.196  0.00  0.00    +0.000 A 
ENDBRANCH  19  21
ENDBRANCH   7  19
TORSDOF 7
ENDMDL
