MODEL 1
REMARK VINA RESULT:      -7.8      0.000      0.000
REMARK  Name = 
REMARK  10 active torsions:
REMARK  status: ('A' for Active; 'I' for Inactive)
REMARK    1  A    between atoms: C_1  and  C_2
REMARK    2  A    between atoms: C_4  and  C_5
REMARK    3  A    between atoms: C_7  and  O_8
REMARK    4  A    between atoms: O_8  and  C_9
REMARK    5  A    between atoms: C_10  and  C_11
REMARK    6  A    between atoms: C_11  and  C_12
REMARK    7  A    between atoms: C_11  and  C_13
REMARK    8  A    between atoms: N_19  and  C_20
REMARK    9  A    between atoms: C_20  and  C_21
REMARK   10  A    between atoms: C_21  and  C_22
REMARK                            x       y       z     vdW  Elec       q    Type
REMARK                         _______ _______ _______ _____ _____    ______ ____
ROOT
ATOM      1  C   UNL     1       2.696   5.333  18.868  0.00  0.00    +0.000 A 
ATOM      2  C   UNL     1       2.569   4.229  19.633  0.00  0.00    +0.000 A 
ATOM      3  C   UNL     1       2.189   4.430  21.057  0.00  0.00    +0.000 A 
ATOM      4  O   UNL     1       2.207   3.522  21.884  0.00  0.00    +0.000 OA
ATOM      5  N   UNL     1       1.841   5.686  21.424  0.00  0.00    +0.000 N 
ATOM      6  C   UNL     1       1.961   6.807  20.663  0.00  0.00    +0.000 A 
ATOM      7  O   UNL     1       1.773   7.905  21.180  0.00  0.00    +0.000 OA
ATOM      8  N   UNL     1       2.326   6.609  19.337  0.00  0.00    +0.000 N 
ATOM      9  H   UNL     1       1.622   5.831  22.398  0.00  0.00    +0.000 HD
ENDROOT
BRANCH   2  10
ATOM     10  C   UNL     1       2.749   2.767  19.217  0.00  0.00    +0.000 C 
ATOM     11  C   UNL     1       2.110   2.478  17.855  0.00  0.00    +0.000 C 
ATOM     12  C   UNL     1       4.189   2.251  19.271  0.00  0.00    +0.000 C 
ENDBRANCH   2  10
BRANCH   1  13
ATOM     13  O   UNL     1       3.165   5.203  17.555  0.00  0.00    +0.000 OA
BRANCH  13  20
ATOM     14  C   UNL     1       6.677   4.216  14.316  0.00  0.00    +0.000 C 
ATOM     15  C   UNL     1       6.256   4.785  15.638  0.00  0.00    +0.000 A 
ATOM     16  C   UNL     1       7.206   5.331  16.513  0.00  0.00    +0.000 A 
ATOM     17  C   UNL     1       6.836   5.741  17.797  0.00  0.00    +0.000 A 
ATOM     18  C   UNL     1       7.823   6.361  18.742  0.00  0.00    +0.000 C 
ATOM     19  C   UNL     1       5.505   5.600  18.202  0.00  0.00    +0.000 A 
ATOM     20  C   UNL     1       4.527   5.162  17.305  0.00  0.00    +0.000 A 
ATOM     21  C   UNL     1       4.908   4.740  16.028  0.00  0.00    +0.000 A 
ENDBRANCH  13  20
ENDBRANCH   1  13
BRANCH   8  22
ATOM     22  C   UNL     1       2.440   7.829  18.515  0.00  0.00    +0.000 C 
BRANCH  22  23
ATOM     23  C   UNL     1       1.188   8.216  17.717  0.00  0.00    +0.000 C 
BRANCH  23  24
ATOM     24  C   UNL     1       0.816   9.721  17.802  0.00  0.00    +0.000 C 
ATOM     25  C   UNL     1      -0.703   9.988  17.737  0.00  0.00    +0.000 C 
ATOM     26  C   UNL     1      -1.059  10.339  19.145  0.00  0.00    +0.000 C 
ATOM     27  C   UNL     1       0.025  10.559  19.894  0.00  0.00    +0.000 C 
ATOM     28  C   UNL     1       1.286  10.398  19.107  0.00  0.00    +0.000 C 
ENDBRANCH  23  24
ENDBRANCH  22  23
ENDBRANCH   8  22
TORSDOF 6
ENDMDL
MODEL 2
REMARK VINA RESULT:      -7.8      1.912      6.045
REMARK  Name = 
REMARK  10 active torsions:
REMARK  status: ('A' for Active; 'I' for Inactive)
REMARK    1  A    between atoms: C_1  and  C_2
REMARK    2  A    between atoms: C_4  and  C_5
REMARK    3  A    between atoms: C_7  and  O_8
REMARK    4  A    between atoms: O_8  and  C_9
REMARK    5  A    between atoms: C_10  and  C_11
REMARK    6  A    between atoms: C_11  and  C_12
REMARK    7  A    between atoms: C_11  and  C_13
REMARK    8  A    between atoms: N_19  and  C_20
REMARK    9  A    between atoms: C_20  and  C_21
REMARK   10  A    between atoms: C_21  and  C_22
REMARK                            x       y       z     vdW  Elec       q    Type
REMARK                         _______ _______ _______ _____ _____    ______ ____
ROOT
ATOM      1  C   UNL     1       3.583   5.119  18.473  0.00  0.00    +0.000 A 
ATOM      2  C   UNL     1       3.079   4.077  19.167  0.00  0.00    +0.000 A 
ATOM      3  C   UNL     1       4.043   3.055  19.653  0.00  0.00    +0.000 A 
ATOM      4  O   UNL     1       3.688   1.988  20.146  0.00  0.00    +0.000 OA
ATOM      5  N   UNL     1       5.359   3.339  19.505  0.00  0.00    +0.000 N 
ATOM      6  C   UNL     1       5.881   4.386  18.812  0.00  0.00    +0.000 A 
ATOM      7  O   UNL     1       7.092   4.427  18.609  0.00  0.00    +0.000 OA
ATOM      8  N   UNL     1       4.971   5.330  18.353  0.00  0.00    +0.000 N 
ATOM      9  H   UNL     1       6.013   2.629  19.799  0.00  0.00    +0.000 HD
ENDROOT
BRANCH   2  10
ATOM     10  C   UNL     1       1.619   3.813  19.543  0.00  0.00    +0.000 C 
ATOM     11  C   UNL     1       1.013   2.674  18.716  0.00  0.00    +0.000 C 
ATOM     12  C   UNL     1       1.361   3.608  21.037  0.00  0.00    +0.000 C 
ENDBRANCH   2  10
BRANCH   1  13
ATOM     13  O   UNL     1       2.704   6.044  17.895  0.00  0.00    +0.000 OA
BRANCH  13  20
ATOM     14  C   UNL     1       1.964  10.861  17.664  0.00  0.00    +0.000 C 
ATOM     15  C   UNL     1       1.868   9.569  18.420  0.00  0.00    +0.000 A 
ATOM     16  C   UNL     1       1.352   9.545  19.724  0.00  0.00    +0.000 A 
ATOM     17  C   UNL     1       1.383   8.369  20.479  0.00  0.00    +0.000 A 
ATOM     18  C   UNL     1       0.807   8.303  21.863  0.00  0.00    +0.000 C 
ATOM     19  C   UNL     1       1.937   7.212  19.919  0.00  0.00    +0.000 A 
ATOM     20  C   UNL     1       2.353   7.193  18.585  0.00  0.00    +0.000 A 
ATOM     21  C   UNL     1       2.332   8.376  17.843  0.00  0.00    +0.000 A 
ENDBRANCH  13  20
ENDBRANCH   1  13
BRANCH   8  22
ATOM     22  C   UNL     1       5.546   6.470  17.613  0.00  0.00    +0.000 C 
BRANCH  22  23
ATOM     23  C   UNL     1       5.667   6.288  16.094  0.00  0.00    +0.000 C 
BRANCH  23  24
ATOM     24  C   UNL     1       6.306   4.941  15.661  0.00  0.00    +0.000 C 
ATOM     25  C   UNL     1       5.293   3.940  15.066  0.00  0.00    +0.000 C 
ATOM     26  C   UNL     1       5.587   3.970  13.601  0.00  0.00    +0.000 C 
ATOM     27  C   UNL     1       6.732   4.604  13.335  0.00  0.00    +0.000 C 
ATOM     28  C   UNL     1       7.397   5.097  14.580  0.00  0.00    +0.000 C 
ENDBRANCH  23  24
ENDBRANCH  22  23
ENDBRANCH   8  22
TORSDOF 6
ENDMDL
MODEL 3
REMARK VINA RESULT:      -7.7      1.122      2.294
REMARK  Name = 
REMARK  10 active torsions:
REMARK  status: ('A' for Active; 'I' for Inactive)
REMARK    1  A    between atoms: C_1  and  C_2
REMARK    2  A    between atoms: C_4  and  C_5
REMARK    3  A    between atoms: C_7  and  O_8
REMARK    4  A    between atoms: O_8  and  C_9
REMARK    5  A    between atoms: C_10  and  C_11
REMARK    6  A    between atoms: C_11  and  C_12
REMARK    7  A    between atoms: C_11  and  C_13
REMARK    8  A    between atoms: N_19  and  C_20
REMARK    9  A    between atoms: C_20  and  C_21
REMARK   10  A    between atoms: C_21  and  C_22
REMARK                            x       y       z     vdW  Elec       q    Type
REMARK                         _______ _______ _______ _____ _____    ______ ____
ROOT
ATOM      1  C   UNL     1       2.793   6.616  18.372  0.00  0.00    +0.000 A 
ATOM      2  C   UNL     1       2.781   5.366  18.879  0.00  0.00    +0.000 A 
ATOM      3  C   UNL     1       2.363   5.212  20.297  0.00  0.00    +0.000 A 
ATOM      4  O   UNL     1       2.472   4.154  20.912  0.00  0.00    +0.000 OA
ATOM      5  N   UNL     1       1.869   6.315  20.911  0.00  0.00    +0.000 N 
ATOM      6  C   UNL     1       1.871   7.579  20.411  0.00  0.00    +0.000 A 
ATOM      7  O   UNL     1       1.552   8.513  21.142  0.00  0.00    +0.000 OA
ATOM      8  N   UNL     1       2.274   7.713  19.087  0.00  0.00    +0.000 N 
ATOM      9  H   UNL     1       1.622   6.221  21.884  0.00  0.00    +0.000 HD
ENDROOT
BRANCH   2  10
ATOM     10  C   UNL     1       3.132   4.057  18.167  0.00  0.00    +0.000 C 
ATOM     11  C   UNL     1       4.364   3.385  18.782  0.00  0.00    +0.000 C 
ATOM     12  C   UNL     1       1.975   3.065  18.028  0.00  0.00    +0.000 C 
ENDBRANCH   2  10
BRANCH   1  13
ATOM     13  O   UNL     1       3.291   6.824  17.080  0.00  0.00    +0.000 OA
BRANCH  13  20
ATOM     14  C   UNL     1       7.958   6.954  18.495  0.00  0.00    +0.000 C 
ATOM     15  C   UNL     1       6.901   6.450  17.558  0.00  0.00    +0.000 A 
ATOM     16  C   UNL     1       7.239   5.599  16.496  0.00  0.00    +0.000 A 
ATOM     17  C   UNL     1       6.281   5.234  15.546  0.00  0.00    +0.000 A 
ATOM     18  C   UNL     1       6.604   4.298  14.418  0.00  0.00    +0.000 C 
ATOM     19  C   UNL     1       4.978   5.728  15.664  0.00  0.00    +0.000 A 
ATOM     20  C   UNL     1       4.600   6.486  16.777  0.00  0.00    +0.000 A 
ATOM     21  C   UNL     1       5.567   6.858  17.714  0.00  0.00    +0.000 A 
ENDBRANCH  13  20
ENDBRANCH   1  13
BRANCH   8  22
ATOM     22  C   UNL     1       2.260   9.087  18.549  0.00  0.00    +0.000 C 
BRANCH  22  23
ATOM     23  C   UNL     1       0.985   9.497  17.799  0.00  0.00    +0.000 C 
BRANCH  23  24
ATOM     24  C   UNL     1      -0.134  10.072  18.708  0.00  0.00    +0.000 C 
ATOM     25  C   UNL     1       0.172  11.486  19.246  0.00  0.00    +0.000 C 
ATOM     26  C   UNL     1      -0.726  12.371  18.442  0.00  0.00    +0.000 C 
ATOM     27  C   UNL     1      -1.635  11.669  17.759  0.00  0.00    +0.000 C 
ATOM     28  C   UNL     1      -1.499  10.200  17.999  0.00  0.00    +0.000 C 
ENDBRANCH  23  24
ENDBRANCH  22  23
ENDBRANCH   8  22
TORSDOF 6
ENDMDL
MODEL 4
REMARK VINA RESULT:      -7.7      0.474      1.828
REMARK  Name = 
REMARK  10 active torsions:
REMARK  status: ('A' for Active; 'I' for Inactive)
REMARK    1  A    between atoms: C_1  and  C_2
REMARK    2  A    between atoms: C_4  and  C_5
REMARK    3  A    between atoms: C_7  and  O_8
REMARK    4  A    between atoms: O_8  and  C_9
REMARK    5  A    between atoms: C_10  and  C_11
REMARK    6  A    between atoms: C_11  and  C_12
REMARK    7  A    between atoms: C_11  and  C_13
REMARK    8  A    between atoms: N_19  and  C_20
REMARK    9  A    between atoms: C_20  and  C_21
REMARK   10  A    between atoms: C_21  and  C_22
REMARK                            x       y       z     vdW  Elec       q    Type
REMARK                         _______ _______ _______ _____ _____    ______ ____
ROOT
ATOM      1  C   UNL     1       2.694   5.730  18.685  0.00  0.00    +0.000 A 
ATOM      2  C   UNL     1       2.567   4.550  19.328  0.00  0.00    +0.000 A 
ATOM      3  C   UNL     1       2.156   4.597  20.756  0.00  0.00    +0.000 A 
ATOM      4  O   UNL     1       2.171   3.608  21.485  0.00  0.00    +0.000 OA
ATOM      5  N   UNL     1       1.782   5.804  21.244  0.00  0.00    +0.000 N 
ATOM      6  C   UNL     1       1.900   6.999  20.606  0.00  0.00    +0.000 A 
ATOM      7  O   UNL     1       1.685   8.035  21.229  0.00  0.00    +0.000 OA
ATOM      8  N   UNL     1       2.294   6.945  19.275  0.00  0.00    +0.000 N 
ATOM      9  H   UNL     1       1.541   5.844  22.223  0.00  0.00    +0.000 HD
ENDROOT
BRANCH   2  10
ATOM     10  C   UNL     1       2.778   3.142  18.767  0.00  0.00    +0.000 C 
ATOM     11  C   UNL     1       4.019   2.469  19.362  0.00  0.00    +0.000 C 
ATOM     12  C   UNL     1       1.558   2.222  18.850  0.00  0.00    +0.000 C 
ENDBRANCH   2  10
BRANCH   1  13
ATOM     13  O   UNL     1       3.190   5.742  17.375  0.00  0.00    +0.000 OA
BRANCH  13  20
ATOM     14  C   UNL     1       7.657   5.766  19.339  0.00  0.00    +0.000 C 
ATOM     15  C   UNL     1       6.759   5.520  18.162  0.00  0.00    +0.000 A 
ATOM     16  C   UNL     1       7.293   5.104  16.934  0.00  0.00    +0.000 A 
ATOM     17  C   UNL     1       6.478   5.002  15.803  0.00  0.00    +0.000 A 
ATOM     18  C   UNL     1       7.013   4.526  14.485  0.00  0.00    +0.000 C 
ATOM     19  C   UNL     1       5.120   5.322  15.909  0.00  0.00    +0.000 A 
ATOM     20  C   UNL     1       4.553   5.631  17.148  0.00  0.00    +0.000 A 
ATOM     21  C   UNL     1       5.377   5.745  18.270  0.00  0.00    +0.000 A 
ENDBRANCH  13  20
ENDBRANCH   1  13
BRANCH   8  22
ATOM     22  C   UNL     1       2.407   8.245  18.585  0.00  0.00    +0.000 C 
BRANCH  22  23
ATOM     23  C   UNL     1       1.223   8.630  17.688  0.00  0.00    +0.000 C 
BRANCH  23  24
ATOM     24  C   UNL     1       0.705  10.077  17.901  0.00  0.00    +0.000 C 
ATOM     25  C   UNL     1      -0.835  10.189  17.906  0.00  0.00    +0.000 C 
ATOM     26  C   UNL     1      -1.169  10.397  19.349  0.00  0.00    +0.000 C 
ATOM     27  C   UNL     1      -0.083  10.673  20.076  0.00  0.00    +0.000 C 
ATOM     28  C   UNL     1       1.154  10.702  19.239  0.00  0.00    +0.000 C 
ENDBRANCH  23  24
ENDBRANCH  22  23
ENDBRANCH   8  22
TORSDOF 6
ENDMDL
MODEL 5
REMARK VINA RESULT:      -7.6      1.006      1.277
REMARK  Name = 
REMARK  10 active torsions:
REMARK  status: ('A' for Active; 'I' for Inactive)
REMARK    1  A    between atoms: C_1  and  C_2
REMARK    2  A    between atoms: C_4  and  C_5
REMARK    3  A    between atoms: C_7  and  O_8
REMARK    4  A    between atoms: O_8  and  C_9
REMARK    5  A    between atoms: C_10  and  C_11
REMARK    6  A    between atoms: C_11  and  C_12
REMARK    7  A    between atoms: C_11  and  C_13
REMARK    8  A    between atoms: N_19  and  C_20
REMARK    9  A    between atoms: C_20  and  C_21
REMARK   10  A    between atoms: C_21  and  C_22
REMARK                            x       y       z     vdW  Elec       q    Type
REMARK                         _______ _______ _______ _____ _____    ______ ____
ROOT
ATOM      1  C   UNL     1       2.638   6.230  18.625  0.00  0.00    +0.000 A 
ATOM      2  C   UNL     1       2.520   5.068  19.301  0.00  0.00    +0.000 A 
ATOM      3  C   UNL     1       2.123   5.151  20.731  0.00  0.00    +0.000 A 
ATOM      4  O   UNL     1       2.147   4.182  21.486  0.00  0.00    +0.000 OA
ATOM      5  N   UNL     1       1.750   6.370  21.191  0.00  0.00    +0.000 N 
ATOM      6  C   UNL     1       1.859   7.548  20.520  0.00  0.00    +0.000 A 
ATOM      7  O   UNL     1       1.648   8.600  21.118  0.00  0.00    +0.000 OA
ATOM      8  N   UNL     1       2.241   7.460  19.187  0.00  0.00    +0.000 N 
ATOM      9  H   UNL     1       1.518   6.435  22.171  0.00  0.00    +0.000 HD
ENDROOT
BRANCH   2  10
ATOM     10  C   UNL     1       2.729   3.646  18.774  0.00  0.00    +0.000 C 
ATOM     11  C   UNL     1       2.045   3.432  17.420  0.00  0.00    +0.000 C 
ATOM     12  C   UNL     1       4.185   3.176  18.738  0.00  0.00    +0.000 C 
ENDBRANCH   2  10
BRANCH   1  13
ATOM     13  O   UNL     1       3.122   6.210  17.312  0.00  0.00    +0.000 OA
BRANCH  13  20
ATOM     14  C   UNL     1       6.518   4.132  14.491  0.00  0.00    +0.000 C 
ATOM     15  C   UNL     1       6.149   5.092  15.583  0.00  0.00    +0.000 A 
ATOM     16  C   UNL     1       7.141   5.833  16.243  0.00  0.00    +0.000 A 
ATOM     17  C   UNL     1       6.817   6.629  17.345  0.00  0.00    +0.000 A 
ATOM     18  C   UNL     1       7.848   7.459  18.050  0.00  0.00    +0.000 C 
ATOM     19  C   UNL     1       5.490   6.677  17.787  0.00  0.00    +0.000 A 
ATOM     20  C   UNL     1       4.475   6.033  17.073  0.00  0.00    +0.000 A 
ATOM     21  C   UNL     1       4.810   5.228  15.981  0.00  0.00    +0.000 A 
ENDBRANCH  13  20
ENDBRANCH   1  13
BRANCH   8  22
ATOM     22  C   UNL     1       2.344   8.741  18.463  0.00  0.00    +0.000 C 
BRANCH  22  23
ATOM     23  C   UNL     1       1.053   9.240  17.801  0.00  0.00    +0.000 C 
BRANCH  23  24
ATOM     24  C   UNL     1       0.074   9.956  18.769  0.00  0.00    +0.000 C 
ATOM     25  C   UNL     1       0.559  11.351  19.218  0.00  0.00    +0.000 C 
ATOM     26  C   UNL     1      -0.313  12.291  18.449  0.00  0.00    +0.000 C 
ATOM     27  C   UNL     1      -1.339  11.660  17.871  0.00  0.00    +0.000 C 
ATOM     28  C   UNL     1      -1.326  10.195  18.165  0.00  0.00    +0.000 C 
ENDBRANCH  23  24
ENDBRANCH  22  23
ENDBRANCH   8  22
TORSDOF 6
ENDMDL
MODEL 6
REMARK VINA RESULT:      -7.3      1.967      6.084
REMARK  Name = 
REMARK  10 active torsions:
REMARK  status: ('A' for Active; 'I' for Inactive)
REMARK    1  A    between atoms: C_1  and  C_2
REMARK    2  A    between atoms: C_4  and  C_5
REMARK    3  A    between atoms: C_7  and  O_8
REMARK    4  A    between atoms: O_8  and  C_9
REMARK    5  A    between atoms: C_10  and  C_11
REMARK    6  A    between atoms: C_11  and  C_12
REMARK    7  A    between atoms: C_11  and  C_13
REMARK    8  A    between atoms: N_19  and  C_20
REMARK    9  A    between atoms: C_20  and  C_21
REMARK   10  A    between atoms: C_21  and  C_22
REMARK                            x       y       z     vdW  Elec       q    Type
REMARK                         _______ _______ _______ _____ _____    ______ ____
ROOT
ATOM      1  C   UNL     1       3.549   5.084  18.377  0.00  0.00    +0.000 A 
ATOM      2  C   UNL     1       3.074   4.049  19.102  0.00  0.00    +0.000 A 
ATOM      3  C   UNL     1       4.073   3.119  19.692  0.00  0.00    +0.000 A 
ATOM      4  O   UNL     1       3.760   2.058  20.225  0.00  0.00    +0.000 OA
ATOM      5  N   UNL     1       5.376   3.480  19.594  0.00  0.00    +0.000 N 
ATOM      6  C   UNL     1       5.867   4.522  18.871  0.00  0.00    +0.000 A 
ATOM      7  O   UNL     1       7.082   4.631  18.728  0.00  0.00    +0.000 OA
ATOM      8  N   UNL     1       4.925   5.379  18.315  0.00  0.00    +0.000 N 
ATOM      9  H   UNL     1       6.056   2.831  19.959  0.00  0.00    +0.000 HD
ENDROOT
BRANCH   2  10
ATOM     10  C   UNL     1       1.616   3.709  19.418  0.00  0.00    +0.000 C 
ATOM     11  C   UNL     1       1.131   2.486  18.633  0.00  0.00    +0.000 C 
ATOM     12  C   UNL     1       1.291   3.573  20.907  0.00  0.00    +0.000 C 
ENDBRANCH   2  10
BRANCH   1  13
ATOM     13  O   UNL     1       2.646   5.917  17.706  0.00  0.00    +0.000 OA
BRANCH  13  20
ATOM     14  C   UNL     1       1.050   8.057  21.790  0.00  0.00    +0.000 C 
ATOM     15  C   UNL     1       1.536   8.164  20.374  0.00  0.00    +0.000 A 
ATOM     16  C   UNL     1       1.625   9.415  19.745  0.00  0.00    +0.000 A 
ATOM     17  C   UNL     1       1.951   9.506  18.389  0.00  0.00    +0.000 A 
ATOM     18  C   UNL     1       2.088  10.830  17.697  0.00  0.00    +0.000 C 
ATOM     19  C   UNL     1       2.186   8.334  17.663  0.00  0.00    +0.000 A 
ATOM     20  C   UNL     1       2.209   7.090  18.300  0.00  0.00    +0.000 A 
ATOM     21  C   UNL     1       1.868   7.006  19.653  0.00  0.00    +0.000 A 
ENDBRANCH  13  20
ENDBRANCH   1  13
BRANCH   8  22
ATOM     22  C   UNL     1       5.467   6.514  17.543  0.00  0.00    +0.000 C 
BRANCH  22  23
ATOM     23  C   UNL     1       5.593   6.293  16.030  0.00  0.00    +0.000 C 
BRANCH  23  24
ATOM     24  C   UNL     1       6.278   4.958  15.635  0.00  0.00    +0.000 C 
ATOM     25  C   UNL     1       5.308   3.919  15.032  0.00  0.00    +0.000 C 
ATOM     26  C   UNL     1       5.636   3.934  13.574  0.00  0.00    +0.000 C 
ATOM     27  C   UNL     1       6.770   4.596  13.325  0.00  0.00    +0.000 C 
ATOM     28  C   UNL     1       7.390   5.126  14.577  0.00  0.00    +0.000 C 
ENDBRANCH  23  24
ENDBRANCH  22  23
ENDBRANCH   8  22
TORSDOF 6
ENDMDL
MODEL 7
REMARK VINA RESULT:      -7.0      1.910      5.867
REMARK  Name = 
REMARK  10 active torsions:
REMARK  status: ('A' for Active; 'I' for Inactive)
REMARK    1  A    between atoms: C_1  and  C_2
REMARK    2  A    between atoms: C_4  and  C_5
REMARK    3  A    between atoms: C_7  and  O_8
REMARK    4  A    between atoms: O_8  and  C_9
REMARK    5  A    between atoms: C_10  and  C_11
REMARK    6  A    between atoms: C_11  and  C_12
REMARK    7  A    between atoms: C_11  and  C_13
REMARK    8  A    between atoms: N_19  and  C_20
REMARK    9  A    between atoms: C_20  and  C_21
REMARK   10  A    between atoms: C_21  and  C_22
REMARK                            x       y       z     vdW  Elec       q    Type
REMARK                         _______ _______ _______ _____ _____    ______ ____
ROOT
ATOM      1  C   UNL     1       3.700   5.103  18.467  0.00  0.00    +0.000 A 
ATOM      2  C   UNL     1       3.208   3.954  18.975  0.00  0.00    +0.000 A 
ATOM      3  C   UNL     1       4.192   2.956  19.471  0.00  0.00    +0.000 A 
ATOM      4  O   UNL     1       3.874   1.815  19.797  0.00  0.00    +0.000 OA
ATOM      5  N   UNL     1       5.487   3.350  19.526  0.00  0.00    +0.000 N 
ATOM      6  C   UNL     1       5.996   4.506  19.022  0.00  0.00    +0.000 A 
ATOM      7  O   UNL     1       7.213   4.659  18.985  0.00  0.00    +0.000 OA
ATOM      8  N   UNL     1       5.068   5.428  18.552  0.00  0.00    +0.000 N 
ATOM      9  H   UNL     1       6.160   2.661  19.825  0.00  0.00    +0.000 HD
ENDROOT
BRANCH   2  10
ATOM     10  C   UNL     1       1.742   3.541  19.127  0.00  0.00    +0.000 C 
ATOM     11  C   UNL     1       1.104   4.148  20.381  0.00  0.00    +0.000 C 
ATOM     12  C   UNL     1       0.870   3.783  17.893  0.00  0.00    +0.000 C 
ENDBRANCH   2  10
BRANCH   1  13
ATOM     13  O   UNL     1       2.820   6.022  17.881  0.00  0.00    +0.000 OA
BRANCH  13  20
ATOM     14  C   UNL     1       1.959  10.820  17.662  0.00  0.00    +0.000 C 
ATOM     15  C   UNL     1       1.897   9.524  18.417  0.00  0.00    +0.000 A 
ATOM     16  C   UNL     1       1.386   9.485  19.722  0.00  0.00    +0.000 A 
ATOM     17  C   UNL     1       1.448   8.308  20.473  0.00  0.00    +0.000 A 
ATOM     18  C   UNL     1       0.878   8.225  21.859  0.00  0.00    +0.000 C 
ATOM     19  C   UNL     1       2.029   7.167  19.910  0.00  0.00    +0.000 A 
ATOM     20  C   UNL     1       2.442   7.161  18.574  0.00  0.00    +0.000 A 
ATOM     21  C   UNL     1       2.390   8.345  17.835  0.00  0.00    +0.000 A 
ENDBRANCH  13  20
ENDBRANCH   1  13
BRANCH   8  22
ATOM     22  C   UNL     1       5.627   6.686  18.019  0.00  0.00    +0.000 C 
BRANCH  22  23
ATOM     23  C   UNL     1       6.935   6.552  17.227  0.00  0.00    +0.000 C 
BRANCH  23  24
ATOM     24  C   UNL     1       6.746   6.105  15.753  0.00  0.00    +0.000 C 
ATOM     25  C   UNL     1       7.330   4.709  15.451  0.00  0.00    +0.000 C 
ATOM     26  C   UNL     1       6.121   3.837  15.340  0.00  0.00    +0.000 C 
ATOM     27  C   UNL     1       4.995   4.553  15.273  0.00  0.00    +0.000 C 
ATOM     28  C   UNL     1       5.267   6.021  15.320  0.00  0.00    +0.000 C 
ENDBRANCH  23  24
ENDBRANCH  22  23
ENDBRANCH   8  22
TORSDOF 6
ENDMDL
MODEL 8
REMARK VINA RESULT:      -6.8      0.758      1.029
REMARK  Name = 
REMARK  10 active torsions:
REMARK  status: ('A' for Active; 'I' for Inactive)
REMARK    1  A    between atoms: C_1  and  C_2
REMARK    2  A    between atoms: C_4  and  C_5
REMARK    3  A    between atoms: C_7  and  O_8
REMARK    4  A    between atoms: O_8  and  C_9
REMARK    5  A    between atoms: C_10  and  C_11
REMARK    6  A    between atoms: C_11  and  C_12
REMARK    7  A    between atoms: C_11  and  C_13
REMARK    8  A    between atoms: N_19  and  C_20
REMARK    9  A    between atoms: C_20  and  C_21
REMARK   10  A    between atoms: C_21  and  C_22
REMARK                            x       y       z     vdW  Elec       q    Type
REMARK                         _______ _______ _______ _____ _____    ______ ____
ROOT
ATOM      1  C   UNL     1       2.633   5.692  18.745  0.00  0.00    +0.000 A 
ATOM      2  C   UNL     1       2.603   4.488  19.354  0.00  0.00    +0.000 A 
ATOM      3  C   UNL     1       2.263   4.468  20.801  0.00  0.00    +0.000 A 
ATOM      4  O   UNL     1       2.368   3.459  21.495  0.00  0.00    +0.000 OA
ATOM      5  N   UNL     1       1.849   5.637  21.348  0.00  0.00    +0.000 N 
ATOM      6  C   UNL     1       1.870   6.856  20.745  0.00  0.00    +0.000 A 
ATOM      7  O   UNL     1       1.630   7.858  21.412  0.00  0.00    +0.000 OA
ATOM      8  N   UNL     1       2.199   6.864  19.395  0.00  0.00    +0.000 N 
ATOM      9  H   UNL     1       1.656   5.633  22.338  0.00  0.00    +0.000 HD
ENDROOT
BRANCH   2  10
ATOM     10  C   UNL     1       2.862   3.112  18.736  0.00  0.00    +0.000 C 
ATOM     11  C   UNL     1       4.161   2.487  19.255  0.00  0.00    +0.000 C 
ATOM     12  C   UNL     1       1.696   2.126  18.840  0.00  0.00    +0.000 C 
ENDBRANCH   2  10
BRANCH   1  13
ATOM     13  O   UNL     1       3.061   5.773  17.415  0.00  0.00    +0.000 OA
BRANCH  13  20
ATOM     14  C   UNL     1       6.387   3.928  14.358  0.00  0.00    +0.000 C 
ATOM     15  C   UNL     1       6.040   4.828  15.507  0.00  0.00    +0.000 A 
ATOM     16  C   UNL     1       7.038   5.570  16.157  0.00  0.00    +0.000 A 
ATOM     17  C   UNL     1       6.740   6.305  17.307  0.00  0.00    +0.000 A 
ATOM     18  C   UNL     1       7.778   7.135  18.004  0.00  0.00    +0.000 C 
ATOM     19  C   UNL     1       5.434   6.293  17.807  0.00  0.00    +0.000 A 
ATOM     20  C   UNL     1       4.407   5.649  17.110  0.00  0.00    +0.000 A 
ATOM     21  C   UNL     1       4.716   4.904  15.968  0.00  0.00    +0.000 A 
ENDBRANCH  13  20
ENDBRANCH   1  13
BRANCH   8  22
ATOM     22  C   UNL     1       2.206   8.189  18.745  0.00  0.00    +0.000 C 
BRANCH  22  23
ATOM     23  C   UNL     1       1.151   9.184  19.247  0.00  0.00    +0.000 C 
BRANCH  23  24
ATOM     24  C   UNL     1       0.690  10.217  18.183  0.00  0.00    +0.000 C 
ATOM     25  C   UNL     1      -0.828  10.182  17.905  0.00  0.00    +0.000 C 
ATOM     26  C   UNL     1      -1.339  11.412  18.584  0.00  0.00    +0.000 C 
ATOM     27  C   UNL     1      -0.346  12.227  18.952  0.00  0.00    +0.000 C 
ATOM     28  C   UNL     1       0.992  11.679  18.572  0.00  0.00    +0.000 C 
ENDBRANCH  23  24
ENDBRANCH  22  23
ENDBRANCH   8  22
TORSDOF 6
ENDMDL
MODEL 9
REMARK VINA RESULT:      -6.7      1.844      6.211
REMARK  Name = 
REMARK  10 active torsions:
REMARK  status: ('A' for Active; 'I' for Inactive)
REMARK    1  A    between atoms: C_1  and  C_2
REMARK    2  A    between atoms: C_4  and  C_5
REMARK    3  A    between atoms: C_7  and  O_8
REMARK    4  A    between atoms: O_8  and  C_9
REMARK    5  A    between atoms: C_10  and  C_11
REMARK    6  A    between atoms: C_11  and  C_12
REMARK    7  A    between atoms: C_11  and  C_13
REMARK    8  A    between atoms: N_19  and  C_20
REMARK    9  A    between atoms: C_20  and  C_21
REMARK   10  A    between atoms: C_21  and  C_22
REMARK                            x       y       z     vdW  Elec       q    Type
REMARK                         _______ _______ _______ _____ _____    ______ ____
ROOT
ATOM      1  C   UNL     1       3.292   5.108  19.012  0.00  0.00    +0.000 A 
ATOM      2  C   UNL     1       2.602   4.000  19.355  0.00  0.00    +0.000 A 
ATOM      3  C   UNL     1       2.489   2.927  18.333  0.00  0.00    +0.000 A 
ATOM      4  O   UNL     1       1.751   1.954  18.468  0.00  0.00    +0.000 OA
ATOM      5  N   UNL     1       3.228   3.077  17.207  0.00  0.00    +0.000 N 
ATOM      6  C   UNL     1       3.931   4.184  16.850  0.00  0.00    +0.000 A 
ATOM      7  O   UNL     1       4.413   4.252  15.722  0.00  0.00    +0.000 OA
ATOM      8  N   UNL     1       4.021   5.186  17.809  0.00  0.00    +0.000 N 
ATOM      9  H   UNL     1       3.122   2.368  16.496  0.00  0.00    +0.000 HD
ENDROOT
BRANCH   2  10
ATOM     10  C   UNL     1       1.920   3.690  20.690  0.00  0.00    +0.000 C 
ATOM     11  C   UNL     1       0.438   3.346  20.509  0.00  0.00    +0.000 C 
ATOM     12  C   UNL     1       2.628   2.641  21.550  0.00  0.00    +0.000 C 
ENDBRANCH   2  10
BRANCH   1  13
ATOM     13  O   UNL     1       3.326   6.192  19.897  0.00  0.00    +0.000 OA
BRANCH  13  20
ATOM     14  C   UNL     1      -0.338   8.534  22.110  0.00  0.00    +0.000 C 
ATOM     15  C   UNL     1       0.635   8.429  20.972  0.00  0.00    +0.000 A 
ATOM     16  C   UNL     1       0.618   9.370  19.933  0.00  0.00    +0.000 A 
ATOM     17  C   UNL     1       1.432   9.201  18.809  0.00  0.00    +0.000 A 
ATOM     18  C   UNL     1       1.462  10.209  17.698  0.00  0.00    +0.000 C 
ATOM     19  C   UNL     1       2.264   8.080  18.730  0.00  0.00    +0.000 A 
ATOM     20  C   UNL     1       2.373   7.193  19.806  0.00  0.00    +0.000 A 
ATOM     21  C   UNL     1       1.545   7.362  20.919  0.00  0.00    +0.000 A 
ENDBRANCH  13  20
ENDBRANCH   1  13
BRANCH   8  22
ATOM     22  C   UNL     1       4.798   6.379  17.419  0.00  0.00    +0.000 C 
BRANCH  22  23
ATOM     23  C   UNL     1       5.756   6.195  16.235  0.00  0.00    +0.000 C 
BRANCH  23  24
ATOM     24  C   UNL     1       7.249   6.055  16.638  0.00  0.00    +0.000 C 
ATOM     25  C   UNL     1       7.716   7.115  17.658  0.00  0.00    +0.000 C 
ATOM     26  C   UNL     1       7.823   6.349  18.938  0.00  0.00    +0.000 C 
ATOM     27  C   UNL     1       7.748   5.031  18.737  0.00  0.00    +0.000 C 
ATOM     28  C   UNL     1       7.586   4.697  17.289  0.00  0.00    +0.000 C 
ENDBRANCH  23  24
ENDBRANCH  22  23
ENDBRANCH   8  22
TORSDOF 6
ENDMDL
