MODEL 1
REMARK VINA RESULT:      -8.0      0.000      0.000
REMARK  Name = 
REMARK  6 active torsions:
REMARK  status: ('A' for Active; 'I' for Inactive)
REMARK    1  A    between atoms: C_1  and  C_2
REMARK    2  A    between atoms: N_5  and  C_6
REMARK    3  A    between atoms: C_6  and  C_7
REMARK    4  A    between atoms: C_12  and  C_14
REMARK    5  A    between atoms: C_14  and  C_15
REMARK    6  A    between atoms: C_18  and  C_19
REMARK                            x       y       z     vdW  Elec       q    Type
REMARK                         _______ _______ _______ _____ _____    ______ ____
ROOT
ATOM      1  C   UNL     1       2.385   4.914  19.570  0.00  0.00    +0.000 C 
ATOM      2  C   UNL     1       1.154   4.670  20.460  0.00  0.00    +0.000 C 
ATOM      3  C   UNL     1       0.873   3.185  20.326  0.00  0.00    +0.000 C 
ATOM      4  C   UNL     1       2.235   2.564  20.068  0.00  0.00    +0.000 C 
ATOM      5  N   UNL     1       3.150   3.659  19.758  0.00  0.00    +0.000 N 
ATOM      6  C   UNL     1       4.459   3.310  19.480  0.00  0.00    +0.000 C 
ATOM      7  O   UNL     1       4.814   2.126  19.522  0.00  0.00    +0.000 OA
ENDROOT
BRANCH   1   8
ATOM      8  C   UNL     1       3.064   6.237  19.922  0.00  0.00    +0.000 C 
BRANCH   8  13
ATOM      9  C   UNL     1       0.327  10.310  18.962  0.00  0.00    +0.000 C 
ATOM     10  C   UNL     1       1.239   9.159  18.849  0.00  0.00    +0.000 A 
ATOM     11  C   UNL     1       1.896   8.664  17.695  0.00  0.00    +0.000 A 
ATOM     12  N   UNL     1       2.638   7.581  17.950  0.00  0.00    +0.000 NA
ATOM     13  N   UNL     1       2.466   7.385  19.267  0.00  0.00    +0.000 N 
ATOM     14  C   UNL     1       1.638   8.299  19.850  0.00  0.00    +0.000 A 
ENDBRANCH   8  13
ENDBRANCH   1   8
BRANCH   6  15
ATOM     15  C   UNL     1       5.501   4.361  19.154  0.00  0.00    +0.000 C 
BRANCH  15  16
ATOM     16  C   UNL     1       5.961   4.439  17.721  0.00  0.00    +0.000 A 
ATOM     17  C   UNL     1       5.009   4.439  16.695  0.00  0.00    +0.000 A 
ATOM     18  C   UNL     1       5.408   4.570  15.367  0.00  0.00    +0.000 A 
ATOM     19  C   UNL     1       6.763   4.694  15.082  0.00  0.00    +0.000 A 
ATOM     20  C   UNL     1       7.248   4.864  13.675  0.00  0.00    +0.000 C 
ATOM     21  N   UNL     1       7.705   4.690  16.053  0.00  0.00    +0.000 NA
ATOM     22  C   UNL     1       7.287   4.580  17.337  0.00  0.00    +0.000 A 
ENDBRANCH  15  16
ENDBRANCH   6  15
TORSDOF 4
ENDMDL
MODEL 2
REMARK VINA RESULT:      -7.6      1.077      1.337
REMARK  Name = 
REMARK  6 active torsions:
REMARK  status: ('A' for Active; 'I' for Inactive)
REMARK    1  A    between atoms: C_1  and  C_2
REMARK    2  A    between atoms: N_5  and  C_6
REMARK    3  A    between atoms: C_6  and  C_7
REMARK    4  A    between atoms: C_12  and  C_14
REMARK    5  A    between atoms: C_14  and  C_15
REMARK    6  A    between atoms: C_18  and  C_19
REMARK                            x       y       z     vdW  Elec       q    Type
REMARK                         _______ _______ _______ _____ _____    ______ ____
ROOT
ATOM      1  C   UNL     1       1.965   4.410  19.320  0.00  0.00    +0.000 C 
ATOM      2  C   UNL     1       0.909   3.793  20.255  0.00  0.00    +0.000 C 
ATOM      3  C   UNL     1       0.558   2.465  19.611  0.00  0.00    +0.000 C 
ATOM      4  C   UNL     1       1.829   2.046  18.891  0.00  0.00    +0.000 C 
ATOM      5  N   UNL     1       2.709   3.212  18.867  0.00  0.00    +0.000 N 
ATOM      6  C   UNL     1       3.932   3.049  18.244  0.00  0.00    +0.000 C 
ATOM      7  O   UNL     1       4.248   1.956  17.761  0.00  0.00    +0.000 OA
ENDROOT
BRANCH   1   8
ATOM      8  C   UNL     1       2.740   5.521  20.027  0.00  0.00    +0.000 C 
BRANCH   8  13
ATOM      9  C   UNL     1       1.855   9.910  17.802  0.00  0.00    +0.000 C 
ATOM     10  C   UNL     1       1.883   8.787  18.754  0.00  0.00    +0.000 A 
ATOM     11  C   UNL     1       1.354   8.729  20.067  0.00  0.00    +0.000 A 
ATOM     12  N   UNL     1       1.580   7.553  20.662  0.00  0.00    +0.000 NA
ATOM     13  N   UNL     1       2.244   6.851  19.730  0.00  0.00    +0.000 N 
ATOM     14  C   UNL     1       2.453   7.544  18.572  0.00  0.00    +0.000 A 
ENDBRANCH   8  13
ENDBRANCH   1   8
BRANCH   6  15
ATOM     15  C   UNL     1       4.933   4.185  18.166  0.00  0.00    +0.000 C 
BRANCH  15  16
ATOM     16  C   UNL     1       5.659   4.361  16.858  0.00  0.00    +0.000 A 
ATOM     17  C   UNL     1       4.923   4.441  15.670  0.00  0.00    +0.000 A 
ATOM     18  C   UNL     1       5.569   4.662  14.457  0.00  0.00    +0.000 A 
ATOM     19  C   UNL     1       6.953   4.795  14.448  0.00  0.00    +0.000 A 
ATOM     20  C   UNL     1       7.699   5.060  13.176  0.00  0.00    +0.000 C 
ATOM     21  N   UNL     1       7.691   4.714  15.579  0.00  0.00    +0.000 NA
ATOM     22  C   UNL     1       7.034   4.517  16.747  0.00  0.00    +0.000 A 
ENDBRANCH  15  16
ENDBRANCH   6  15
TORSDOF 4
ENDMDL
MODEL 3
REMARK VINA RESULT:      -7.4      2.162      5.769
REMARK  Name = 
REMARK  6 active torsions:
REMARK  status: ('A' for Active; 'I' for Inactive)
REMARK    1  A    between atoms: C_1  and  C_2
REMARK    2  A    between atoms: N_5  and  C_6
REMARK    3  A    between atoms: C_6  and  C_7
REMARK    4  A    between atoms: C_12  and  C_14
REMARK    5  A    between atoms: C_14  and  C_15
REMARK    6  A    between atoms: C_18  and  C_19
REMARK                            x       y       z     vdW  Elec       q    Type
REMARK                         _______ _______ _______ _____ _____    ______ ____
ROOT
ATOM      1  C   UNL     1       3.502   3.533  18.309  0.00  0.00    +0.000 C 
ATOM      2  C   UNL     1       2.864   2.310  17.627  0.00  0.00    +0.000 C 
ATOM      3  C   UNL     1       2.012   1.670  18.708  0.00  0.00    +0.000 C 
ATOM      4  C   UNL     1       1.592   2.830  19.595  0.00  0.00    +0.000 C 
ATOM      5  N   UNL     1       2.419   3.974  19.219  0.00  0.00    +0.000 N 
ATOM      6  C   UNL     1       2.203   5.147  19.917  0.00  0.00    +0.000 C 
ATOM      7  O   UNL     1       1.332   5.204  20.793  0.00  0.00    +0.000 OA
ENDROOT
BRANCH   1   8
ATOM      8  C   UNL     1       4.030   4.526  17.274  0.00  0.00    +0.000 C 
BRANCH   8  13
ATOM      9  C   UNL     1       7.847   7.732  17.653  0.00  0.00    +0.000 C 
ATOM     10  C   UNL     1       6.955   6.570  17.806  0.00  0.00    +0.000 A 
ATOM     11  C   UNL     1       7.187   5.366  18.516  0.00  0.00    +0.000 A 
ATOM     12  N   UNL     1       6.163   4.510  18.426  0.00  0.00    +0.000 NA
ATOM     13  N   UNL     1       5.270   5.166  17.668  0.00  0.00    +0.000 N 
ATOM     14  C   UNL     1       5.695   6.400  17.269  0.00  0.00    +0.000 A 
ENDBRANCH   8  13
ENDBRANCH   1   8
BRANCH   6  15
ATOM     15  C   UNL     1       2.992   6.404  19.609  0.00  0.00    +0.000 C 
BRANCH  15  16
ATOM     16  C   UNL     1       2.199   7.664  19.377  0.00  0.00    +0.000 A 
ATOM     17  C   UNL     1       2.088   8.176  18.079  0.00  0.00    +0.000 A 
ATOM     18  C   UNL     1       1.312   9.306  17.834  0.00  0.00    +0.000 A 
ATOM     19  C   UNL     1       0.658   9.915  18.899  0.00  0.00    +0.000 A 
ATOM     20  C   UNL     1      -0.212  11.118  18.690  0.00  0.00    +0.000 C 
ATOM     21  N   UNL     1       0.753   9.447  20.164  0.00  0.00    +0.000 NA
ATOM     22  C   UNL     1       1.500   8.336  20.371  0.00  0.00    +0.000 A 
ENDBRANCH  15  16
ENDBRANCH   6  15
TORSDOF 4
ENDMDL
MODEL 4
REMARK VINA RESULT:      -7.4      0.696      1.059
REMARK  Name = 
REMARK  6 active torsions:
REMARK  status: ('A' for Active; 'I' for Inactive)
REMARK    1  A    between atoms: C_1  and  C_2
REMARK    2  A    between atoms: N_5  and  C_6
REMARK    3  A    between atoms: C_6  and  C_7
REMARK    4  A    between atoms: C_12  and  C_14
REMARK    5  A    between atoms: C_14  and  C_15
REMARK    6  A    between atoms: C_18  and  C_19
REMARK                            x       y       z     vdW  Elec       q    Type
REMARK                         _______ _______ _______ _____ _____    ______ ____
ROOT
ATOM      1  C   UNL     1       2.438   5.045  19.524  0.00  0.00    +0.000 C 
ATOM      2  C   UNL     1       1.225   4.934  20.465  0.00  0.00    +0.000 C 
ATOM      3  C   UNL     1       0.895   3.453  20.490  0.00  0.00    +0.000 C 
ATOM      4  C   UNL     1       2.230   2.764  20.263  0.00  0.00    +0.000 C 
ATOM      5  N   UNL     1       3.169   3.791  19.820  0.00  0.00    +0.000 N 
ATOM      6  C   UNL     1       4.458   3.373  19.547  0.00  0.00    +0.000 C 
ATOM      7  O   UNL     1       4.778   2.188  19.701  0.00  0.00    +0.000 OA
ENDROOT
BRANCH   1   8
ATOM      8  C   UNL     1       3.166   6.374  19.723  0.00  0.00    +0.000 C 
BRANCH   8  13
ATOM      9  C   UNL     1       0.168  10.340  19.192  0.00  0.00    +0.000 C 
ATOM     10  C   UNL     1       1.112   9.237  18.945  0.00  0.00    +0.000 A 
ATOM     11  C   UNL     1       1.665   8.808  17.713  0.00  0.00    +0.000 A 
ATOM     12  N   UNL     1       2.476   7.754  17.852  0.00  0.00    +0.000 NA
ATOM     13  N   UNL     1       2.453   7.511  19.172  0.00  0.00    +0.000 N 
ATOM     14  C   UNL     1       1.652   8.368  19.870  0.00  0.00    +0.000 A 
ENDBRANCH   8  13
ENDBRANCH   1   8
BRANCH   6  15
ATOM     15  C   UNL     1       5.523   4.350  19.090  0.00  0.00    +0.000 C 
BRANCH  15  16
ATOM     16  C   UNL     1       5.802   4.406  17.611  0.00  0.00    +0.000 A 
ATOM     17  C   UNL     1       7.099   4.692  17.168  0.00  0.00    +0.000 A 
ATOM     18  C   UNL     1       7.393   4.692  15.807  0.00  0.00    +0.000 A 
ATOM     19  C   UNL     1       6.377   4.408  14.901  0.00  0.00    +0.000 A 
ATOM     20  C   UNL     1       6.641   4.367  13.426  0.00  0.00    +0.000 C 
ATOM     21  N   UNL     1       5.113   4.134  15.300  0.00  0.00    +0.000 NA
ATOM     22  C   UNL     1       4.860   4.124  16.630  0.00  0.00    +0.000 A 
ENDBRANCH  15  16
ENDBRANCH   6  15
TORSDOF 4
ENDMDL
MODEL 5
REMARK VINA RESULT:      -7.2      2.080      5.782
REMARK  Name = 
REMARK  6 active torsions:
REMARK  status: ('A' for Active; 'I' for Inactive)
REMARK    1  A    between atoms: C_1  and  C_2
REMARK    2  A    between atoms: N_5  and  C_6
REMARK    3  A    between atoms: C_6  and  C_7
REMARK    4  A    between atoms: C_12  and  C_14
REMARK    5  A    between atoms: C_14  and  C_15
REMARK    6  A    between atoms: C_18  and  C_19
REMARK                            x       y       z     vdW  Elec       q    Type
REMARK                         _______ _______ _______ _____ _____    ______ ____
ROOT
ATOM      1  C   UNL     1       3.506   3.539  18.303  0.00  0.00    +0.000 C 
ATOM      2  C   UNL     1       2.889   2.323  17.591  0.00  0.00    +0.000 C 
ATOM      3  C   UNL     1       2.041   1.647  18.653  0.00  0.00    +0.000 C 
ATOM      4  C   UNL     1       1.601   2.780  19.564  0.00  0.00    +0.000 C 
ATOM      5  N   UNL     1       2.413   3.944  19.218  0.00  0.00    +0.000 N 
ATOM      6  C   UNL     1       2.178   5.099  19.941  0.00  0.00    +0.000 C 
ATOM      7  O   UNL     1       1.303   5.123  20.814  0.00  0.00    +0.000 OA
ENDROOT
BRANCH   1   8
ATOM      8  C   UNL     1       4.024   4.562  17.293  0.00  0.00    +0.000 C 
BRANCH   8  13
ATOM      9  C   UNL     1       7.889   7.711  17.680  0.00  0.00    +0.000 C 
ATOM     10  C   UNL     1       6.978   6.563  17.831  0.00  0.00    +0.000 A 
ATOM     11  C   UNL     1       7.190   5.356  18.543  0.00  0.00    +0.000 A 
ATOM     12  N   UNL     1       6.153   4.516  18.451  0.00  0.00    +0.000 NA
ATOM     13  N   UNL     1       5.273   5.184  17.690  0.00  0.00    +0.000 N 
ATOM     14  C   UNL     1       5.718   6.411  17.291  0.00  0.00    +0.000 A 
ENDBRANCH   8  13
ENDBRANCH   1   8
BRANCH   6  15
ATOM     15  C   UNL     1       2.951   6.372  19.665  0.00  0.00    +0.000 C 
BRANCH  15  16
ATOM     16  C   UNL     1       2.140   7.615  19.403  0.00  0.00    +0.000 A 
ATOM     17  C   UNL     1       1.506   8.258  20.473  0.00  0.00    +0.000 A 
ATOM     18  C   UNL     1       0.800   9.440  20.264  0.00  0.00    +0.000 A 
ATOM     19  C   UNL     1       0.732   9.963  18.977  0.00  0.00    +0.000 A 
ATOM     20  C   UNL     1       0.009  11.245  18.697  0.00  0.00    +0.000 C 
ATOM     21  N   UNL     1       1.329   9.359  17.924  0.00  0.00    +0.000 NA
ATOM     22  C   UNL     1       2.024   8.221  18.160  0.00  0.00    +0.000 A 
ENDBRANCH  15  16
ENDBRANCH   6  15
TORSDOF 4
ENDMDL
MODEL 6
REMARK VINA RESULT:      -7.1      1.816      2.329
REMARK  Name = 
REMARK  6 active torsions:
REMARK  status: ('A' for Active; 'I' for Inactive)
REMARK    1  A    between atoms: C_1  and  C_2
REMARK    2  A    between atoms: N_5  and  C_6
REMARK    3  A    between atoms: C_6  and  C_7
REMARK    4  A    between atoms: C_12  and  C_14
REMARK    5  A    between atoms: C_14  and  C_15
REMARK    6  A    between atoms: C_18  and  C_19
REMARK                            x       y       z     vdW  Elec       q    Type
REMARK                         _______ _______ _______ _____ _____    ______ ____
ROOT
ATOM      1  C   UNL     1       1.964   4.615  20.074  0.00  0.00    +0.000 C 
ATOM      2  C   UNL     1       2.004   4.090  21.520  0.00  0.00    +0.000 C 
ATOM      3  C   UNL     1       1.435   2.686  21.433  0.00  0.00    +0.000 C 
ATOM      4  C   UNL     1       1.804   2.214  20.038  0.00  0.00    +0.000 C 
ATOM      5  N   UNL     1       2.256   3.389  19.296  0.00  0.00    +0.000 N 
ATOM      6  C   UNL     1       2.638   3.182  17.984  0.00  0.00    +0.000 C 
ATOM      7  O   UNL     1       2.610   2.046  17.495  0.00  0.00    +0.000 OA
ENDROOT
BRANCH   1   8
ATOM      8  C   UNL     1       2.888   5.821  19.903  0.00  0.00    +0.000 C 
BRANCH   8  13
ATOM      9  C   UNL     1       1.148  10.227  18.303  0.00  0.00    +0.000 C 
ATOM     10  C   UNL     1       1.442   9.031  19.110  0.00  0.00    +0.000 A 
ATOM     11  C   UNL     1       1.080   8.761  20.453  0.00  0.00    +0.000 A 
ATOM     12  N   UNL     1       1.534   7.577  20.881  0.00  0.00    +0.000 NA
ATOM     13  N   UNL     1       2.179   7.083  19.813  0.00  0.00    +0.000 N 
ATOM     14  C   UNL     1       2.156   7.913  18.730  0.00  0.00    +0.000 A 
ENDBRANCH   8  13
ENDBRANCH   1   8
BRANCH   6  15
ATOM     15  C   UNL     1       3.135   4.323  17.119  0.00  0.00    +0.000 C 
BRANCH  15  16
ATOM     16  C   UNL     1       4.480   4.904  17.471  0.00  0.00    +0.000 A 
ATOM     17  C   UNL     1       4.816   6.183  17.011  0.00  0.00    +0.000 A 
ATOM     18  C   UNL     1       6.029   6.763  17.372  0.00  0.00    +0.000 A 
ATOM     19  C   UNL     1       6.898   6.049  18.190  0.00  0.00    +0.000 A 
ATOM     20  C   UNL     1       8.205   6.633  18.632  0.00  0.00    +0.000 C 
ATOM     21  N   UNL     1       6.602   4.809  18.644  0.00  0.00    +0.000 NA
ATOM     22  C   UNL     1       5.408   4.277  18.291  0.00  0.00    +0.000 A 
ENDBRANCH  15  16
ENDBRANCH   6  15
TORSDOF 4
ENDMDL
MODEL 7
REMARK VINA RESULT:      -7.0      1.315      1.542
REMARK  Name = 
REMARK  6 active torsions:
REMARK  status: ('A' for Active; 'I' for Inactive)
REMARK    1  A    between atoms: C_1  and  C_2
REMARK    2  A    between atoms: N_5  and  C_6
REMARK    3  A    between atoms: C_6  and  C_7
REMARK    4  A    between atoms: C_12  and  C_14
REMARK    5  A    between atoms: C_14  and  C_15
REMARK    6  A    between atoms: C_18  and  C_19
REMARK                            x       y       z     vdW  Elec       q    Type
REMARK                         _______ _______ _______ _____ _____    ______ ____
ROOT
ATOM      1  C   UNL     1       2.286   5.611  19.371  0.00  0.00    +0.000 C 
ATOM      2  C   UNL     1       1.190   5.383  20.427  0.00  0.00    +0.000 C 
ATOM      3  C   UNL     1       1.118   3.875  20.583  0.00  0.00    +0.000 C 
ATOM      4  C   UNL     1       2.527   3.395  20.278  0.00  0.00    +0.000 C 
ATOM      5  N   UNL     1       3.240   4.521  19.681  0.00  0.00    +0.000 N 
ATOM      6  C   UNL     1       4.554   4.296  19.316  0.00  0.00    +0.000 C 
ATOM      7  O   UNL     1       5.081   3.196  19.519  0.00  0.00    +0.000 OA
ENDROOT
BRANCH   1   8
ATOM      8  C   UNL     1       2.793   7.052  19.410  0.00  0.00    +0.000 C 
BRANCH   8  13
ATOM      9  C   UNL     1      -0.162   9.386  22.700  0.00  0.00    +0.000 C 
ATOM     10  C   UNL     1       0.545   8.978  21.474  0.00  0.00    +0.000 A 
ATOM     11  C   UNL     1       0.377   9.466  20.154  0.00  0.00    +0.000 A 
ATOM     12  N   UNL     1       1.174   8.851  19.273  0.00  0.00    +0.000 NA
ATOM     13  N   UNL     1       1.860   7.977  20.025  0.00  0.00    +0.000 N 
ATOM     14  C   UNL     1       1.521   8.011  21.347  0.00  0.00    +0.000 A 
ENDBRANCH   8  13
ENDBRANCH   1   8
BRANCH   6  15
ATOM     15  C   UNL     1       5.398   5.392  18.697  0.00  0.00    +0.000 C 
BRANCH  15  16
ATOM     16  C   UNL     1       5.875   5.165  17.286  0.00  0.00    +0.000 A 
ATOM     17  C   UNL     1       5.056   4.471  16.388  0.00  0.00    +0.000 A 
ATOM     18  C   UNL     1       5.451   4.301  15.064  0.00  0.00    +0.000 A 
ATOM     19  C   UNL     1       6.672   4.826  14.654  0.00  0.00    +0.000 A 
ATOM     20  C   UNL     1       7.137   4.696  13.236  0.00  0.00    +0.000 C 
ATOM     21  N   UNL     1       7.487   5.495  15.502  0.00  0.00    +0.000 NA
ATOM     22  C   UNL     1       7.069   5.661  16.780  0.00  0.00    +0.000 A 
ENDBRANCH  15  16
ENDBRANCH   6  15
TORSDOF 4
ENDMDL
MODEL 8
REMARK VINA RESULT:      -7.0      1.757      6.002
REMARK  Name = 
REMARK  6 active torsions:
REMARK  status: ('A' for Active; 'I' for Inactive)
REMARK    1  A    between atoms: C_1  and  C_2
REMARK    2  A    between atoms: N_5  and  C_6
REMARK    3  A    between atoms: C_6  and  C_7
REMARK    4  A    between atoms: C_12  and  C_14
REMARK    5  A    between atoms: C_14  and  C_15
REMARK    6  A    between atoms: C_18  and  C_19
REMARK                            x       y       z     vdW  Elec       q    Type
REMARK                         _______ _______ _______ _____ _____    ______ ____
ROOT
ATOM      1  C   UNL     1       3.934   3.666  19.104  0.00  0.00    +0.000 C 
ATOM      2  C   UNL     1       3.964   2.852  17.798  0.00  0.00    +0.000 C 
ATOM      3  C   UNL     1       2.795   1.892  17.918  0.00  0.00    +0.000 C 
ATOM      4  C   UNL     1       1.784   2.632  18.778  0.00  0.00    +0.000 C 
ATOM      5  N   UNL     1       2.479   3.779  19.360  0.00  0.00    +0.000 N 
ATOM      6  C   UNL     1       1.736   4.593  20.193  0.00  0.00    +0.000 C 
ATOM      7  O   UNL     1       0.540   4.354  20.400  0.00  0.00    +0.000 OA
ENDROOT
BRANCH   1   8
ATOM      8  C   UNL     1       4.749   4.951  18.968  0.00  0.00    +0.000 C 
BRANCH   8  13
ATOM      9  C   UNL     1       7.050   4.951  14.529  0.00  0.00    +0.000 C 
ATOM     10  C   UNL     1       6.754   4.865  15.969  0.00  0.00    +0.000 A 
ATOM     11  C   UNL     1       7.618   4.488  17.027  0.00  0.00    +0.000 A 
ATOM     12  N   UNL     1       7.009   4.498  18.218  0.00  0.00    +0.000 NA
ATOM     13  N   UNL     1       5.758   4.888  17.928  0.00  0.00    +0.000 N 
ATOM     14  C   UNL     1       5.553   5.118  16.599  0.00  0.00    +0.000 A 
ENDBRANCH   8  13
ENDBRANCH   1   8
BRANCH   6  15
ATOM     15  C   UNL     1       2.345   5.818  20.845  0.00  0.00    +0.000 C 
BRANCH  15  16
ATOM     16  C   UNL     1       1.946   7.157  20.280  0.00  0.00    +0.000 A 
ATOM     17  C   UNL     1       2.279   7.470  18.957  0.00  0.00    +0.000 A 
ATOM     18  C   UNL     1       1.869   8.677  18.396  0.00  0.00    +0.000 A 
ATOM     19  C   UNL     1       1.132   9.563  19.174  0.00  0.00    +0.000 A 
ATOM     20  C   UNL     1       0.642  10.864  18.616  0.00  0.00    +0.000 C 
ATOM     21  N   UNL     1       0.802   9.290  20.457  0.00  0.00    +0.000 NA
ATOM     22  C   UNL     1       1.197   8.101  20.971  0.00  0.00    +0.000 A 
ENDBRANCH  15  16
ENDBRANCH   6  15
TORSDOF 4
ENDMDL
MODEL 9
REMARK VINA RESULT:      -7.0      1.207      1.462
REMARK  Name = 
REMARK  6 active torsions:
REMARK  status: ('A' for Active; 'I' for Inactive)
REMARK    1  A    between atoms: C_1  and  C_2
REMARK    2  A    between atoms: N_5  and  C_6
REMARK    3  A    between atoms: C_6  and  C_7
REMARK    4  A    between atoms: C_12  and  C_14
REMARK    5  A    between atoms: C_14  and  C_15
REMARK    6  A    between atoms: C_18  and  C_19
REMARK                            x       y       z     vdW  Elec       q    Type
REMARK                         _______ _______ _______ _____ _____    ______ ____
ROOT
ATOM      1  C   UNL     1       2.876   4.983  17.752  0.00  0.00    +0.000 C 
ATOM      2  C   UNL     1       1.401   4.944  18.189  0.00  0.00    +0.000 C 
ATOM      3  C   UNL     1       1.171   3.510  18.630  0.00  0.00    +0.000 C 
ATOM      4  C   UNL     1       2.525   3.049  19.141  0.00  0.00    +0.000 C 
ATOM      5  N   UNL     1       3.504   4.045  18.711  0.00  0.00    +0.000 N 
ATOM      6  C   UNL     1       4.819   3.812  19.069  0.00  0.00    +0.000 C 
ATOM      7  O   UNL     1       5.119   2.817  19.738  0.00  0.00    +0.000 OA
ENDROOT
BRANCH   1   8
ATOM      8  C   UNL     1       3.394   6.419  17.696  0.00  0.00    +0.000 C 
BRANCH   8  13
ATOM      9  C   UNL     1       0.972   8.491  21.549  0.00  0.00    +0.000 C 
ATOM     10  C   UNL     1       1.559   8.226  20.224  0.00  0.00    +0.000 A 
ATOM     11  C   UNL     1       1.422   8.977  19.031  0.00  0.00    +0.000 A 
ATOM     12  N   UNL     1       2.078   8.432  18.001  0.00  0.00    +0.000 NA
ATOM     13  N   UNL     1       2.643   7.337  18.532  0.00  0.00    +0.000 N 
ATOM     14  C   UNL     1       2.363   7.167  19.856  0.00  0.00    +0.000 A 
ENDBRANCH   8  13
ENDBRANCH   1   8
BRANCH   6  15
ATOM     15  C   UNL     1       5.921   4.781  18.688  0.00  0.00    +0.000 C 
BRANCH  15  16
ATOM     16  C   UNL     1       6.354   4.781  17.245  0.00  0.00    +0.000 A 
ATOM     17  C   UNL     1       5.828   3.824  16.370  0.00  0.00    +0.000 A 
ATOM     18  C   UNL     1       6.171   3.842  15.020  0.00  0.00    +0.000 A 
ATOM     19  C   UNL     1       7.045   4.822  14.563  0.00  0.00    +0.000 A 
ATOM     20  C   UNL     1       7.427   4.907  13.117  0.00  0.00    +0.000 C 
ATOM     21  N   UNL     1       7.574   5.755  15.387  0.00  0.00    +0.000 NA
ATOM     22  C   UNL     1       7.209   5.725  16.691  0.00  0.00    +0.000 A 
ENDBRANCH  15  16
ENDBRANCH   6  15
TORSDOF 4
ENDMDL
