MODEL 1
REMARK VINA RESULT:      -8.6      0.000      0.000
REMARK  Name = 
REMARK  12 active torsions:
REMARK  status: ('A' for Active; 'I' for Inactive)
REMARK    1  A    between atoms: C_1  and  C_2
REMARK    2  A    between atoms: C_2  and  C_3
REMARK    3  A    between atoms: C_3  and  C_4
REMARK    4  A    between atoms: C_4  and  N_5
REMARK    5  A    between atoms: C_6  and  C_8
REMARK    6  A    between atoms: C_8  and  C_9
REMARK    7  A    between atoms: C_8  and  N_21
REMARK    8  A    between atoms: C_11  and  C_12
REMARK    9  A    between atoms: C_17  and  N_18
REMARK   10  A    between atoms: N_21  and  C_22
REMARK   11  A    between atoms: C_22  and  C_23
REMARK   12  A    between atoms: C_29  and  C_31
REMARK                            x       y       z     vdW  Elec       q    Type
REMARK                         _______ _______ _______ _____ _____    ______ ____
ROOT
ATOM      1  C   UNL     1       5.071   5.411  18.075  0.00  0.00    +0.000 C 
ENDROOT
BRANCH   1   3
ATOM      2  N   UNL     1       6.983   6.998  17.984  0.00  0.00    +0.000 N 
ATOM      3  C   UNL     1       6.351   6.013  18.726  0.00  0.00    +0.000 C 
ATOM      4  O   UNL     1       6.836   5.613  19.782  0.00  0.00    +0.000 OA
ATOM      5  H   UNL     1       6.714   7.140  17.020  0.00  0.00    +0.000 HD
BRANCH   2   6
ATOM      6  C   UNL     1       8.195   7.610  18.492  0.00  0.00    +0.000 C 
BRANCH   6   7
ATOM      7  C   UNL     1       8.349   9.063  18.058  0.00  0.00    +0.000 C 
BRANCH   7   9
ATOM      8  C   UNL     1       9.421  11.292  18.534  0.00  0.00    +0.000 C 
ATOM      9  C   UNL     1       9.215   9.869  19.026  0.00  0.00    +0.000 C 
ENDBRANCH   7   9
ENDBRANCH   6   7
ENDBRANCH   2   6
ENDBRANCH   1   3
BRANCH   1  10
ATOM     10  C   UNL     1       3.911   6.356  17.868  0.00  0.00    +0.000 C 
ATOM     11  O   UNL     1       2.631   5.764  17.608  0.00  0.00    +0.000 OA
ATOM     12  C   UNL     1       2.708   6.545  18.811  0.00  0.00    +0.000 C 
BRANCH  12  13
ATOM     13  C   UNL     1       2.196   7.968  18.875  0.00  0.00    +0.000 A 
ATOM     14  C   UNL     1       2.425   8.767  17.724  0.00  0.00    +0.000 A 
ATOM     15  C   UNL     1       1.965  10.076  17.604  0.00  0.00    +0.000 A 
ATOM     16  C   UNL     1       1.281  10.656  18.659  0.00  0.00    +0.000 A 
ATOM     17  C   UNL     1       1.072   9.926  19.832  0.00  0.00    +0.000 A 
ATOM     18  C   UNL     1       1.537   8.597  19.949  0.00  0.00    +0.000 A 
BRANCH  18  19
ATOM     19  N   UNL     1       1.331   7.926  21.246  0.00  0.00    +0.000 N 
ATOM     20  O   UNL     1       1.350   8.603  22.283  0.00  0.00    +0.000 OA
ATOM     21  O   UNL     1       1.102   6.707  21.229  0.00  0.00    +0.000 OA
ENDBRANCH  18  19
ENDBRANCH  12  13
ENDBRANCH   1  10
BRANCH   1  22
ATOM     22  N   UNL     1       5.340   4.633  16.812  0.00  0.00    +0.000 N 
ATOM     23  C   UNL     1       5.503   5.363  15.611  0.00  0.00    +0.000 C 
ATOM     24  O   UNL     1       5.559   6.591  15.592  0.00  0.00    +0.000 OA
BRANCH  23  25
ATOM     25  C   UNL     1       5.756   4.678  14.305  0.00  0.00    +0.000 A 
ATOM     26  C   UNL     1       4.788   3.932  13.632  0.00  0.00    +0.000 A 
ATOM     27  C   UNL     1       5.120   3.234  12.467  0.00  0.00    +0.000 A 
ATOM     28  C   UNL     1       6.404   3.333  11.929  0.00  0.00    +0.000 A 
ATOM     29  C   UNL     1       7.354   4.148  12.545  0.00  0.00    +0.000 A 
ATOM     30  C   UNL     1       7.032   4.817  13.724  0.00  0.00    +0.000 A 
ENDBRANCH  23  25
BRANCH  22  31
ATOM     31  C   UNL     1       4.888   3.230  16.835  0.00  0.00    +0.000 C 
BRANCH  31  32
ATOM     32  C   UNL     1       3.820   2.862  17.835  0.00  0.00    +0.000 A 
ATOM     33  C   UNL     1       2.489   2.636  17.471  0.00  0.00    +0.000 A 
ATOM     34  C   UNL     1       1.529   2.335  18.438  0.00  0.00    +0.000 A 
ATOM     35  C   UNL     1       1.898   2.202  19.774  0.00  0.00    +0.000 A 
ATOM     36  C   UNL     1       3.223   2.399  20.151  0.00  0.00    +0.000 A 
ATOM     37  C   UNL     1       4.176   2.736  19.191  0.00  0.00    +0.000 A 
ENDBRANCH  31  32
ENDBRANCH  22  31
ENDBRANCH   1  22
TORSDOF 11
ENDMDL
MODEL 2
REMARK VINA RESULT:      -8.5      0.130      1.251
REMARK  Name = 
REMARK  12 active torsions:
REMARK  status: ('A' for Active; 'I' for Inactive)
REMARK    1  A    between atoms: C_1  and  C_2
REMARK    2  A    between atoms: C_2  and  C_3
REMARK    3  A    between atoms: C_3  and  C_4
REMARK    4  A    between atoms: C_4  and  N_5
REMARK    5  A    between atoms: C_6  and  C_8
REMARK    6  A    between atoms: C_8  and  C_9
REMARK    7  A    between atoms: C_8  and  N_21
REMARK    8  A    between atoms: C_11  and  C_12
REMARK    9  A    between atoms: C_17  and  N_18
REMARK   10  A    between atoms: N_21  and  C_22
REMARK   11  A    between atoms: C_22  and  C_23
REMARK   12  A    between atoms: C_29  and  C_31
REMARK                            x       y       z     vdW  Elec       q    Type
REMARK                         _______ _______ _______ _____ _____    ______ ____
ROOT
ATOM      1  C   UNL     1       5.128   5.432  18.074  0.00  0.00    +0.000 C 
ENDROOT
BRANCH   1   3
ATOM      2  N   UNL     1       7.010   7.057  18.029  0.00  0.00    +0.000 N 
ATOM      3  C   UNL     1       6.414   6.018  18.727  0.00  0.00    +0.000 C 
ATOM      4  O   UNL     1       6.933   5.567  19.745  0.00  0.00    +0.000 OA
ATOM      5  H   UNL     1       6.712   7.250  17.082  0.00  0.00    +0.000 HD
BRANCH   2   6
ATOM      6  C   UNL     1       8.224   7.661  18.542  0.00  0.00    +0.000 C 
BRANCH   6   7
ATOM      7  C   UNL     1       8.416   9.095  18.064  0.00  0.00    +0.000 C 
BRANCH   7   9
ATOM      8  C   UNL     1       9.468  11.334  18.539  0.00  0.00    +0.000 C 
ATOM      9  C   UNL     1       9.146   9.957  19.096  0.00  0.00    +0.000 C 
ENDBRANCH   7   9
ENDBRANCH   6   7
ENDBRANCH   2   6
ENDBRANCH   1   3
BRANCH   1  10
ATOM     10  C   UNL     1       3.989   6.397  17.842  0.00  0.00    +0.000 C 
ATOM     11  O   UNL     1       2.733   5.832  17.442  0.00  0.00    +0.000 OA
ATOM     12  C   UNL     1       2.716   6.530  18.697  0.00  0.00    +0.000 C 
BRANCH  12  13
ATOM     13  C   UNL     1       2.203   7.949  18.817  0.00  0.00    +0.000 A 
ATOM     14  C   UNL     1       2.442   8.797  17.703  0.00  0.00    +0.000 A 
ATOM     15  C   UNL     1       1.983  10.109  17.634  0.00  0.00    +0.000 A 
ATOM     16  C   UNL     1       1.289  10.644  18.706  0.00  0.00    +0.000 A 
ATOM     17  C   UNL     1       1.069   9.865  19.845  0.00  0.00    +0.000 A 
ATOM     18  C   UNL     1       1.533   8.532  19.910  0.00  0.00    +0.000 A 
BRANCH  18  19
ATOM     19  N   UNL     1       1.315   7.807  21.176  0.00  0.00    +0.000 N 
ATOM     20  O   UNL     1       1.329   6.569  21.170  0.00  0.00    +0.000 OA
ATOM     21  O   UNL     1       1.168   8.485  22.204  0.00  0.00    +0.000 OA
ENDBRANCH  18  19
ENDBRANCH  12  13
ENDBRANCH   1  10
BRANCH   1  22
ATOM     22  N   UNL     1       5.392   4.627  16.827  0.00  0.00    +0.000 N 
ATOM     23  C   UNL     1       5.588   5.335  15.617  0.00  0.00    +0.000 C 
ATOM     24  O   UNL     1       5.675   6.561  15.580  0.00  0.00    +0.000 OA
BRANCH  23  25
ATOM     25  C   UNL     1       5.839   4.623  14.325  0.00  0.00    +0.000 A 
ATOM     26  C   UNL     1       7.085   4.589  13.698  0.00  0.00    +0.000 A 
ATOM     27  C   UNL     1       7.227   3.992  12.442  0.00  0.00    +0.000 A 
ATOM     28  C   UNL     1       6.138   3.364  11.835  0.00  0.00    +0.000 A 
ATOM     29  C   UNL     1       4.909   3.315  12.492  0.00  0.00    +0.000 A 
ATOM     30  C   UNL     1       4.760   3.939  13.730  0.00  0.00    +0.000 A 
ENDBRANCH  23  25
BRANCH  22  31
ATOM     31  C   UNL     1       4.904   3.237  16.865  0.00  0.00    +0.000 C 
BRANCH  31  32
ATOM     32  C   UNL     1       3.876   2.892  17.914  0.00  0.00    +0.000 A 
ATOM     33  C   UNL     1       4.184   2.803  19.275  0.00  0.00    +0.000 A 
ATOM     34  C   UNL     1       3.207   2.443  20.203  0.00  0.00    +0.000 A 
ATOM     35  C   UNL     1       1.896   2.221  19.790  0.00  0.00    +0.000 A 
ATOM     36  C   UNL     1       1.565   2.331  18.442  0.00  0.00    +0.000 A 
ATOM     37  C   UNL     1       2.549   2.654  17.509  0.00  0.00    +0.000 A 
ENDBRANCH  31  32
ENDBRANCH  22  31
ENDBRANCH   1  22
TORSDOF 11
ENDMDL
MODEL 3
REMARK VINA RESULT:      -8.1      2.232      6.382
REMARK  Name = 
REMARK  12 active torsions:
REMARK  status: ('A' for Active; 'I' for Inactive)
REMARK    1  A    between atoms: C_1  and  C_2
REMARK    2  A    between atoms: C_2  and  C_3
REMARK    3  A    between atoms: C_3  and  C_4
REMARK    4  A    between atoms: C_4  and  N_5
REMARK    5  A    between atoms: C_6  and  C_8
REMARK    6  A    between atoms: C_8  and  C_9
REMARK    7  A    between atoms: C_8  and  N_21
REMARK    8  A    between atoms: C_11  and  C_12
REMARK    9  A    between atoms: C_17  and  N_18
REMARK   10  A    between atoms: N_21  and  C_22
REMARK   11  A    between atoms: C_22  and  C_23
REMARK   12  A    between atoms: C_29  and  C_31
REMARK                            x       y       z     vdW  Elec       q    Type
REMARK                         _______ _______ _______ _____ _____    ______ ____
ROOT
ATOM      1  C   UNL     1       4.395   5.067  16.215  0.00  0.00    +0.000 C 
ENDROOT
BRANCH   1   3
ATOM      2  N   UNL     1       5.410   4.275  14.087  0.00  0.00    +0.000 N 
ATOM      3  C   UNL     1       5.368   4.112  15.463  0.00  0.00    +0.000 C 
ATOM      4  O   UNL     1       6.008   3.216  16.009  0.00  0.00    +0.000 OA
ATOM      5  H   UNL     1       4.706   4.842  13.636  0.00  0.00    +0.000 HD
BRANCH   2   6
ATOM      6  C   UNL     1       6.271   3.422  13.291  0.00  0.00    +0.000 C 
BRANCH   6   7
ATOM      7  C   UNL     1       5.970   3.508  11.800  0.00  0.00    +0.000 C 
BRANCH   7   9
ATOM      8  C   UNL     1       3.667   3.606  10.785  0.00  0.00    +0.000 C 
ATOM      9  C   UNL     1       4.723   2.712  11.413  0.00  0.00    +0.000 C 
ENDBRANCH   7   9
ENDBRANCH   6   7
ENDBRANCH   2   6
ENDBRANCH   1   3
BRANCH   1  10
ATOM     10  C   UNL     1       3.310   4.414  17.038  0.00  0.00    +0.000 C 
ATOM     11  O   UNL     1       2.637   3.292  16.449  0.00  0.00    +0.000 OA
ATOM     12  C   UNL     1       3.357   3.006  17.659  0.00  0.00    +0.000 C 
BRANCH  12  13
ATOM     13  C   UNL     1       2.662   2.903  18.999  0.00  0.00    +0.000 A 
ATOM     14  C   UNL     1       1.254   3.083  18.989  0.00  0.00    +0.000 A 
ATOM     15  C   UNL     1       0.463   2.961  20.128  0.00  0.00    +0.000 A 
ATOM     16  C   UNL     1       1.063   2.685  21.345  0.00  0.00    +0.000 A 
ATOM     17  C   UNL     1       2.451   2.546  21.416  0.00  0.00    +0.000 A 
ATOM     18  C   UNL     1       3.251   2.666  20.257  0.00  0.00    +0.000 A 
BRANCH  18  19
ATOM     19  N   UNL     1       4.711   2.570  20.436  0.00  0.00    +0.000 N 
ATOM     20  O   UNL     1       5.180   1.599  21.043  0.00  0.00    +0.000 OA
ATOM     21  O   UNL     1       5.408   3.460  19.925  0.00  0.00    +0.000 OA
ENDBRANCH  18  19
ENDBRANCH  12  13
ENDBRANCH   1  10
BRANCH   1  22
ATOM     22  N   UNL     1       5.093   6.132  17.023  0.00  0.00    +0.000 N 
ATOM     23  C   UNL     1       6.421   6.465  16.664  0.00  0.00    +0.000 C 
ATOM     24  O   UNL     1       6.962   6.014  15.657  0.00  0.00    +0.000 OA
BRANCH  23  25
ATOM     25  C   UNL     1       7.200   7.496  17.418  0.00  0.00    +0.000 A 
ATOM     26  C   UNL     1       7.114   8.864  17.157  0.00  0.00    +0.000 A 
ATOM     27  C   UNL     1       7.945   9.765  17.829  0.00  0.00    +0.000 A 
ATOM     28  C   UNL     1       8.820   9.311  18.818  0.00  0.00    +0.000 A 
ATOM     29  C   UNL     1       8.851   7.956  19.149  0.00  0.00    +0.000 A 
ATOM     30  C   UNL     1       8.045   7.055  18.455  0.00  0.00    +0.000 A 
ENDBRANCH  23  25
BRANCH  22  31
ATOM     31  C   UNL     1       4.561   6.333  18.383  0.00  0.00    +0.000 C 
BRANCH  31  32
ATOM     32  C   UNL     1       3.405   7.288  18.541  0.00  0.00    +0.000 A 
ATOM     33  C   UNL     1       3.098   8.268  17.593  0.00  0.00    +0.000 A 
ATOM     34  C   UNL     1       2.041   9.154  17.803  0.00  0.00    +0.000 A 
ATOM     35  C   UNL     1       1.241   9.036  18.937  0.00  0.00    +0.000 A 
ATOM     36  C   UNL     1       1.516   8.049  19.879  0.00  0.00    +0.000 A 
ATOM     37  C   UNL     1       2.596   7.187  19.689  0.00  0.00    +0.000 A 
ENDBRANCH  31  32
ENDBRANCH  22  31
ENDBRANCH   1  22
TORSDOF 11
ENDMDL
MODEL 4
REMARK VINA RESULT:      -7.8      5.211     11.488
REMARK  Name = 
REMARK  12 active torsions:
REMARK  status: ('A' for Active; 'I' for Inactive)
REMARK    1  A    between atoms: C_1  and  C_2
REMARK    2  A    between atoms: C_2  and  C_3
REMARK    3  A    between atoms: C_3  and  C_4
REMARK    4  A    between atoms: C_4  and  N_5
REMARK    5  A    between atoms: C_6  and  C_8
REMARK    6  A    between atoms: C_8  and  C_9
REMARK    7  A    between atoms: C_8  and  N_21
REMARK    8  A    between atoms: C_11  and  C_12
REMARK    9  A    between atoms: C_17  and  N_18
REMARK   10  A    between atoms: N_21  and  C_22
REMARK   11  A    between atoms: C_22  and  C_23
REMARK   12  A    between atoms: C_29  and  C_31
REMARK                            x       y       z     vdW  Elec       q    Type
REMARK                         _______ _______ _______ _____ _____    ______ ____
ROOT
ATOM      1  C   UNL     1      -1.541  11.886  20.239  0.00  0.00    +0.000 C 
ENDROOT
BRANCH   1   3
ATOM      2  N   UNL     1      -3.861  12.716  20.577  0.00  0.00    +0.000 N 
ATOM      3  C   UNL     1      -2.952  12.203  19.664  0.00  0.00    +0.000 C 
ATOM      4  O   UNL     1      -3.293  11.958  18.509  0.00  0.00    +0.000 OA
ATOM      5  H   UNL     1      -3.642  12.682  21.563  0.00  0.00    +0.000 HD
BRANCH   2   6
ATOM      6  C   UNL     1      -5.209  13.028  20.146  0.00  0.00    +0.000 C 
BRANCH   6   7
ATOM      7  C   UNL     1      -6.227  11.984  20.591  0.00  0.00    +0.000 C 
BRANCH   7   9
ATOM      8  C   UNL     1      -6.830  11.632  18.171  0.00  0.00    +0.000 C 
ATOM      9  C   UNL     1      -7.363  11.816  19.582  0.00  0.00    +0.000 C 
ENDBRANCH   7   9
ENDBRANCH   6   7
ENDBRANCH   2   6
ENDBRANCH   1   3
BRANCH   1  10
ATOM     10  C   UNL     1      -0.759  10.797  19.545  0.00  0.00    +0.000 C 
ATOM     11  O   UNL     1      -0.067  11.162  18.342  0.00  0.00    +0.000 OA
ATOM     12  C   UNL     1       0.773  10.713  19.417  0.00  0.00    +0.000 C 
BRANCH  12  13
ATOM     13  C   UNL     1       1.318   9.301  19.471  0.00  0.00    +0.000 A 
ATOM     14  C   UNL     1       1.811   8.774  18.249  0.00  0.00    +0.000 A 
ATOM     15  C   UNL     1       2.397   7.516  18.145  0.00  0.00    +0.000 A 
ATOM     16  C   UNL     1       2.480   6.710  19.268  0.00  0.00    +0.000 A 
ATOM     17  C   UNL     1       1.966   7.165  20.485  0.00  0.00    +0.000 A 
ATOM     18  C   UNL     1       1.376   8.445  20.587  0.00  0.00    +0.000 A 
BRANCH  18  19
ATOM     19  N   UNL     1       0.800   8.816  21.894  0.00  0.00    +0.000 N 
ATOM     20  O   UNL     1       1.494   9.452  22.698  0.00  0.00    +0.000 OA
ATOM     21  O   UNL     1      -0.381   8.502  22.106  0.00  0.00    +0.000 OA
ENDBRANCH  18  19
ENDBRANCH  12  13
ENDBRANCH   1  10
BRANCH   1  22
ATOM     22  N   UNL     1      -0.676  13.105  20.435  0.00  0.00    +0.000 N 
ATOM     23  C   UNL     1      -0.202  13.373  21.742  0.00  0.00    +0.000 C 
ATOM     24  O   UNL     1      -0.366  12.587  22.673  0.00  0.00    +0.000 OA
BRANCH  23  25
ATOM     25  C   UNL     1       0.647  14.568  22.038  0.00  0.00    +0.000 A 
ATOM     26  C   UNL     1       2.025  14.601  21.823  0.00  0.00    +0.000 A 
ATOM     27  C   UNL     1       2.774  15.715  22.216  0.00  0.00    +0.000 A 
ATOM     28  C   UNL     1       2.140  16.831  22.764  0.00  0.00    +0.000 A 
ATOM     29  C   UNL     1       0.753  16.843  22.901  0.00  0.00    +0.000 A 
ATOM     30  C   UNL     1       0.011  15.721  22.539  0.00  0.00    +0.000 A 
ENDBRANCH  23  25
BRANCH  22  31
ATOM     31  C   UNL     1      -0.842  14.159  19.418  0.00  0.00    +0.000 C 
BRANCH  31  32
ATOM     32  C   UNL     1       0.405  14.847  18.923  0.00  0.00    +0.000 A 
ATOM     33  C   UNL     1       1.545  14.147  18.516  0.00  0.00    +0.000 A 
ATOM     34  C   UNL     1       2.688  14.830  18.102  0.00  0.00    +0.000 A 
ATOM     35  C   UNL     1       2.690  16.221  18.036  0.00  0.00    +0.000 A 
ATOM     36  C   UNL     1       1.555  16.934  18.413  0.00  0.00    +0.000 A 
ATOM     37  C   UNL     1       0.424  16.254  18.863  0.00  0.00    +0.000 A 
ENDBRANCH  31  32
ENDBRANCH  22  31
ENDBRANCH   1  22
TORSDOF 11
ENDMDL
MODEL 5
REMARK VINA RESULT:      -7.7      3.959      9.262
REMARK  Name = 
REMARK  12 active torsions:
REMARK  status: ('A' for Active; 'I' for Inactive)
REMARK    1  A    between atoms: C_1  and  C_2
REMARK    2  A    between atoms: C_2  and  C_3
REMARK    3  A    between atoms: C_3  and  C_4
REMARK    4  A    between atoms: C_4  and  N_5
REMARK    5  A    between atoms: C_6  and  C_8
REMARK    6  A    between atoms: C_8  and  C_9
REMARK    7  A    between atoms: C_8  and  N_21
REMARK    8  A    between atoms: C_11  and  C_12
REMARK    9  A    between atoms: C_17  and  N_18
REMARK   10  A    between atoms: N_21  and  C_22
REMARK   11  A    between atoms: C_22  and  C_23
REMARK   12  A    between atoms: C_29  and  C_31
REMARK                            x       y       z     vdW  Elec       q    Type
REMARK                         _______ _______ _______ _____ _____    ______ ____
ROOT
ATOM      1  C   UNL     1       1.136   9.365  20.526  0.00  0.00    +0.000 C 
ENDROOT
BRANCH   1   3
ATOM      2  N   UNL     1      -0.291  10.524  22.200  0.00  0.00    +0.000 N 
ATOM      3  C   UNL     1      -0.129   9.381  21.433  0.00  0.00    +0.000 C 
ATOM      4  O   UNL     1      -0.906   8.435  21.543  0.00  0.00    +0.000 OA
ATOM      5  H   UNL     1       0.475  11.178  22.280  0.00  0.00    +0.000 HD
BRANCH   2   6
ATOM      6  C   UNL     1      -1.428  10.631  23.094  0.00  0.00    +0.000 C 
BRANCH   6   7
ATOM      7  C   UNL     1      -1.843  12.075  23.350  0.00  0.00    +0.000 C 
BRANCH   7   9
ATOM      8  C   UNL     1      -4.166  12.803  23.993  0.00  0.00    +0.000 C 
ATOM      9  C   UNL     1      -3.260  12.367  22.854  0.00  0.00    +0.000 C 
ENDBRANCH   7   9
ENDBRANCH   6   7
ENDBRANCH   2   6
ENDBRANCH   1   3
BRANCH   1  10
ATOM     10  C   UNL     1       1.382   8.103  19.733  0.00  0.00    +0.000 C 
ATOM     11  O   UNL     1       2.438   8.143  18.763  0.00  0.00    +0.000 OA
ATOM     12  C   UNL     1       2.622   7.194  19.826  0.00  0.00    +0.000 C 
BRANCH  12  13
ATOM     13  C   UNL     1       2.318   5.722  19.646  0.00  0.00    +0.000 A 
ATOM     14  C   UNL     1       1.239   5.209  20.412  0.00  0.00    +0.000 A 
ATOM     15  C   UNL     1       0.798   3.892  20.316  0.00  0.00    +0.000 A 
ATOM     16  C   UNL     1       1.452   3.016  19.466  0.00  0.00    +0.000 A 
ATOM     17  C   UNL     1       2.550   3.462  18.727  0.00  0.00    +0.000 A 
ATOM     18  C   UNL     1       2.993   4.800  18.823  0.00  0.00    +0.000 A 
BRANCH  18  19
ATOM     19  N   UNL     1       4.199   5.164  18.058  0.00  0.00    +0.000 N 
ATOM     20  O   UNL     1       4.070   5.719  16.959  0.00  0.00    +0.000 OA
ATOM     21  O   UNL     1       5.299   4.931  18.582  0.00  0.00    +0.000 OA
ENDBRANCH  18  19
ENDBRANCH  12  13
ENDBRANCH   1  10
BRANCH   1  22
ATOM     22  N   UNL     1       1.258  10.574  19.632  0.00  0.00    +0.000 N 
ATOM     23  C   UNL     1       1.584  11.810  20.239  0.00  0.00    +0.000 C 
ATOM     24  O   UNL     1       1.890  11.898  21.426  0.00  0.00    +0.000 OA
BRANCH  23  25
ATOM     25  C   UNL     1       1.710  13.067  19.437  0.00  0.00    +0.000 A 
ATOM     26  C   UNL     1       2.670  13.248  18.441  0.00  0.00    +0.000 A 
ATOM     27  C   UNL     1       2.797  14.485  17.801  0.00  0.00    +0.000 A 
ATOM     28  C   UNL     1       1.919  15.527  18.103  0.00  0.00    +0.000 A 
ATOM     29  C   UNL     1       0.899  15.328  19.033  0.00  0.00    +0.000 A 
ATOM     30  C   UNL     1       0.794  14.107  19.694  0.00  0.00    +0.000 A 
ENDBRANCH  23  25
BRANCH  22  31
ATOM     31  C   UNL     1       0.528  10.482  18.355  0.00  0.00    +0.000 C 
BRANCH  31  32
ATOM     32  C   UNL     1      -0.956  10.749  18.384  0.00  0.00    +0.000 A 
ATOM     33  C   UNL     1      -1.525  11.782  19.135  0.00  0.00    +0.000 A 
ATOM     34  C   UNL     1      -2.907  11.964  19.160  0.00  0.00    +0.000 A 
ATOM     35  C   UNL     1      -3.736  11.152  18.391  0.00  0.00    +0.000 A 
ATOM     36  C   UNL     1      -3.186  10.134  17.616  0.00  0.00    +0.000 A 
ATOM     37  C   UNL     1      -1.807   9.927  17.620  0.00  0.00    +0.000 A 
ENDBRANCH  31  32
ENDBRANCH  22  31
ENDBRANCH   1  22
TORSDOF 11
ENDMDL
MODEL 6
REMARK VINA RESULT:      -7.7      5.183     11.393
REMARK  Name = 
REMARK  12 active torsions:
REMARK  status: ('A' for Active; 'I' for Inactive)
REMARK    1  A    between atoms: C_1  and  C_2
REMARK    2  A    between atoms: C_2  and  C_3
REMARK    3  A    between atoms: C_3  and  C_4
REMARK    4  A    between atoms: C_4  and  N_5
REMARK    5  A    between atoms: C_6  and  C_8
REMARK    6  A    between atoms: C_8  and  C_9
REMARK    7  A    between atoms: C_8  and  N_21
REMARK    8  A    between atoms: C_11  and  C_12
REMARK    9  A    between atoms: C_17  and  N_18
REMARK   10  A    between atoms: N_21  and  C_22
REMARK   11  A    between atoms: C_22  and  C_23
REMARK   12  A    between atoms: C_29  and  C_31
REMARK                            x       y       z     vdW  Elec       q    Type
REMARK                         _______ _______ _______ _____ _____    ______ ____
ROOT
ATOM      1  C   UNL     1      -1.481  11.934  20.247  0.00  0.00    +0.000 C 
ENDROOT
BRANCH   1   3
ATOM      2  N   UNL     1      -3.750  12.881  20.620  0.00  0.00    +0.000 N 
ATOM      3  C   UNL     1      -2.903  12.269  19.709  0.00  0.00    +0.000 C 
ATOM      4  O   UNL     1      -3.304  11.958  18.590  0.00  0.00    +0.000 OA
ATOM      5  H   UNL     1      -3.489  12.908  21.596  0.00  0.00    +0.000 HD
BRANCH   2   6
ATOM      6  C   UNL     1      -5.103  13.218  20.225  0.00  0.00    +0.000 C 
BRANCH   6   7
ATOM      7  C   UNL     1      -6.118  12.984  21.337  0.00  0.00    +0.000 C 
BRANCH   7   9
ATOM      8  C   UNL     1      -6.004  12.893  23.852  0.00  0.00    +0.000 C 
ATOM      9  C   UNL     1      -5.763  13.744  22.616  0.00  0.00    +0.000 C 
ENDBRANCH   7   9
ENDBRANCH   6   7
ENDBRANCH   2   6
ENDBRANCH   1   3
BRANCH   1  10
ATOM     10  C   UNL     1      -0.736  10.827  19.541  0.00  0.00    +0.000 C 
ATOM     11  O   UNL     1      -0.103  11.162  18.298  0.00  0.00    +0.000 OA
ATOM     12  C   UNL     1       0.788  10.734  19.340  0.00  0.00    +0.000 C 
BRANCH  12  13
ATOM     13  C   UNL     1       1.330   9.323  19.401  0.00  0.00    +0.000 A 
ATOM     14  C   UNL     1       1.851   8.801  18.187  0.00  0.00    +0.000 A 
ATOM     15  C   UNL     1       2.439   7.542  18.091  0.00  0.00    +0.000 A 
ATOM     16  C   UNL     1       2.496   6.731  19.213  0.00  0.00    +0.000 A 
ATOM     17  C   UNL     1       1.955   7.182  20.419  0.00  0.00    +0.000 A 
ATOM     18  C   UNL     1       1.363   8.461  20.514  0.00  0.00    +0.000 A 
BRANCH  18  19
ATOM     19  N   UNL     1       0.759   8.826  21.809  0.00  0.00    +0.000 N 
ATOM     20  O   UNL     1      -0.404   8.475  22.050  0.00  0.00    +0.000 OA
ATOM     21  O   UNL     1       1.471   9.439  22.619  0.00  0.00    +0.000 OA
ENDBRANCH  18  19
ENDBRANCH  12  13
ENDBRANCH   1  10
BRANCH   1  22
ATOM     22  N   UNL     1      -0.592  13.141  20.407  0.00  0.00    +0.000 N 
ATOM     23  C   UNL     1      -0.130  13.451  21.708  0.00  0.00    +0.000 C 
ATOM     24  O   UNL     1      -0.324  12.707  22.668  0.00  0.00    +0.000 OA
BRANCH  23  25
ATOM     25  C   UNL     1       0.742  14.639  21.969  0.00  0.00    +0.000 A 
ATOM     26  C   UNL     1       0.250  15.870  22.403  0.00  0.00    +0.000 A 
ATOM     27  C   UNL     1       1.107  16.968  22.530  0.00  0.00    +0.000 A 
ATOM     28  C   UNL     1       2.474  16.823  22.289  0.00  0.00    +0.000 A 
ATOM     29  C   UNL     1       2.990  15.575  21.941  0.00  0.00    +0.000 A 
ATOM     30  C   UNL     1       2.131  14.490  21.783  0.00  0.00    +0.000 A 
ENDBRANCH  23  25
BRANCH  22  31
ATOM     31  C   UNL     1      -0.720  14.156  19.346  0.00  0.00    +0.000 C 
BRANCH  31  32
ATOM     32  C   UNL     1       0.549  14.796  18.841  0.00  0.00    +0.000 A 
ATOM     33  C   UNL     1       1.674  14.055  18.468  0.00  0.00    +0.000 A 
ATOM     34  C   UNL     1       2.838  14.695  18.043  0.00  0.00    +0.000 A 
ATOM     35  C   UNL     1       2.876  16.082  17.933  0.00  0.00    +0.000 A 
ATOM     36  C   UNL     1       1.756  16.836  18.276  0.00  0.00    +0.000 A 
ATOM     37  C   UNL     1       0.604  16.199  18.737  0.00  0.00    +0.000 A 
ENDBRANCH  31  32
ENDBRANCH  22  31
ENDBRANCH   1  22
TORSDOF 11
ENDMDL
MODEL 7
REMARK VINA RESULT:      -7.7      4.679     10.515
REMARK  Name = 
REMARK  12 active torsions:
REMARK  status: ('A' for Active; 'I' for Inactive)
REMARK    1  A    between atoms: C_1  and  C_2
REMARK    2  A    between atoms: C_2  and  C_3
REMARK    3  A    between atoms: C_3  and  C_4
REMARK    4  A    between atoms: C_4  and  N_5
REMARK    5  A    between atoms: C_6  and  C_8
REMARK    6  A    between atoms: C_8  and  C_9
REMARK    7  A    between atoms: C_8  and  N_21
REMARK    8  A    between atoms: C_11  and  C_12
REMARK    9  A    between atoms: C_17  and  N_18
REMARK   10  A    between atoms: N_21  and  C_22
REMARK   11  A    between atoms: C_22  and  C_23
REMARK   12  A    between atoms: C_29  and  C_31
REMARK                            x       y       z     vdW  Elec       q    Type
REMARK                         _______ _______ _______ _____ _____    ______ ____
ROOT
ATOM      1  C   UNL     1      -0.622  11.522  19.690  0.00  0.00    +0.000 C 
ENDROOT
BRANCH   1   3
ATOM      2  N   UNL     1      -2.604  11.298  18.206  0.00  0.00    +0.000 N 
ATOM      3  C   UNL     1      -2.118  11.831  19.389  0.00  0.00    +0.000 C 
ATOM      4  O   UNL     1      -2.823  12.554  20.088  0.00  0.00    +0.000 OA
ATOM      5  H   UNL     1      -1.954  10.917  17.532  0.00  0.00    +0.000 HD
BRANCH   2   6
ATOM      6  C   UNL     1      -3.981  11.543  17.822  0.00  0.00    +0.000 C 
BRANCH   6   7
ATOM      7  C   UNL     1      -4.225  11.329  16.334  0.00  0.00    +0.000 C 
BRANCH   7   9
ATOM      8  C   UNL     1      -3.406  10.108  14.289  0.00  0.00    +0.000 C 
ATOM      9  C   UNL     1      -3.019  10.703  15.632  0.00  0.00    +0.000 C 
ENDBRANCH   7   9
ENDBRANCH   6   7
ENDBRANCH   2   6
ENDBRANCH   1   3
BRANCH   1  10
ATOM     10  C   UNL     1      -0.079  10.222  19.146  0.00  0.00    +0.000 C 
ATOM     11  O   UNL     1       0.460  10.250  17.817  0.00  0.00    +0.000 OA
ATOM     12  C   UNL     1       1.398   9.903  18.848  0.00  0.00    +0.000 C 
BRANCH  12  13
ATOM     13  C   UNL     1       1.784   8.466  19.128  0.00  0.00    +0.000 A 
ATOM     14  C   UNL     1       2.343   7.746  18.040  0.00  0.00    +0.000 A 
ATOM     15  C   UNL     1       2.802   6.436  18.151  0.00  0.00    +0.000 A 
ATOM     16  C   UNL     1       2.684   5.775  19.362  0.00  0.00    +0.000 A 
ATOM     17  C   UNL     1       2.098   6.426  20.450  0.00  0.00    +0.000 A 
ATOM     18  C   UNL     1       1.637   7.756  20.336  0.00  0.00    +0.000 A 
BRANCH  18  19
ATOM     19  N   UNL     1       0.971   8.340  21.515  0.00  0.00    +0.000 N 
ATOM     20  O   UNL     1       1.626   9.059  22.281  0.00  0.00    +0.000 OA
ATOM     21  O   UNL     1      -0.240   8.111  21.658  0.00  0.00    +0.000 OA
ENDBRANCH  18  19
ENDBRANCH  12  13
ENDBRANCH   1  10
BRANCH   1  22
ATOM     22  N   UNL     1       0.312  12.658  19.356  0.00  0.00    +0.000 N 
ATOM     23  C   UNL     1       1.355  12.942  20.269  0.00  0.00    +0.000 C 
ATOM     24  O   UNL     1       1.593  12.224  21.239  0.00  0.00    +0.000 OA
BRANCH  23  25
ATOM     25  C   UNL     1       2.321  14.060  20.033  0.00  0.00    +0.000 A 
ATOM     26  C   UNL     1       3.132  14.146  18.900  0.00  0.00    +0.000 A 
ATOM     27  C   UNL     1       4.084  15.164  18.790  0.00  0.00    +0.000 A 
ATOM     28  C   UNL     1       4.185  16.143  19.780  0.00  0.00    +0.000 A 
ATOM     29  C   UNL     1       3.319  16.117  20.873  0.00  0.00    +0.000 A 
ATOM     30  C   UNL     1       2.392  15.084  20.998  0.00  0.00    +0.000 A 
ENDBRANCH  23  25
BRANCH  22  31
ATOM     31  C   UNL     1      -0.239  13.670  18.438  0.00  0.00    +0.000 C 
BRANCH  31  32
ATOM     32  C   UNL     1      -0.425  15.067  18.977  0.00  0.00    +0.000 A 
ATOM     33  C   UNL     1       0.088  16.199  18.337  0.00  0.00    +0.000 A 
ATOM     34  C   UNL     1      -0.078  17.466  18.895  0.00  0.00    +0.000 A 
ATOM     35  C   UNL     1      -0.806  17.626  20.071  0.00  0.00    +0.000 A 
ATOM     36  C   UNL     1      -1.346  16.512  20.708  0.00  0.00    +0.000 A 
ATOM     37  C   UNL     1      -1.149  15.240  20.171  0.00  0.00    +0.000 A 
ENDBRANCH  31  32
ENDBRANCH  22  31
ENDBRANCH   1  22
TORSDOF 11
ENDMDL
MODEL 8
REMARK VINA RESULT:      -7.6      7.886     10.934
REMARK  Name = 
REMARK  12 active torsions:
REMARK  status: ('A' for Active; 'I' for Inactive)
REMARK    1  A    between atoms: C_1  and  C_2
REMARK    2  A    between atoms: C_2  and  C_3
REMARK    3  A    between atoms: C_3  and  C_4
REMARK    4  A    between atoms: C_4  and  N_5
REMARK    5  A    between atoms: C_6  and  C_8
REMARK    6  A    between atoms: C_8  and  C_9
REMARK    7  A    between atoms: C_8  and  N_21
REMARK    8  A    between atoms: C_11  and  C_12
REMARK    9  A    between atoms: C_17  and  N_18
REMARK   10  A    between atoms: N_21  and  C_22
REMARK   11  A    between atoms: C_22  and  C_23
REMARK   12  A    between atoms: C_29  and  C_31
REMARK                            x       y       z     vdW  Elec       q    Type
REMARK                         _______ _______ _______ _____ _____    ______ ____
ROOT
ATOM      1  C   UNL     1      -2.336  12.878  19.267  0.00  0.00    +0.000 C 
ENDROOT
BRANCH   1   3
ATOM      2  N   UNL     1      -2.044  11.686  17.105  0.00  0.00    +0.000 N 
ATOM      3  C   UNL     1      -2.696  11.690  18.328  0.00  0.00    +0.000 C 
ATOM      4  O   UNL     1      -3.547  10.843  18.588  0.00  0.00    +0.000 OA
ATOM      5  H   UNL     1      -1.538  12.511  16.812  0.00  0.00    +0.000 HD
BRANCH   2   6
ATOM      6  C   UNL     1      -2.322  10.633  16.148  0.00  0.00    +0.000 C 
BRANCH   6   7
ATOM      7  C   UNL     1      -3.417  11.010  15.158  0.00  0.00    +0.000 C 
BRANCH   7   9
ATOM      8  C   UNL     1      -2.939   9.652  13.090  0.00  0.00    +0.000 C 
ATOM      9  C   UNL     1      -3.851   9.824  14.294  0.00  0.00    +0.000 C 
ENDBRANCH   7   9
ENDBRANCH   6   7
ENDBRANCH   2   6
ENDBRANCH   1   3
BRANCH   1  10
ATOM     10  C   UNL     1      -3.208  13.062  20.487  0.00  0.00    +0.000 C 
ATOM     11  O   UNL     1      -3.310  14.392  21.016  0.00  0.00    +0.000 OA
ATOM     12  C   UNL     1      -4.544  13.825  20.548  0.00  0.00    +0.000 C 
BRANCH  12  13
ATOM     13  C   UNL     1      -5.556  13.217  21.494  0.00  0.00    +0.000 A 
ATOM     14  C   UNL     1      -5.304  13.399  22.879  0.00  0.00    +0.000 A 
ATOM     15  C   UNL     1      -6.169  12.952  23.875  0.00  0.00    +0.000 A 
ATOM     16  C   UNL     1      -7.317  12.263  23.519  0.00  0.00    +0.000 A 
ATOM     17  C   UNL     1      -7.584  12.017  22.170  0.00  0.00    +0.000 A 
ATOM     18  C   UNL     1      -6.707  12.476  21.162  0.00  0.00    +0.000 A 
BRANCH  18  19
ATOM     19  N   UNL     1      -7.034  12.113  19.771  0.00  0.00    +0.000 N 
ATOM     20  O   UNL     1      -7.643  12.927  19.065  0.00  0.00    +0.000 OA
ATOM     21  O   UNL     1      -6.639  11.011  19.361  0.00  0.00    +0.000 OA
ENDBRANCH  18  19
ENDBRANCH  12  13
ENDBRANCH   1  10
BRANCH   1  22
ATOM     22  N   UNL     1      -0.880  12.927  19.656  0.00  0.00    +0.000 N 
ATOM     23  C   UNL     1      -0.203  14.162  19.519  0.00  0.00    +0.000 C 
ATOM     24  O   UNL     1      -0.788  15.202  19.222  0.00  0.00    +0.000 OA
BRANCH  23  25
ATOM     25  C   UNL     1       1.246  14.304  19.862  0.00  0.00    +0.000 A 
ATOM     26  C   UNL     1       1.731  14.269  21.169  0.00  0.00    +0.000 A 
ATOM     27  C   UNL     1       3.085  14.509  21.427  0.00  0.00    +0.000 A 
ATOM     28  C   UNL     1       3.975  14.718  20.372  0.00  0.00    +0.000 A 
ATOM     29  C   UNL     1       3.516  14.667  19.056  0.00  0.00    +0.000 A 
ATOM     30  C   UNL     1       2.162  14.459  18.802  0.00  0.00    +0.000 A 
ENDBRANCH  23  25
BRANCH  22  31
ATOM     31  C   UNL     1      -0.181  11.629  19.623  0.00  0.00    +0.000 C 
BRANCH  31  32
ATOM     32  C   UNL     1      -0.300  10.747  20.841  0.00  0.00    +0.000 A 
ATOM     33  C   UNL     1      -0.573  11.251  22.117  0.00  0.00    +0.000 A 
ATOM     34  C   UNL     1      -0.636  10.399  23.219  0.00  0.00    +0.000 A 
ATOM     35  C   UNL     1      -0.482   9.025  23.053  0.00  0.00    +0.000 A 
ATOM     36  C   UNL     1      -0.236   8.502  21.786  0.00  0.00    +0.000 A 
ATOM     37  C   UNL     1      -0.135   9.357  20.689  0.00  0.00    +0.000 A 
ENDBRANCH  31  32
ENDBRANCH  22  31
ENDBRANCH   1  22
TORSDOF 11
ENDMDL
MODEL 9
REMARK VINA RESULT:      -7.6      5.230      9.197
REMARK  Name = 
REMARK  12 active torsions:
REMARK  status: ('A' for Active; 'I' for Inactive)
REMARK    1  A    between atoms: C_1  and  C_2
REMARK    2  A    between atoms: C_2  and  C_3
REMARK    3  A    between atoms: C_3  and  C_4
REMARK    4  A    between atoms: C_4  and  N_5
REMARK    5  A    between atoms: C_6  and  C_8
REMARK    6  A    between atoms: C_8  and  C_9
REMARK    7  A    between atoms: C_8  and  N_21
REMARK    8  A    between atoms: C_11  and  C_12
REMARK    9  A    between atoms: C_17  and  N_18
REMARK   10  A    between atoms: N_21  and  C_22
REMARK   11  A    between atoms: C_22  and  C_23
REMARK   12  A    between atoms: C_29  and  C_31
REMARK                            x       y       z     vdW  Elec       q    Type
REMARK                         _______ _______ _______ _____ _____    ______ ____
ROOT
ATOM      1  C   UNL     1       0.522  11.907  21.371  0.00  0.00    +0.000 C 
ENDROOT
BRANCH   1   3
ATOM      2  N   UNL     1       0.217  14.194  20.444  0.00  0.00    +0.000 N 
ATOM      3  C   UNL     1       1.131  13.198  20.750  0.00  0.00    +0.000 C 
ATOM      4  O   UNL     1       2.320  13.329  20.468  0.00  0.00    +0.000 OA
ATOM      5  H   UNL     1      -0.770  13.978  20.455  0.00  0.00    +0.000 HD
BRANCH   2   6
ATOM      6  C   UNL     1       0.679  15.430  19.844  0.00  0.00    +0.000 C 
BRANCH   6   7
ATOM      7  C   UNL     1      -0.083  15.791  18.575  0.00  0.00    +0.000 C 
BRANCH   7   9
ATOM      8  C   UNL     1      -0.549  17.981  17.422  0.00  0.00    +0.000 C 
ATOM      9  C   UNL     1      -0.768  17.154  18.678  0.00  0.00    +0.000 C 
ENDBRANCH   7   9
ENDBRANCH   6   7
ENDBRANCH   2   6
ENDBRANCH   1   3
BRANCH   1  10
ATOM     10  C   UNL     1      -0.909  11.997  21.847  0.00  0.00    +0.000 C 
ATOM     11  O   UNL     1      -1.394  10.911  22.649  0.00  0.00    +0.000 OA
ATOM     12  C   UNL     1      -1.377  12.191  23.300  0.00  0.00    +0.000 C 
BRANCH  12  13
ATOM     13  C   UNL     1      -2.625  13.038  23.435  0.00  0.00    +0.000 A 
ATOM     14  C   UNL     1      -3.836  12.334  23.667  0.00  0.00    +0.000 A 
ATOM     15  C   UNL     1      -5.057  12.969  23.871  0.00  0.00    +0.000 A 
ATOM     16  C   UNL     1      -5.122  14.352  23.815  0.00  0.00    +0.000 A 
ATOM     17  C   UNL     1      -3.966  15.087  23.543  0.00  0.00    +0.000 A 
ATOM     18  C   UNL     1      -2.727  14.439  23.340  0.00  0.00    +0.000 A 
BRANCH  18  19
ATOM     19  N   UNL     1      -1.574  15.290  22.993  0.00  0.00    +0.000 N 
ATOM     20  O   UNL     1      -0.507  15.136  23.602  0.00  0.00    +0.000 OA
ATOM     21  O   UNL     1      -1.722  16.100  22.065  0.00  0.00    +0.000 OA
ENDBRANCH  18  19
ENDBRANCH  12  13
ENDBRANCH   1  10
BRANCH   1  22
ATOM     22  N   UNL     1       0.712  10.676  20.521  0.00  0.00    +0.000 N 
ATOM     23  C   UNL     1       1.401   9.581  21.094  0.00  0.00    +0.000 C 
ATOM     24  O   UNL     1       1.728   9.558  22.279  0.00  0.00    +0.000 OA
BRANCH  23  25
ATOM     25  C   UNL     1       1.654   8.324  20.323  0.00  0.00    +0.000 A 
ATOM     26  C   UNL     1       2.090   8.313  18.997  0.00  0.00    +0.000 A 
ATOM     27  C   UNL     1       2.209   7.104  18.304  0.00  0.00    +0.000 A 
ATOM     28  C   UNL     1       1.960   5.894  18.953  0.00  0.00    +0.000 A 
ATOM     29  C   UNL     1       1.610   5.889  20.303  0.00  0.00    +0.000 A 
ATOM     30  C   UNL     1       1.460   7.095  20.984  0.00  0.00    +0.000 A 
ENDBRANCH  23  25
BRANCH  22  31
ATOM     31  C   UNL     1       0.653  10.906  19.066  0.00  0.00    +0.000 C 
BRANCH  31  32
ATOM     32  C   UNL     1      -0.689  10.760  18.395  0.00  0.00    +0.000 A 
ATOM     33  C   UNL     1      -0.982   9.722  17.505  0.00  0.00    +0.000 A 
ATOM     34  C   UNL     1      -2.226   9.651  16.880  0.00  0.00    +0.000 A 
ATOM     35  C   UNL     1      -3.215  10.585  17.177  0.00  0.00    +0.000 A 
ATOM     36  C   UNL     1      -2.950  11.611  18.080  0.00  0.00    +0.000 A 
ATOM     37  C   UNL     1      -1.694  11.705  18.677  0.00  0.00    +0.000 A 
ENDBRANCH  31  32
ENDBRANCH  22  31
ENDBRANCH   1  22
TORSDOF 11
ENDMDL
