MODEL 1
REMARK VINA RESULT:      -8.0      0.000      0.000
REMARK  Name = 
REMARK  9 active torsions:
REMARK  status: ('A' for Active; 'I' for Inactive)
REMARK    1  A    between atoms: N_1  and  C_2
REMARK    2  A    between atoms: C_7  and  N_8
REMARK    3  A    between atoms: C_9  and  C_11
REMARK    4  A    between atoms: C_12  and  C_13
REMARK    5  A    between atoms: C_13  and  C_14
REMARK    6  A    between atoms: C_14  and  C_15
REMARK    7  A    between atoms: C_15  and  N_16
REMARK    8  A    between atoms: C_17  and  C_19
REMARK    9  A    between atoms: C_22  and  N_23
REMARK                            x       y       z     vdW  Elec       q    Type
REMARK                         _______ _______ _______ _____ _____    ______ ____
ROOT
ATOM      1  C   UNL     1       7.224   5.462  17.912  0.00  0.00    +0.000 C 
ENDROOT
BRANCH   1   2
ATOM      2  C   UNL     1       7.170   6.852  17.276  0.00  0.00    +0.000 C 
BRANCH   2   4
ATOM      3  C   UNL     1       8.006   9.256  17.702  0.00  0.00    +0.000 C 
ATOM      4  C   UNL     1       7.946   7.939  17.974  0.00  0.00    +0.000 C 
BRANCH   3   6
ATOM      5  N   UNL     1       9.120  11.377  18.043  0.00  0.00    +0.000 N 
ATOM      6  C   UNL     1       8.888  10.117  18.557  0.00  0.00    +0.000 C 
ATOM      7  O   UNL     1       9.365   9.654  19.586  0.00  0.00    +0.000 OA
ATOM      8  H   UNL     1       8.812  11.571  17.095  0.00  0.00    +0.000 HD
BRANCH   5  14
ATOM      9  C   UNL     1      11.268  12.557  18.264  0.00  0.00    +0.000 A 
ATOM     10  C   UNL     1      12.067  13.474  18.973  0.00  0.00    +0.000 A 
ATOM     11  C   UNL     1      11.527  14.295  19.966  0.00  0.00    +0.000 A 
ATOM     12  C   UNL     1      10.183  14.184  20.285  0.00  0.00    +0.000 A 
ATOM     13  C   UNL     1       9.390  13.242  19.630  0.00  0.00    +0.000 A 
ATOM     14  C   UNL     1       9.917  12.388  18.648  0.00  0.00    +0.000 A 
BRANCH   9  15
ATOM     15  N   UNL     1      11.923  11.682  17.367  0.00  0.00    +0.000 N 
ATOM     16  H   UNL     1      11.751  11.915  16.391  0.00  0.00    +0.000 HD
ATOM     17  H   UNL     1      11.754  10.702  17.537  0.00  0.00    +0.000 HD
ENDBRANCH   9  15
ENDBRANCH   5  14
ENDBRANCH   3   6
ENDBRANCH   2   4
ENDBRANCH   1   2
BRANCH   1  18
ATOM     18  C   UNL     1       5.827   4.934  18.253  0.00  0.00    +0.000 C 
BRANCH  18  19
ATOM     19  N   UNL     1       4.908   6.017  18.578  0.00  0.00    +0.000 N 
ATOM     20  C   UNL     1       3.565   5.981  18.241  0.00  0.00    +0.000 C 
ATOM     21  O   UNL     1       3.043   5.043  17.659  0.00  0.00    +0.000 OA
ATOM     22  H   UNL     1       5.259   6.767  19.157  0.00  0.00    +0.000 HD
BRANCH  20  23
ATOM     23  C   UNL     1       2.748   7.176  18.628  0.00  0.00    +0.000 A 
ATOM     24  C   UNL     1       2.460   8.221  17.746  0.00  0.00    +0.000 A 
ATOM     25  C   UNL     1       1.644   9.296  18.145  0.00  0.00    +0.000 A 
ATOM     26  C   UNL     1       1.057   9.365  19.420  0.00  0.00    +0.000 A 
ATOM     27  C   UNL     1       1.375   8.310  20.293  0.00  0.00    +0.000 A 
ATOM     28  C   UNL     1       2.196   7.231  19.909  0.00  0.00    +0.000 A 
BRANCH  26  29
ATOM     29  N   UNL     1       0.149  10.390  19.743  0.00  0.00    +0.000 N 
ATOM     30  C   UNL     1       0.029  10.779  21.159  0.00  0.00    +0.000 C 
ATOM     31  C   UNL     1      -1.002  11.879  21.409  0.00  0.00    +0.000 C 
ATOM     32  O   UNL     1      -0.781  12.994  20.545  0.00  0.00    +0.000 OA
ATOM     33  C   UNL     1      -0.992  12.609  19.186  0.00  0.00    +0.000 C 
ATOM     34  C   UNL     1      -0.130  11.419  18.714  0.00  0.00    +0.000 C 
ENDBRANCH  26  29
ENDBRANCH  20  23
ENDBRANCH  18  19
ENDBRANCH   1  18
TORSDOF 9
ENDMDL
MODEL 2
REMARK VINA RESULT:      -7.9      1.390      2.173
REMARK  Name = 
REMARK  9 active torsions:
REMARK  status: ('A' for Active; 'I' for Inactive)
REMARK    1  A    between atoms: N_1  and  C_2
REMARK    2  A    between atoms: C_7  and  N_8
REMARK    3  A    between atoms: C_9  and  C_11
REMARK    4  A    between atoms: C_12  and  C_13
REMARK    5  A    between atoms: C_13  and  C_14
REMARK    6  A    between atoms: C_14  and  C_15
REMARK    7  A    between atoms: C_15  and  N_16
REMARK    8  A    between atoms: C_17  and  C_19
REMARK    9  A    between atoms: C_22  and  N_23
REMARK                            x       y       z     vdW  Elec       q    Type
REMARK                         _______ _______ _______ _____ _____    ______ ____
ROOT
ATOM      1  C   UNL     1       5.950   5.739  16.182  0.00  0.00    +0.000 C 
ENDROOT
BRANCH   1   2
ATOM      2  C   UNL     1       7.072   5.933  17.204  0.00  0.00    +0.000 C 
BRANCH   2   4
ATOM      3  C   UNL     1       8.252   7.859  18.452  0.00  0.00    +0.000 C 
ATOM      4  C   UNL     1       7.530   7.349  17.436  0.00  0.00    +0.000 C 
BRANCH   3   6
ATOM      5  N   UNL     1       9.506   9.719  19.358  0.00  0.00    +0.000 N 
ATOM      6  C   UNL     1       8.550   9.329  18.442  0.00  0.00    +0.000 C 
ATOM      7  O   UNL     1       7.922  10.065  17.690  0.00  0.00    +0.000 OA
ATOM      8  H   UNL     1       9.818   9.039  20.043  0.00  0.00    +0.000 HD
BRANCH   5  14
ATOM      9  C   UNL     1       9.778  11.696  20.799  0.00  0.00    +0.000 A 
ATOM     10  C   UNL     1      10.131  13.054  20.921  0.00  0.00    +0.000 A 
ATOM     11  C   UNL     1      10.769  13.736  19.884  0.00  0.00    +0.000 A 
ATOM     12  C   UNL     1      11.034  13.076  18.695  0.00  0.00    +0.000 A 
ATOM     13  C   UNL     1      10.641  11.747  18.537  0.00  0.00    +0.000 A 
ATOM     14  C   UNL     1       9.974  11.048  19.556  0.00  0.00    +0.000 A 
BRANCH   9  15
ATOM     15  N   UNL     1       9.024  11.123  21.849  0.00  0.00    +0.000 N 
ATOM     16  H   UNL     1       9.502  11.166  22.747  0.00  0.00    +0.000 HD
ATOM     17  H   UNL     1       8.688  10.190  21.665  0.00  0.00    +0.000 HD
ENDBRANCH   9  15
ENDBRANCH   5  14
ENDBRANCH   3   6
ENDBRANCH   2   4
ENDBRANCH   1   2
BRANCH   1  18
ATOM     18  C   UNL     1       4.693   5.140  16.819  0.00  0.00    +0.000 C 
BRANCH  18  19
ATOM     19  N   UNL     1       3.789   6.176  17.302  0.00  0.00    +0.000 N 
ATOM     20  C   UNL     1       3.419   6.282  18.633  0.00  0.00    +0.000 C 
ATOM     21  O   UNL     1       3.825   5.529  19.505  0.00  0.00    +0.000 OA
ATOM     22  H   UNL     1       3.511   6.893  16.647  0.00  0.00    +0.000 HD
BRANCH  20  23
ATOM     23  C   UNL     1       2.469   7.389  18.975  0.00  0.00    +0.000 A 
ATOM     24  C   UNL     1       1.944   7.573  20.258  0.00  0.00    +0.000 A 
ATOM     25  C   UNL     1       1.095   8.660  20.539  0.00  0.00    +0.000 A 
ATOM     26  C   UNL     1       0.758   9.624  19.573  0.00  0.00    +0.000 A 
ATOM     27  C   UNL     1       1.287   9.407  18.288  0.00  0.00    +0.000 A 
ATOM     28  C   UNL     1       2.132   8.318  17.992  0.00  0.00    +0.000 A 
BRANCH  26  29
ATOM     29  N   UNL     1       0.009  10.763  19.920  0.00  0.00    +0.000 N 
ATOM     30  C   UNL     1      -0.846  11.364  18.880  0.00  0.00    +0.000 C 
ATOM     31  C   UNL     1      -1.595  12.610  19.347  0.00  0.00    +0.000 C 
ATOM     32  O   UNL     1      -2.298  12.361  20.565  0.00  0.00    +0.000 OA
ATOM     33  C   UNL     1      -1.371  12.087  21.616  0.00  0.00    +0.000 C 
ATOM     34  C   UNL     1      -0.405  10.916  21.333  0.00  0.00    +0.000 C 
ENDBRANCH  26  29
ENDBRANCH  20  23
ENDBRANCH  18  19
ENDBRANCH   1  18
TORSDOF 9
ENDMDL
MODEL 3
REMARK VINA RESULT:      -7.7      0.946      1.298
REMARK  Name = 
REMARK  9 active torsions:
REMARK  status: ('A' for Active; 'I' for Inactive)
REMARK    1  A    between atoms: N_1  and  C_2
REMARK    2  A    between atoms: C_7  and  N_8
REMARK    3  A    between atoms: C_9  and  C_11
REMARK    4  A    between atoms: C_12  and  C_13
REMARK    5  A    between atoms: C_13  and  C_14
REMARK    6  A    between atoms: C_14  and  C_15
REMARK    7  A    between atoms: C_15  and  N_16
REMARK    8  A    between atoms: C_17  and  C_19
REMARK    9  A    between atoms: C_22  and  N_23
REMARK                            x       y       z     vdW  Elec       q    Type
REMARK                         _______ _______ _______ _____ _____    ______ ____
ROOT
ATOM      1  C   UNL     1       6.670   5.470  18.982  0.00  0.00    +0.000 C 
ENDROOT
BRANCH   1   2
ATOM      2  C   UNL     1       7.477   6.203  17.910  0.00  0.00    +0.000 C 
BRANCH   2   4
ATOM      3  C   UNL     1       7.907   8.746  17.796  0.00  0.00    +0.000 C 
ATOM      4  C   UNL     1       8.092   7.517  18.316  0.00  0.00    +0.000 C 
BRANCH   3   6
ATOM      5  N   UNL     1       8.585  11.065  17.669  0.00  0.00    +0.000 N 
ATOM      6  C   UNL     1       8.675   9.889  18.388  0.00  0.00    +0.000 C 
ATOM      7  O   UNL     1       9.344   9.706  19.398  0.00  0.00    +0.000 OA
ATOM      8  H   UNL     1       8.145  11.034  16.755  0.00  0.00    +0.000 HD
BRANCH   5  14
ATOM      9  C   UNL     1      10.598  12.476  17.781  0.00  0.00    +0.000 A 
ATOM     10  C   UNL     1      11.215  13.652  18.247  0.00  0.00    +0.000 A 
ATOM     11  C   UNL     1      10.473  14.686  18.822  0.00  0.00    +0.000 A 
ATOM     12  C   UNL     1       9.103  14.541  18.969  0.00  0.00    +0.000 A 
ATOM     13  C   UNL     1       8.483  13.359  18.562  0.00  0.00    +0.000 A 
ATOM     14  C   UNL     1       9.213  12.296  18.007  0.00  0.00    +0.000 A 
BRANCH   9  15
ATOM     15  N   UNL     1      11.440  11.434  17.329  0.00  0.00    +0.000 N 
ATOM     16  H   UNL     1      12.397  11.743  17.166  0.00  0.00    +0.000 HD
ATOM     17  H   UNL     1      11.087  10.922  16.535  0.00  0.00    +0.000 HD
ENDBRANCH   9  15
ENDBRANCH   5  14
ENDBRANCH   3   6
ENDBRANCH   2   4
ENDBRANCH   1   2
BRANCH   1  18
ATOM     18  C   UNL     1       5.316   4.990  18.451  0.00  0.00    +0.000 C 
BRANCH  18  19
ATOM     19  N   UNL     1       4.233   5.874  18.862  0.00  0.00    +0.000 N 
ATOM     20  C   UNL     1       3.705   6.844  18.026  0.00  0.00    +0.000 C 
ATOM     21  O   UNL     1       4.091   7.029  16.883  0.00  0.00    +0.000 OA
ATOM     22  H   UNL     1       3.798   5.692  19.756  0.00  0.00    +0.000 HD
BRANCH  20  23
ATOM     23  C   UNL     1       2.604   7.687  18.595  0.00  0.00    +0.000 A 
ATOM     24  C   UNL     1       2.154   7.565  19.913  0.00  0.00    +0.000 A 
ATOM     25  C   UNL     1       1.152   8.418  20.414  0.00  0.00    +0.000 A 
ATOM     26  C   UNL     1       0.579   9.443  19.641  0.00  0.00    +0.000 A 
ATOM     27  C   UNL     1       1.038   9.534  18.315  0.00  0.00    +0.000 A 
ATOM     28  C   UNL     1       2.035   8.682  17.800  0.00  0.00    +0.000 A 
BRANCH  26  29
ATOM     29  N   UNL     1      -0.330  10.354  20.211  0.00  0.00    +0.000 N 
ATOM     30  C   UNL     1      -0.043  10.851  21.568  0.00  0.00    +0.000 C 
ATOM     31  C   UNL     1      -1.103  11.811  22.107  0.00  0.00    +0.000 C 
ATOM     32  O   UNL     1      -1.363  12.862  21.176  0.00  0.00    +0.000 OA
ATOM     33  C   UNL     1      -1.939  12.327  19.984  0.00  0.00    +0.000 C 
ATOM     34  C   UNL     1      -1.095  11.233  19.296  0.00  0.00    +0.000 C 
ENDBRANCH  26  29
ENDBRANCH  20  23
ENDBRANCH  18  19
ENDBRANCH   1  18
TORSDOF 9
ENDMDL
MODEL 4
REMARK VINA RESULT:      -7.6      1.542      2.154
REMARK  Name = 
REMARK  9 active torsions:
REMARK  status: ('A' for Active; 'I' for Inactive)
REMARK    1  A    between atoms: N_1  and  C_2
REMARK    2  A    between atoms: C_7  and  N_8
REMARK    3  A    between atoms: C_9  and  C_11
REMARK    4  A    between atoms: C_12  and  C_13
REMARK    5  A    between atoms: C_13  and  C_14
REMARK    6  A    between atoms: C_14  and  C_15
REMARK    7  A    between atoms: C_15  and  N_16
REMARK    8  A    between atoms: C_17  and  C_19
REMARK    9  A    between atoms: C_22  and  N_23
REMARK                            x       y       z     vdW  Elec       q    Type
REMARK                         _______ _______ _______ _____ _____    ______ ____
ROOT
ATOM      1  C   UNL     1       7.597   5.463  17.222  0.00  0.00    +0.000 C 
ENDROOT
BRANCH   1   2
ATOM      2  C   UNL     1       7.597   6.222  18.550  0.00  0.00    +0.000 C 
BRANCH   2   4
ATOM      3  C   UNL     1       7.623   8.707  17.854  0.00  0.00    +0.000 C 
ATOM      4  C   UNL     1       8.109   7.638  18.513  0.00  0.00    +0.000 C 
BRANCH   3   6
ATOM      5  N   UNL     1       9.350  10.012  18.935  0.00  0.00    +0.000 N 
ATOM      6  C   UNL     1       8.355  10.010  17.978  0.00  0.00    +0.000 C 
ATOM      7  O   UNL     1       8.011  10.961  17.287  0.00  0.00    +0.000 OA
ATOM      8  H   UNL     1       9.413   9.215  19.561  0.00  0.00    +0.000 HD
BRANCH   5  14
ATOM      9  C   UNL     1      10.133  11.707  20.538  0.00  0.00    +0.000 A 
ATOM     10  C   UNL     1      10.881  12.875  20.781  0.00  0.00    +0.000 A 
ATOM     11  C   UNL     1      11.760  13.389  19.826  0.00  0.00    +0.000 A 
ATOM     12  C   UNL     1      11.878  12.757  18.598  0.00  0.00    +0.000 A 
ATOM     13  C   UNL     1      11.103  11.631  18.321  0.00  0.00    +0.000 A 
ATOM     14  C   UNL     1      10.192  11.112  19.256  0.00  0.00    +0.000 A 
BRANCH   9  15
ATOM     15  N   UNL     1       9.178  11.332  21.511  0.00  0.00    +0.000 N 
ATOM     16  H   UNL     1       8.441  12.025  21.628  0.00  0.00    +0.000 HD
ATOM     17  H   UNL     1       9.568  11.068  22.403  0.00  0.00    +0.000 HD
ENDBRANCH   9  15
ENDBRANCH   5  14
ENDBRANCH   3   6
ENDBRANCH   2   4
ENDBRANCH   1   2
BRANCH   1  18
ATOM     18  C   UNL     1       6.319   5.719  16.418  0.00  0.00    +0.000 C 
BRANCH  18  19
ATOM     19  N   UNL     1       5.303   6.388  17.220  0.00  0.00    +0.000 N 
ATOM     20  C   UNL     1       4.063   5.826  17.474  0.00  0.00    +0.000 C 
ATOM     21  O   UNL     1       3.726   4.727  17.060  0.00  0.00    +0.000 OA
ATOM     22  H   UNL     1       5.567   7.248  17.681  0.00  0.00    +0.000 HD
BRANCH  20  23
ATOM     23  C   UNL     1       3.117   6.641  18.302  0.00  0.00    +0.000 A 
ATOM     24  C   UNL     1       2.622   6.213  19.537  0.00  0.00    +0.000 A 
ATOM     25  C   UNL     1       1.776   7.040  20.299  0.00  0.00    +0.000 A 
ATOM     26  C   UNL     1       1.412   8.333  19.885  0.00  0.00    +0.000 A 
ATOM     27  C   UNL     1       1.911   8.733  18.633  0.00  0.00    +0.000 A 
ATOM     28  C   UNL     1       2.752   7.912  17.857  0.00  0.00    +0.000 A 
BRANCH  26  29
ATOM     29  N   UNL     1       0.666   9.178  20.727  0.00  0.00    +0.000 N 
ATOM     30  C   UNL     1       0.732   8.931  22.179  0.00  0.00    +0.000 C 
ATOM     31  C   UNL     1      -0.134   9.883  23.003  0.00  0.00    +0.000 C 
ATOM     32  O   UNL     1       0.129  11.243  22.661  0.00  0.00    +0.000 OA
ATOM     33  C   UNL     1      -0.257  11.490  21.308  0.00  0.00    +0.000 C 
ATOM     34  C   UNL     1       0.410  10.563  20.270  0.00  0.00    +0.000 C 
ENDBRANCH  26  29
ENDBRANCH  20  23
ENDBRANCH  18  19
ENDBRANCH   1  18
TORSDOF 9
ENDMDL
MODEL 5
REMARK VINA RESULT:      -7.3      3.613      5.095
REMARK  Name = 
REMARK  9 active torsions:
REMARK  status: ('A' for Active; 'I' for Inactive)
REMARK    1  A    between atoms: N_1  and  C_2
REMARK    2  A    between atoms: C_7  and  N_8
REMARK    3  A    between atoms: C_9  and  C_11
REMARK    4  A    between atoms: C_12  and  C_13
REMARK    5  A    between atoms: C_13  and  C_14
REMARK    6  A    between atoms: C_14  and  C_15
REMARK    7  A    between atoms: C_15  and  N_16
REMARK    8  A    between atoms: C_17  and  C_19
REMARK    9  A    between atoms: C_22  and  N_23
REMARK                            x       y       z     vdW  Elec       q    Type
REMARK                         _______ _______ _______ _____ _____    ______ ____
ROOT
ATOM      1  C   UNL     1       1.362   3.497  18.758  0.00  0.00    +0.000 C 
ENDROOT
BRANCH   1   2
ATOM      2  C   UNL     1       2.277   3.011  17.632  0.00  0.00    +0.000 C 
BRANCH   2   4
ATOM      3  C   UNL     1       4.661   3.426  16.737  0.00  0.00    +0.000 C 
ATOM      4  C   UNL     1       3.566   3.767  17.443  0.00  0.00    +0.000 C 
BRANCH   3   6
ATOM      5  N   UNL     1       5.697   5.429  17.615  0.00  0.00    +0.000 N 
ATOM      6  C   UNL     1       5.828   4.369  16.740  0.00  0.00    +0.000 C 
ATOM      7  O   UNL     1       6.759   4.175  15.968  0.00  0.00    +0.000 OA
ATOM      8  H   UNL     1       4.799   5.570  18.065  0.00  0.00    +0.000 HD
BRANCH   5  14
ATOM      9  C   UNL     1       7.712   6.289  18.735  0.00  0.00    +0.000 A 
ATOM     10  C   UNL     1       8.562   7.378  19.009  0.00  0.00    +0.000 A 
ATOM     11  C   UNL     1       8.450   8.583  18.312  0.00  0.00    +0.000 A 
ATOM     12  C   UNL     1       7.461   8.725  17.352  0.00  0.00    +0.000 A 
ATOM     13  C   UNL     1       6.576   7.675  17.107  0.00  0.00    +0.000 A 
ATOM     14  C   UNL     1       6.653   6.464  17.815  0.00  0.00    +0.000 A 
BRANCH   9  15
ATOM     15  N   UNL     1       7.817   5.156  19.575  0.00  0.00    +0.000 N 
ATOM     16  H   UNL     1       8.557   4.518  19.287  0.00  0.00    +0.000 HD
ATOM     17  H   UNL     1       6.950   4.659  19.720  0.00  0.00    +0.000 HD
ENDBRANCH   9  15
ENDBRANCH   5  14
ENDBRANCH   3   6
ENDBRANCH   2   4
ENDBRANCH   1   2
BRANCH   1  18
ATOM     18  C   UNL     1       2.152   4.149  19.896  0.00  0.00    +0.000 C 
BRANCH  18  19
ATOM     19  N   UNL     1       1.633   5.470  20.224  0.00  0.00    +0.000 N 
ATOM     20  C   UNL     1       2.235   6.638  19.785  0.00  0.00    +0.000 C 
ATOM     21  O   UNL     1       3.234   6.656  19.084  0.00  0.00    +0.000 OA
ATOM     22  H   UNL     1       0.746   5.515  20.706  0.00  0.00    +0.000 HD
BRANCH  20  23
ATOM     23  C   UNL     1       1.594   7.922  20.217  0.00  0.00    +0.000 A 
ATOM     24  C   UNL     1       1.300   8.216  21.551  0.00  0.00    +0.000 A 
ATOM     25  C   UNL     1       0.745   9.459  21.909  0.00  0.00    +0.000 A 
ATOM     26  C   UNL     1       0.488  10.470  20.967  0.00  0.00    +0.000 A 
ATOM     27  C   UNL     1       0.778  10.143  19.630  0.00  0.00    +0.000 A 
ATOM     28  C   UNL     1       1.326   8.900  19.258  0.00  0.00    +0.000 A 
BRANCH  26  29
ATOM     29  N   UNL     1       0.048  11.743  21.375  0.00  0.00    +0.000 N 
ATOM     30  C   UNL     1      -0.791  11.823  22.584  0.00  0.00    +0.000 C 
ATOM     31  C   UNL     1      -1.239  13.243  22.926  0.00  0.00    +0.000 C 
ATOM     32  O   UNL     1      -0.127  14.138  22.964  0.00  0.00    +0.000 OA
ATOM     33  C   UNL     1       0.454  14.250  21.664  0.00  0.00    +0.000 C 
ATOM     34  C   UNL     1       0.896  12.910  21.039  0.00  0.00    +0.000 C 
ENDBRANCH  26  29
ENDBRANCH  20  23
ENDBRANCH  18  19
ENDBRANCH   1  18
TORSDOF 9
ENDMDL
MODEL 6
REMARK VINA RESULT:      -7.3      1.437      1.948
REMARK  Name = 
REMARK  9 active torsions:
REMARK  status: ('A' for Active; 'I' for Inactive)
REMARK    1  A    between atoms: N_1  and  C_2
REMARK    2  A    between atoms: C_7  and  N_8
REMARK    3  A    between atoms: C_9  and  C_11
REMARK    4  A    between atoms: C_12  and  C_13
REMARK    5  A    between atoms: C_13  and  C_14
REMARK    6  A    between atoms: C_14  and  C_15
REMARK    7  A    between atoms: C_15  and  N_16
REMARK    8  A    between atoms: C_17  and  C_19
REMARK    9  A    between atoms: C_22  and  N_23
REMARK                            x       y       z     vdW  Elec       q    Type
REMARK                         _______ _______ _______ _____ _____    ______ ____
ROOT
ATOM      1  C   UNL     1       7.609   4.888  17.561  0.00  0.00    +0.000 C 
ENDROOT
BRANCH   1   2
ATOM      2  C   UNL     1       7.748   5.884  18.714  0.00  0.00    +0.000 C 
BRANCH   2   4
ATOM      3  C   UNL     1       8.578   8.300  19.080  0.00  0.00    +0.000 C 
ATOM      4  C   UNL     1       8.052   7.310  18.334  0.00  0.00    +0.000 C 
BRANCH   3   6
ATOM      5  N   UNL     1       9.762  10.408  19.003  0.00  0.00    +0.000 N 
ATOM      6  C   UNL     1       8.753   9.648  18.447  0.00  0.00    +0.000 C 
ATOM      7  O   UNL     1       7.994   9.994  17.549  0.00  0.00    +0.000 OA
ATOM      8  H   UNL     1      10.196  10.076  19.858  0.00  0.00    +0.000 HD
BRANCH   5  14
ATOM      9  C   UNL     1       9.764  12.842  19.367  0.00  0.00    +0.000 A 
ATOM     10  C   UNL     1      10.034  14.131  18.867  0.00  0.00    +0.000 A 
ATOM     11  C   UNL     1      10.759  14.318  17.689  0.00  0.00    +0.000 A 
ATOM     12  C   UNL     1      11.196  13.214  16.975  0.00  0.00    +0.000 A 
ATOM     13  C   UNL     1      10.889  11.930  17.426  0.00  0.00    +0.000 A 
ATOM     14  C   UNL     1      10.138  11.718  18.594  0.00  0.00    +0.000 A 
BRANCH   9  15
ATOM     15  N   UNL     1       8.918  12.747  20.495  0.00  0.00    +0.000 N 
ATOM     16  H   UNL     1       9.427  12.798  21.376  0.00  0.00    +0.000 HD
ATOM     17  H   UNL     1       8.293  11.954  20.487  0.00  0.00    +0.000 HD
ENDBRANCH   9  15
ENDBRANCH   5  14
ENDBRANCH   3   6
ENDBRANCH   2   4
ENDBRANCH   1   2
BRANCH   1  18
ATOM     18  C   UNL     1       6.145   4.665  17.172  0.00  0.00    +0.000 C 
BRANCH  18  19
ATOM     19  N   UNL     1       5.252   5.551  17.906  0.00  0.00    +0.000 N 
ATOM     20  C   UNL     1       3.875   5.402  17.890  0.00  0.00    +0.000 C 
ATOM     21  O   UNL     1       3.302   4.517  17.273  0.00  0.00    +0.000 OA
ATOM     22  H   UNL     1       5.675   6.231  18.523  0.00  0.00    +0.000 HD
BRANCH  20  23
ATOM     23  C   UNL     1       3.086   6.401  18.682  0.00  0.00    +0.000 A 
ATOM     24  C   UNL     1       2.743   7.664  18.190  0.00  0.00    +0.000 A 
ATOM     25  C   UNL     1       1.957   8.545  18.956  0.00  0.00    +0.000 A 
ATOM     26  C   UNL     1       1.454   8.200  20.222  0.00  0.00    +0.000 A 
ATOM     27  C   UNL     1       1.826   6.931  20.700  0.00  0.00    +0.000 A 
ATOM     28  C   UNL     1       2.619   6.043  19.947  0.00  0.00    +0.000 A 
BRANCH  26  29
ATOM     29  N   UNL     1       0.570   9.056  20.906  0.00  0.00    +0.000 N 
ATOM     30  C   UNL     1       0.682   9.127  22.373  0.00  0.00    +0.000 C 
ATOM     31  C   UNL     1      -0.339  10.061  23.022  0.00  0.00    +0.000 C 
ATOM     32  O   UNL     1      -0.323  11.347  22.404  0.00  0.00    +0.000 OA
ATOM     33  C   UNL     1      -0.749  11.241  21.045  0.00  0.00    +0.000 C 
ATOM     34  C   UNL     1       0.071  10.252  20.189  0.00  0.00    +0.000 C 
ENDBRANCH  26  29
ENDBRANCH  20  23
ENDBRANCH  18  19
ENDBRANCH   1  18
TORSDOF 9
ENDMDL
MODEL 7
REMARK VINA RESULT:      -7.3      4.541      8.219
REMARK  Name = 
REMARK  9 active torsions:
REMARK  status: ('A' for Active; 'I' for Inactive)
REMARK    1  A    between atoms: N_1  and  C_2
REMARK    2  A    between atoms: C_7  and  N_8
REMARK    3  A    between atoms: C_9  and  C_11
REMARK    4  A    between atoms: C_12  and  C_13
REMARK    5  A    between atoms: C_13  and  C_14
REMARK    6  A    between atoms: C_14  and  C_15
REMARK    7  A    between atoms: C_15  and  N_16
REMARK    8  A    between atoms: C_17  and  C_19
REMARK    9  A    between atoms: C_22  and  N_23
REMARK                            x       y       z     vdW  Elec       q    Type
REMARK                         _______ _______ _______ _____ _____    ______ ____
ROOT
ATOM      1  C   UNL     1       0.132   9.915  22.813  0.00  0.00    +0.000 C 
ENDROOT
BRANCH   1   2
ATOM      2  C   UNL     1      -0.707  11.194  22.779  0.00  0.00    +0.000 C 
BRANCH   2   4
ATOM      3  C   UNL     1      -0.793  12.728  20.705  0.00  0.00    +0.000 C 
ATOM      4  C   UNL     1      -0.237  12.280  21.846  0.00  0.00    +0.000 C 
BRANCH   3   6
ATOM      5  N   UNL     1       1.287  13.755  20.020  0.00  0.00    +0.000 N 
ATOM      6  C   UNL     1      -0.090  13.819  19.954  0.00  0.00    +0.000 C 
ATOM      7  O   UNL     1      -0.751  14.687  19.395  0.00  0.00    +0.000 OA
ATOM      8  H   UNL     1       1.705  13.091  20.664  0.00  0.00    +0.000 HD
BRANCH   5  14
ATOM      9  C   UNL     1       2.782  14.342  18.155  0.00  0.00    +0.000 A 
ATOM     10  C   UNL     1       3.773  15.196  17.633  0.00  0.00    +0.000 A 
ATOM     11  C   UNL     1       4.101  16.399  18.259  0.00  0.00    +0.000 A 
ATOM     12  C   UNL     1       3.463  16.750  19.438  0.00  0.00    +0.000 A 
ATOM     13  C   UNL     1       2.518  15.889  19.998  0.00  0.00    +0.000 A 
ATOM     14  C   UNL     1       2.192  14.661  19.401  0.00  0.00    +0.000 A 
BRANCH   9  15
ATOM     15  N   UNL     1       2.605  13.089  17.525  0.00  0.00    +0.000 N 
ATOM     16  H   UNL     1       1.869  13.100  16.821  0.00  0.00    +0.000 HD
ATOM     17  H   UNL     1       2.486  12.312  18.158  0.00  0.00    +0.000 HD
ENDBRANCH   9  15
ENDBRANCH   5  14
ENDBRANCH   3   6
ENDBRANCH   2   4
ENDBRANCH   1   2
BRANCH   1  18
ATOM     18  C   UNL     1      -0.497   8.796  21.977  0.00  0.00    +0.000 C 
BRANCH  18  19
ATOM     19  N   UNL     1       0.507   8.066  21.214  0.00  0.00    +0.000 N 
ATOM     20  C   UNL     1       1.064   8.563  20.048  0.00  0.00    +0.000 C 
ATOM     21  O   UNL     1       0.771   9.650  19.573  0.00  0.00    +0.000 OA
ATOM     22  H   UNL     1       0.869   7.214  21.618  0.00  0.00    +0.000 HD
BRANCH  20  23
ATOM     23  C   UNL     1       2.073   7.690  19.365  0.00  0.00    +0.000 A 
ATOM     24  C   UNL     1       2.713   8.052  18.176  0.00  0.00    +0.000 A 
ATOM     25  C   UNL     1       3.692   7.217  17.603  0.00  0.00    +0.000 A 
ATOM     26  C   UNL     1       4.096   6.010  18.198  0.00  0.00    +0.000 A 
ATOM     27  C   UNL     1       3.425   5.662  19.384  0.00  0.00    +0.000 A 
ATOM     28  C   UNL     1       2.439   6.485  19.964  0.00  0.00    +0.000 A 
BRANCH  26  29
ATOM     29  N   UNL     1       5.162   5.263  17.664  0.00  0.00    +0.000 N 
ATOM     30  C   UNL     1       5.168   5.020  16.211  0.00  0.00    +0.000 C 
ATOM     31  C   UNL     1       6.349   4.176  15.734  0.00  0.00    +0.000 C 
ATOM     32  O   UNL     1       7.585   4.708  16.211  0.00  0.00    +0.000 OA
ATOM     33  C   UNL     1       7.636   4.623  17.635  0.00  0.00    +0.000 C 
ATOM     34  C   UNL     1       6.466   5.316  18.364  0.00  0.00    +0.000 C 
ENDBRANCH  26  29
ENDBRANCH  20  23
ENDBRANCH  18  19
ENDBRANCH   1  18
TORSDOF 9
ENDMDL
MODEL 8
REMARK VINA RESULT:      -7.2      5.352      6.772
REMARK  Name = 
REMARK  9 active torsions:
REMARK  status: ('A' for Active; 'I' for Inactive)
REMARK    1  A    between atoms: N_1  and  C_2
REMARK    2  A    between atoms: C_7  and  N_8
REMARK    3  A    between atoms: C_9  and  C_11
REMARK    4  A    between atoms: C_12  and  C_13
REMARK    5  A    between atoms: C_13  and  C_14
REMARK    6  A    between atoms: C_14  and  C_15
REMARK    7  A    between atoms: C_15  and  N_16
REMARK    8  A    between atoms: C_17  and  C_19
REMARK    9  A    between atoms: C_22  and  N_23
REMARK                            x       y       z     vdW  Elec       q    Type
REMARK                         _______ _______ _______ _____ _____    ______ ____
ROOT
ATOM      1  C   UNL     1       1.699   2.503  19.847  0.00  0.00    +0.000 C 
ENDROOT
BRANCH   1   2
ATOM      2  C   UNL     1       1.491   3.120  18.463  0.00  0.00    +0.000 C 
BRANCH   2   4
ATOM      3  C   UNL     1       3.874   3.542  17.567  0.00  0.00    +0.000 C 
ATOM      4  C   UNL     1       2.641   3.005  17.497  0.00  0.00    +0.000 C 
BRANCH   3   6
ATOM      5  N   UNL     1       4.979   4.340  15.568  0.00  0.00    +0.000 N 
ATOM      6  C   UNL     1       4.826   3.280  16.438  0.00  0.00    +0.000 C 
ATOM      7  O   UNL     1       5.349   2.176  16.337  0.00  0.00    +0.000 OA
ATOM      8  H   UNL     1       4.352   5.133  15.665  0.00  0.00    +0.000 HD
BRANCH   5  14
ATOM      9  C   UNL     1       7.050   5.051  14.446  0.00  0.00    +0.000 A 
ATOM     10  C   UNL     1       7.794   5.163  13.255  0.00  0.00    +0.000 A 
ATOM     11  C   UNL     1       7.397   4.513  12.085  0.00  0.00    +0.000 A 
ATOM     12  C   UNL     1       6.229   3.767  12.082  0.00  0.00    +0.000 A 
ATOM     13  C   UNL     1       5.452   3.691  13.238  0.00  0.00    +0.000 A 
ATOM     14  C   UNL     1       5.817   4.358  14.419  0.00  0.00    +0.000 A 
BRANCH   9  15
ATOM     15  N   UNL     1       7.458   5.843  15.544  0.00  0.00    +0.000 N 
ATOM     16  H   UNL     1       7.048   6.775  15.533  0.00  0.00    +0.000 HD
ATOM     17  H   UNL     1       8.457   5.891  15.680  0.00  0.00    +0.000 HD
ENDBRANCH   9  15
ENDBRANCH   5  14
ENDBRANCH   3   6
ENDBRANCH   2   4
ENDBRANCH   1   2
BRANCH   1  18
ATOM     18  C   UNL     1       2.187   3.536  20.866  0.00  0.00    +0.000 C 
BRANCH  18  19
ATOM     19  N   UNL     1       1.843   4.893  20.463  0.00  0.00    +0.000 N 
ATOM     20  C   UNL     1       2.789   5.798  20.011  0.00  0.00    +0.000 C 
ATOM     21  O   UNL     1       3.976   5.533  19.903  0.00  0.00    +0.000 OA
ATOM     22  H   UNL     1       0.863   5.133  20.425  0.00  0.00    +0.000 HD
BRANCH  20  23
ATOM     23  C   UNL     1       2.287   7.163  19.647  0.00  0.00    +0.000 A 
ATOM     24  C   UNL     1       2.497   7.743  18.393  0.00  0.00    +0.000 A 
ATOM     25  C   UNL     1       1.959   9.007  18.086  0.00  0.00    +0.000 A 
ATOM     26  C   UNL     1       1.168   9.732  18.994  0.00  0.00    +0.000 A 
ATOM     27  C   UNL     1       0.985   9.133  20.253  0.00  0.00    +0.000 A 
ATOM     28  C   UNL     1       1.524   7.872  20.576  0.00  0.00    +0.000 A 
BRANCH  26  29
ATOM     29  N   UNL     1       0.546  10.934  18.610  0.00  0.00    +0.000 N 
ATOM     30  C   UNL     1      -0.926  10.952  18.542  0.00  0.00    +0.000 C 
ATOM     31  C   UNL     1      -1.502  12.293  18.089  0.00  0.00    +0.000 C 
ATOM     32  O   UNL     1      -0.971  13.368  18.863  0.00  0.00    +0.000 OA
ATOM     33  C   UNL     1       0.433  13.487  18.634  0.00  0.00    +0.000 C 
ATOM     34  C   UNL     1       1.243  12.204  18.917  0.00  0.00    +0.000 C 
ENDBRANCH  26  29
ENDBRANCH  20  23
ENDBRANCH  18  19
ENDBRANCH   1  18
TORSDOF 9
ENDMDL
MODEL 9
REMARK VINA RESULT:      -7.2      1.213      1.342
REMARK  Name = 
REMARK  9 active torsions:
REMARK  status: ('A' for Active; 'I' for Inactive)
REMARK    1  A    between atoms: N_1  and  C_2
REMARK    2  A    between atoms: C_7  and  N_8
REMARK    3  A    between atoms: C_9  and  C_11
REMARK    4  A    between atoms: C_12  and  C_13
REMARK    5  A    between atoms: C_13  and  C_14
REMARK    6  A    between atoms: C_14  and  C_15
REMARK    7  A    between atoms: C_15  and  N_16
REMARK    8  A    between atoms: C_17  and  C_19
REMARK    9  A    between atoms: C_22  and  N_23
REMARK                            x       y       z     vdW  Elec       q    Type
REMARK                         _______ _______ _______ _____ _____    ______ ____
ROOT
ATOM      1  C   UNL     1       6.643   5.169  16.722  0.00  0.00    +0.000 C 
ENDROOT
BRANCH   1   2
ATOM      2  C   UNL     1       7.019   5.616  18.136  0.00  0.00    +0.000 C 
BRANCH   2   4
ATOM      3  C   UNL     1       8.410   7.784  17.980  0.00  0.00    +0.000 C 
ATOM      4  C   UNL     1       7.313   7.082  18.320  0.00  0.00    +0.000 C 
BRANCH   3   6
ATOM      5  N   UNL     1       9.420   9.603  19.216  0.00  0.00    +0.000 N 
ATOM      6  C   UNL     1       8.444   9.248  18.306  0.00  0.00    +0.000 C 
ATOM      7  O   UNL     1       7.613   9.995  17.805  0.00  0.00    +0.000 OA
ATOM      8  H   UNL     1       9.925   8.861  19.690  0.00  0.00    +0.000 HD
BRANCH   5  14
ATOM      9  C   UNL     1      10.364  11.852  18.892  0.00  0.00    +0.000 A 
ATOM     10  C   UNL     1      10.712  13.100  19.446  0.00  0.00    +0.000 A 
ATOM     11  C   UNL     1      10.290  13.473  20.723  0.00  0.00    +0.000 A 
ATOM     12  C   UNL     1       9.539  12.587  21.478  0.00  0.00    +0.000 A 
ATOM     13  C   UNL     1       9.232  11.326  20.967  0.00  0.00    +0.000 A 
ATOM     14  C   UNL     1       9.669  10.918  19.697  0.00  0.00    +0.000 A 
BRANCH   9  15
ATOM     15  N   UNL     1      10.940  11.510  17.647  0.00  0.00    +0.000 N 
ATOM     16  H   UNL     1      11.120  10.511  17.557  0.00  0.00    +0.000 HD
ATOM     17  H   UNL     1      11.759  12.046  17.401  0.00  0.00    +0.000 HD
ENDBRANCH   9  15
ENDBRANCH   5  14
ENDBRANCH   3   6
ENDBRANCH   2   4
ENDBRANCH   1   2
BRANCH   1  18
ATOM     18  C   UNL     1       5.135   4.946  16.576  0.00  0.00    +0.000 C 
BRANCH  18  19
ATOM     19  N   UNL     1       4.371   6.073  17.094  0.00  0.00    +0.000 N 
ATOM     20  C   UNL     1       3.360   5.922  18.028  0.00  0.00    +0.000 C 
ATOM     21  O   UNL     1       3.036   4.843  18.499  0.00  0.00    +0.000 OA
ATOM     22  H   UNL     1       4.669   7.000  16.825  0.00  0.00    +0.000 HD
BRANCH  20  23
ATOM     23  C   UNL     1       2.653   7.173  18.454  0.00  0.00    +0.000 A 
ATOM     24  C   UNL     1       2.390   8.234  17.583  0.00  0.00    +0.000 A 
ATOM     25  C   UNL     1       1.676   9.365  18.022  0.00  0.00    +0.000 A 
ATOM     26  C   UNL     1       1.168   9.477  19.327  0.00  0.00    +0.000 A 
ATOM     27  C   UNL     1       1.459   8.403  20.187  0.00  0.00    +0.000 A 
ATOM     28  C   UNL     1       2.179   7.269  19.763  0.00  0.00    +0.000 A 
BRANCH  26  29
ATOM     29  N   UNL     1       0.355  10.565  19.695  0.00  0.00    +0.000 N 
ATOM     30  C   UNL     1       0.980  11.663  20.452  0.00  0.00    +0.000 C 
ATOM     31  C   UNL     1       0.009  12.781  20.828  0.00  0.00    +0.000 C 
ATOM     32  O   UNL     1      -0.713  13.239  19.684  0.00  0.00    +0.000 OA
ATOM     33  C   UNL     1      -1.548  12.194  19.183  0.00  0.00    +0.000 C 
ATOM     34  C   UNL     1      -0.802  10.890  18.829  0.00  0.00    +0.000 C 
ENDBRANCH  26  29
ENDBRANCH  20  23
ENDBRANCH  18  19
ENDBRANCH   1  18
TORSDOF 9
ENDMDL
