MODEL 1
REMARK VINA RESULT:      -7.3      0.000      0.000
REMARK  Name = 
REMARK  5 active torsions:
REMARK  status: ('A' for Active; 'I' for Inactive)
REMARK    1  A    between atoms: C_2  and  C_3
REMARK    2  A    between atoms: C_15  and  C_16
REMARK    3  A    between atoms: C_16  and  O_17
REMARK    4  A    between atoms: O_17  and  C_18
REMARK    5  A    between atoms: C_18  and  C_19
REMARK                            x       y       z     vdW  Elec       q    Type
REMARK                         _______ _______ _______ _____ _____    ______ ____
ROOT
ATOM      1  O   UNL     1       5.832   3.807  15.860  0.00  0.00    +0.000 OA
ATOM      2  C   UNL     1       5.572   4.267  16.974  0.00  0.00    +0.000 C 
ATOM      3  N   UNL     1       4.416   3.888  17.698  0.00  0.00    +0.000 N 
ATOM      4  C   UNL     1       3.557   2.902  17.035  0.00  0.00    +0.000 C 
ATOM      5  C   UNL     1       2.475   2.278  17.916  0.00  0.00    +0.000 C 
ATOM      6  N   UNL     1       1.963   3.210  18.890  0.00  0.00    +0.000 N 
ATOM      7  C   UNL     1       0.861   3.070  19.677  0.00  0.00    +0.000 A 
ATOM      8  N   UNL     1       0.707   4.108  20.469  0.00  0.00    +0.000 NA
ATOM      9  C   UNL     1       1.769   4.945  20.191  0.00  0.00    +0.000 A 
ATOM     10  C   UNL     1       2.561   4.392  19.198  0.00  0.00    +0.000 A 
ATOM     11  C   UNL     1       3.760   4.910  18.523  0.00  0.00    +0.000 C 
ENDROOT
BRANCH   2  12
ATOM     12  C   UNL     1       6.505   5.287  17.561  0.00  0.00    +0.000 A 
ATOM     13  C   UNL     1       6.652   6.523  16.940  0.00  0.00    +0.000 A 
ATOM     14  C   UNL     1       7.521   7.448  17.516  0.00  0.00    +0.000 A 
ATOM     15  C   UNL     1       8.213   7.107  18.673  0.00  0.00    +0.000 A 
ATOM     16  C   UNL     1       8.013   5.847  19.214  0.00  0.00    +0.000 A 
ATOM     17  N   UNL     1       7.184   4.930  18.682  0.00  0.00    +0.000 NA
ENDBRANCH   2  12
BRANCH   9  18
ATOM     18  C   UNL     1       1.913   6.278  20.850  0.00  0.00    +0.000 C 
BRANCH  18  19
ATOM     19  O   UNL     1       2.034   7.358  19.910  0.00  0.00    +0.000 OA
BRANCH  19  20
ATOM     20  C   UNL     1       1.227   8.475  20.283  0.00  0.00    +0.000 C 
BRANCH  20  21
ATOM     21  C   UNL     1       1.396   9.555  19.260  0.00  0.00    +0.000 C 
ATOM     22  C   UNL     1       1.418   9.241  17.784  0.00  0.00    +0.000 C 
ATOM     23  C   UNL     1       0.232   9.944  18.381  0.00  0.00    +0.000 C 
ENDBRANCH  20  21
ENDBRANCH  19  20
ENDBRANCH  18  19
ENDBRANCH   9  18
TORSDOF 5
ENDMDL
MODEL 2
REMARK VINA RESULT:      -7.2      1.144      1.531
REMARK  Name = 
REMARK  5 active torsions:
REMARK  status: ('A' for Active; 'I' for Inactive)
REMARK    1  A    between atoms: C_2  and  C_3
REMARK    2  A    between atoms: C_15  and  C_16
REMARK    3  A    between atoms: C_16  and  O_17
REMARK    4  A    between atoms: O_17  and  C_18
REMARK    5  A    between atoms: C_18  and  C_19
REMARK                            x       y       z     vdW  Elec       q    Type
REMARK                         _______ _______ _______ _____ _____    ______ ____
ROOT
ATOM      1  O   UNL     1       5.774   3.767  15.889  0.00  0.00    +0.000 OA
ATOM      2  C   UNL     1       5.543   4.212  17.016  0.00  0.00    +0.000 C 
ATOM      3  N   UNL     1       4.401   3.827  17.761  0.00  0.00    +0.000 N 
ATOM      4  C   UNL     1       3.522   2.855  17.103  0.00  0.00    +0.000 C 
ATOM      5  C   UNL     1       2.458   2.224  18.001  0.00  0.00    +0.000 C 
ATOM      6  N   UNL     1       1.973   3.144  18.999  0.00  0.00    +0.000 N 
ATOM      7  C   UNL     1       0.889   2.997  19.809  0.00  0.00    +0.000 A 
ATOM      8  N   UNL     1       0.759   4.025  20.619  0.00  0.00    +0.000 NA
ATOM      9  C   UNL     1       1.818   4.860  20.329  0.00  0.00    +0.000 A 
ATOM     10  C   UNL     1       2.584   4.319  19.310  0.00  0.00    +0.000 A 
ATOM     11  C   UNL     1       3.770   4.841  18.615  0.00  0.00    +0.000 C 
ENDROOT
BRANCH   2  12
ATOM     12  C   UNL     1       6.494   5.218  17.596  0.00  0.00    +0.000 A 
ATOM     13  C   UNL     1       6.642   6.458  16.983  0.00  0.00    +0.000 A 
ATOM     14  C   UNL     1       7.528   7.370  17.552  0.00  0.00    +0.000 A 
ATOM     15  C   UNL     1       8.236   7.014  18.695  0.00  0.00    +0.000 A 
ATOM     16  C   UNL     1       8.034   5.751  19.228  0.00  0.00    +0.000 A 
ATOM     17  N   UNL     1       7.188   4.846  18.702  0.00  0.00    +0.000 NA
ENDBRANCH   2  12
BRANCH   9  18
ATOM     18  C   UNL     1       1.984   6.183  21.004  0.00  0.00    +0.000 C 
BRANCH  18  19
ATOM     19  O   UNL     1       1.100   7.191  20.486  0.00  0.00    +0.000 OA
BRANCH  19  20
ATOM     20  C   UNL     1       1.280   8.442  21.150  0.00  0.00    +0.000 C 
BRANCH  20  21
ATOM     21  C   UNL     1      -0.038   8.888  21.703  0.00  0.00    +0.000 C 
ATOM     22  C   UNL     1      -0.146   9.491  23.082  0.00  0.00    +0.000 C 
ATOM     23  C   UNL     1      -0.321  10.362  21.870  0.00  0.00    +0.000 C 
ENDBRANCH  20  21
ENDBRANCH  19  20
ENDBRANCH  18  19
ENDBRANCH   9  18
TORSDOF 5
ENDMDL
MODEL 3
REMARK VINA RESULT:      -7.1      1.033      1.720
REMARK  Name = 
REMARK  5 active torsions:
REMARK  status: ('A' for Active; 'I' for Inactive)
REMARK    1  A    between atoms: C_2  and  C_3
REMARK    2  A    between atoms: C_15  and  C_16
REMARK    3  A    between atoms: C_16  and  O_17
REMARK    4  A    between atoms: O_17  and  C_18
REMARK    5  A    between atoms: C_18  and  C_19
REMARK                            x       y       z     vdW  Elec       q    Type
REMARK                         _______ _______ _______ _____ _____    ______ ____
ROOT
ATOM      1  O   UNL     1       5.808   4.058  15.627  0.00  0.00    +0.000 OA
ATOM      2  C   UNL     1       5.557   4.501  16.750  0.00  0.00    +0.000 C 
ATOM      3  N   UNL     1       4.428   4.081  17.494  0.00  0.00    +0.000 N 
ATOM      4  C   UNL     1       3.587   3.073  16.841  0.00  0.00    +0.000 C 
ATOM      5  C   UNL     1       2.543   2.410  17.739  0.00  0.00    +0.000 C 
ATOM      6  N   UNL     1       2.023   3.318  18.731  0.00  0.00    +0.000 N 
ATOM      7  C   UNL     1       0.942   3.137  19.539  0.00  0.00    +0.000 A 
ATOM      8  N   UNL     1       0.773   4.165  20.342  0.00  0.00    +0.000 NA
ATOM      9  C   UNL     1       1.802   5.036  20.049  0.00  0.00    +0.000 A 
ATOM     10  C   UNL     1       2.590   4.516  19.036  0.00  0.00    +0.000 A 
ATOM     11  C   UNL     1       3.759   5.076  18.341  0.00  0.00    +0.000 C 
ENDROOT
BRANCH   2  12
ATOM     12  C   UNL     1       6.470   5.545  17.325  0.00  0.00    +0.000 A 
ATOM     13  C   UNL     1       7.256   5.237  18.432  0.00  0.00    +0.000 A 
ATOM     14  C   UNL     1       8.097   6.228  18.936  0.00  0.00    +0.000 A 
ATOM     15  C   UNL     1       8.117   7.480  18.331  0.00  0.00    +0.000 A 
ATOM     16  C   UNL     1       7.289   7.699  17.242  0.00  0.00    +0.000 A 
ATOM     17  N   UNL     1       6.464   6.766  16.732  0.00  0.00    +0.000 NA
ENDBRANCH   2  12
BRANCH   9  18
ATOM     18  C   UNL     1       1.918   6.368  20.716  0.00  0.00    +0.000 C 
BRANCH  18  19
ATOM     19  O   UNL     1       2.101   7.447  19.784  0.00  0.00    +0.000 OA
BRANCH  19  20
ATOM     20  C   UNL     1       1.268   8.563  20.101  0.00  0.00    +0.000 C 
BRANCH  20  21
ATOM     21  C   UNL     1       0.939   8.520  21.560  0.00  0.00    +0.000 C 
ATOM     22  C   UNL     1       0.573   9.772  22.319  0.00  0.00    +0.000 C 
ATOM     23  C   UNL     1      -0.482   8.747  22.016  0.00  0.00    +0.000 C 
ENDBRANCH  20  21
ENDBRANCH  19  20
ENDBRANCH  18  19
ENDBRANCH   9  18
TORSDOF 5
ENDMDL
MODEL 4
REMARK VINA RESULT:      -7.1      3.187      5.634
REMARK  Name = 
REMARK  5 active torsions:
REMARK  status: ('A' for Active; 'I' for Inactive)
REMARK    1  A    between atoms: C_2  and  C_3
REMARK    2  A    between atoms: C_15  and  C_16
REMARK    3  A    between atoms: C_16  and  O_17
REMARK    4  A    between atoms: O_17  and  C_18
REMARK    5  A    between atoms: C_18  and  C_19
REMARK                            x       y       z     vdW  Elec       q    Type
REMARK                         _______ _______ _______ _____ _____    ______ ____
ROOT
ATOM      1  O   UNL     1       8.074   5.443  13.784  0.00  0.00    +0.000 OA
ATOM      2  C   UNL     1       7.023   4.891  14.117  0.00  0.00    +0.000 C 
ATOM      3  N   UNL     1       6.459   5.053  15.406  0.00  0.00    +0.000 N 
ATOM      4  C   UNL     1       7.206   5.933  16.311  0.00  0.00    +0.000 C 
ATOM      5  C   UNL     1       6.467   6.339  17.586  0.00  0.00    +0.000 C 
ATOM      6  N   UNL     1       5.606   5.290  18.073  0.00  0.00    +0.000 N 
ATOM      7  C   UNL     1       4.979   5.221  19.280  0.00  0.00    +0.000 A 
ATOM      8  N   UNL     1       4.250   4.131  19.375  0.00  0.00    +0.000 NA
ATOM      9  C   UNL     1       4.401   3.480  18.167  0.00  0.00    +0.000 A 
ATOM     10  C   UNL     1       5.253   4.197  17.345  0.00  0.00    +0.000 A 
ATOM     11  C   UNL     1       5.767   3.902  15.999  0.00  0.00    +0.000 C 
ENDROOT
BRANCH   2  12
ATOM     12  C   UNL     1       6.342   3.994  13.124  0.00  0.00    +0.000 A 
ATOM     13  C   UNL     1       7.100   3.111  12.362  0.00  0.00    +0.000 A 
ATOM     14  C   UNL     1       6.434   2.288  11.455  0.00  0.00    +0.000 A 
ATOM     15  C   UNL     1       5.052   2.381  11.335  0.00  0.00    +0.000 A 
ATOM     16  C   UNL     1       4.382   3.300  12.127  0.00  0.00    +0.000 A 
ATOM     17  N   UNL     1       4.994   4.111  13.010  0.00  0.00    +0.000 NA
ENDBRANCH   2  12
BRANCH   9  18
ATOM     18  C   UNL     1       3.769   2.150  17.907  0.00  0.00    +0.000 C 
BRANCH  18  19
ATOM     19  O   UNL     1       2.735   1.827  18.852  0.00  0.00    +0.000 OA
BRANCH  19  20
ATOM     20  C   UNL     1       1.480   2.391  18.471  0.00  0.00    +0.000 C 
BRANCH  20  21
ATOM     21  C   UNL     1       0.710   2.733  19.709  0.00  0.00    +0.000 C 
ATOM     22  C   UNL     1       1.388   2.825  21.054  0.00  0.00    +0.000 C 
ATOM     23  C   UNL     1       0.911   4.075  20.371  0.00  0.00    +0.000 C 
ENDBRANCH  20  21
ENDBRANCH  19  20
ENDBRANCH  18  19
ENDBRANCH   9  18
TORSDOF 5
ENDMDL
MODEL 5
REMARK VINA RESULT:      -6.9      3.256      5.662
REMARK  Name = 
REMARK  5 active torsions:
REMARK  status: ('A' for Active; 'I' for Inactive)
REMARK    1  A    between atoms: C_2  and  C_3
REMARK    2  A    between atoms: C_15  and  C_16
REMARK    3  A    between atoms: C_16  and  O_17
REMARK    4  A    between atoms: O_17  and  C_18
REMARK    5  A    between atoms: C_18  and  C_19
REMARK                            x       y       z     vdW  Elec       q    Type
REMARK                         _______ _______ _______ _____ _____    ______ ____
ROOT
ATOM      1  O   UNL     1       7.869   5.485  13.571  0.00  0.00    +0.000 OA
ATOM      2  C   UNL     1       6.844   4.909  13.945  0.00  0.00    +0.000 C 
ATOM      3  N   UNL     1       6.321   5.069  15.251  0.00  0.00    +0.000 N 
ATOM      4  C   UNL     1       7.075   5.977  16.121  0.00  0.00    +0.000 C 
ATOM      5  C   UNL     1       6.371   6.376  17.418  0.00  0.00    +0.000 C 
ATOM      6  N   UNL     1       5.554   5.309  17.943  0.00  0.00    +0.000 N 
ATOM      7  C   UNL     1       4.972   5.236  19.171  0.00  0.00    +0.000 A 
ATOM      8  N   UNL     1       4.275   4.128  19.301  0.00  0.00    +0.000 NA
ATOM      9  C   UNL     1       4.401   3.470  18.095  0.00  0.00    +0.000 A 
ATOM     10  C   UNL     1       5.206   4.200  17.237  0.00  0.00    +0.000 A 
ATOM     11  C   UNL     1       5.681   3.906  15.877  0.00  0.00    +0.000 C 
ENDROOT
BRANCH   2  12
ATOM     12  C   UNL     1       6.154   3.985  12.984  0.00  0.00    +0.000 A 
ATOM     13  C   UNL     1       4.819   4.202  12.659  0.00  0.00    +0.000 A 
ATOM     14  C   UNL     1       4.211   3.329  11.759  0.00  0.00    +0.000 A 
ATOM     15  C   UNL     1       4.947   2.275  11.227  0.00  0.00    +0.000 A 
ATOM     16  C   UNL     1       6.268   2.129  11.619  0.00  0.00    +0.000 A 
ATOM     17  N   UNL     1       6.883   2.953  12.488  0.00  0.00    +0.000 NA
ENDBRANCH   2  12
BRANCH   9  18
ATOM     18  C   UNL     1       3.797   2.121  17.869  0.00  0.00    +0.000 C 
BRANCH  18  19
ATOM     19  O   UNL     1       2.761   1.806  18.815  0.00  0.00    +0.000 OA
BRANCH  19  20
ATOM     20  C   UNL     1       1.507   2.365  18.427  0.00  0.00    +0.000 C 
BRANCH  20  21
ATOM     21  C   UNL     1       0.737   2.724  19.660  0.00  0.00    +0.000 C 
ATOM     22  C   UNL     1       1.414   2.827  21.005  0.00  0.00    +0.000 C 
ATOM     23  C   UNL     1       0.943   4.071  20.308  0.00  0.00    +0.000 C 
ENDBRANCH  20  21
ENDBRANCH  19  20
ENDBRANCH  18  19
ENDBRANCH   9  18
TORSDOF 5
ENDMDL
MODEL 6
REMARK VINA RESULT:      -6.9      0.836      1.236
REMARK  Name = 
REMARK  5 active torsions:
REMARK  status: ('A' for Active; 'I' for Inactive)
REMARK    1  A    between atoms: C_2  and  C_3
REMARK    2  A    between atoms: C_15  and  C_16
REMARK    3  A    between atoms: C_16  and  O_17
REMARK    4  A    between atoms: O_17  and  C_18
REMARK    5  A    between atoms: C_18  and  C_19
REMARK                            x       y       z     vdW  Elec       q    Type
REMARK                         _______ _______ _______ _____ _____    ______ ____
ROOT
ATOM      1  O   UNL     1       5.993   3.671  15.942  0.00  0.00    +0.000 OA
ATOM      2  C   UNL     1       5.698   4.241  16.995  0.00  0.00    +0.000 C 
ATOM      3  N   UNL     1       4.580   3.858  17.775  0.00  0.00    +0.000 N 
ATOM      4  C   UNL     1       3.807   2.729  17.250  0.00  0.00    +0.000 C 
ATOM      5  C   UNL     1       2.784   2.130  18.216  0.00  0.00    +0.000 C 
ATOM      6  N   UNL     1       2.197   3.130  19.074  0.00  0.00    +0.000 N 
ATOM      7  C   UNL     1       1.114   2.995  19.887  0.00  0.00    +0.000 A 
ATOM      8  N   UNL     1       0.874   4.107  20.547  0.00  0.00    +0.000 NA
ATOM      9  C   UNL     1       1.860   4.989  20.154  0.00  0.00    +0.000 A 
ATOM     10  C   UNL     1       2.693   4.387  19.226  0.00  0.00    +0.000 A 
ATOM     11  C   UNL     1       3.842   4.916  18.476  0.00  0.00    +0.000 C 
ENDROOT
BRANCH   2  12
ATOM     12  C   UNL     1       6.542   5.400  17.439  0.00  0.00    +0.000 A 
ATOM     13  C   UNL     1       7.374   5.262  18.546  0.00  0.00    +0.000 A 
ATOM     14  C   UNL     1       8.149   6.356  18.926  0.00  0.00    +0.000 A 
ATOM     15  C   UNL     1       8.061   7.540  18.202  0.00  0.00    +0.000 A 
ATOM     16  C   UNL     1       7.195   7.590  17.122  0.00  0.00    +0.000 A 
ATOM     17  N   UNL     1       6.431   6.553  16.729  0.00  0.00    +0.000 NA
ENDBRANCH   2  12
BRANCH   9  18
ATOM     18  C   UNL     1       1.891   6.401  20.642  0.00  0.00    +0.000 C 
BRANCH  18  19
ATOM     19  O   UNL     1       1.318   7.330  19.707  0.00  0.00    +0.000 OA
BRANCH  19  20
ATOM     20  C   UNL     1       2.323   8.011  18.957  0.00  0.00    +0.000 C 
BRANCH  20  21
ATOM     21  C   UNL     1       1.657   8.891  17.945  0.00  0.00    +0.000 C 
ATOM     22  C   UNL     1       0.552   9.841  18.338  0.00  0.00    +0.000 C 
ATOM     23  C   UNL     1       1.904  10.380  17.967  0.00  0.00    +0.000 C 
ENDBRANCH  20  21
ENDBRANCH  19  20
ENDBRANCH  18  19
ENDBRANCH   9  18
TORSDOF 5
ENDMDL
MODEL 7
REMARK VINA RESULT:      -6.5      1.963      3.112
REMARK  Name = 
REMARK  5 active torsions:
REMARK  status: ('A' for Active; 'I' for Inactive)
REMARK    1  A    between atoms: C_2  and  C_3
REMARK    2  A    between atoms: C_15  and  C_16
REMARK    3  A    between atoms: C_16  and  O_17
REMARK    4  A    between atoms: O_17  and  C_18
REMARK    5  A    between atoms: C_18  and  C_19
REMARK                            x       y       z     vdW  Elec       q    Type
REMARK                         _______ _______ _______ _____ _____    ______ ____
ROOT
ATOM      1  O   UNL     1       3.904   2.234  17.952  0.00  0.00    +0.000 OA
ATOM      2  C   UNL     1       4.139   3.444  17.923  0.00  0.00    +0.000 C 
ATOM      3  N   UNL     1       3.482   4.362  18.778  0.00  0.00    +0.000 N 
ATOM      4  C   UNL     1       2.514   3.771  19.707  0.00  0.00    +0.000 C 
ATOM      5  C   UNL     1       2.019   4.701  20.815  0.00  0.00    +0.000 C 
ATOM      6  N   UNL     1       1.921   6.070  20.372  0.00  0.00    +0.000 N 
ATOM      7  C   UNL     1       1.318   7.110  21.012  0.00  0.00    +0.000 A 
ATOM      8  N   UNL     1       1.445   8.226  20.328  0.00  0.00    +0.000 NA
ATOM      9  C   UNL     1       2.177   7.890  19.208  0.00  0.00    +0.000 A 
ATOM     10  C   UNL     1       2.478   6.539  19.224  0.00  0.00    +0.000 A 
ATOM     11  C   UNL     1       3.181   5.697  18.245  0.00  0.00    +0.000 C 
ENDROOT
BRANCH   2  12
ATOM     12  C   UNL     1       5.135   3.954  16.922  0.00  0.00    +0.000 A 
ATOM     13  C   UNL     1       4.811   3.955  15.569  0.00  0.00    +0.000 A 
ATOM     14  C   UNL     1       5.757   4.442  14.668  0.00  0.00    +0.000 A 
ATOM     15  C   UNL     1       6.982   4.898  15.143  0.00  0.00    +0.000 A 
ATOM     16  C   UNL     1       7.221   4.846  16.507  0.00  0.00    +0.000 A 
ATOM     17  N   UNL     1       6.331   4.379  17.403  0.00  0.00    +0.000 NA
ENDBRANCH   2  12
BRANCH   9  18
ATOM     18  C   UNL     1       2.478   8.890  18.137  0.00  0.00    +0.000 C 
BRANCH  18  19
ATOM     19  O   UNL     1       1.345   9.709  17.801  0.00  0.00    +0.000 OA
BRANCH  19  20
ATOM     20  C   UNL     1       1.368  10.952  18.502  0.00  0.00    +0.000 C 
BRANCH  20  21
ATOM     21  C   UNL     1      -0.040  11.382  18.768  0.00  0.00    +0.000 C 
ATOM     22  C   UNL     1      -1.143  10.372  18.972  0.00  0.00    +0.000 C 
ATOM     23  C   UNL     1      -0.642  11.177  20.137  0.00  0.00    +0.000 C 
ENDBRANCH  20  21
ENDBRANCH  19  20
ENDBRANCH  18  19
ENDBRANCH   9  18
TORSDOF 5
ENDMDL
MODEL 8
REMARK VINA RESULT:      -6.5      2.513      6.305
REMARK  Name = 
REMARK  5 active torsions:
REMARK  status: ('A' for Active; 'I' for Inactive)
REMARK    1  A    between atoms: C_2  and  C_3
REMARK    2  A    between atoms: C_15  and  C_16
REMARK    3  A    between atoms: C_16  and  O_17
REMARK    4  A    between atoms: O_17  and  C_18
REMARK    5  A    between atoms: C_18  and  C_19
REMARK                            x       y       z     vdW  Elec       q    Type
REMARK                         _______ _______ _______ _____ _____    ______ ____
ROOT
ATOM      1  O   UNL     1       1.822   5.438  20.494  0.00  0.00    +0.000 OA
ATOM      2  C   UNL     1       2.445   6.119  19.677  0.00  0.00    +0.000 C 
ATOM      3  N   UNL     1       3.595   5.633  19.008  0.00  0.00    +0.000 N 
ATOM      4  C   UNL     1       3.984   4.260  19.348  0.00  0.00    +0.000 C 
ATOM      5  C   UNL     1       5.036   3.633  18.434  0.00  0.00    +0.000 C 
ATOM      6  N   UNL     1       5.988   4.605  17.954  0.00  0.00    +0.000 N 
ATOM      7  C   UNL     1       7.165   4.369  17.312  0.00  0.00    +0.000 A 
ATOM      8  N   UNL     1       7.767   5.494  16.996  0.00  0.00    +0.000 NA
ATOM      9  C   UNL     1       6.930   6.498  17.439  0.00  0.00    +0.000 A 
ATOM     10  C   UNL     1       5.813   5.950  18.046  0.00  0.00    +0.000 A 
ATOM     11  C   UNL     1       4.670   6.589  18.717  0.00  0.00    +0.000 C 
ENDROOT
BRANCH   2  12
ATOM     12  C   UNL     1       1.977   7.520  19.411  0.00  0.00    +0.000 A 
ATOM     13  C   UNL     1       2.058   8.040  18.122  0.00  0.00    +0.000 A 
ATOM     14  C   UNL     1       1.609   9.342  17.910  0.00  0.00    +0.000 A 
ATOM     15  C   UNL     1       1.109  10.076  18.981  0.00  0.00    +0.000 A 
ATOM     16  C   UNL     1       1.079   9.480  20.231  0.00  0.00    +0.000 A 
ATOM     17  N   UNL     1       1.507   8.226  20.471  0.00  0.00    +0.000 NA
ENDBRANCH   2  12
BRANCH   9  18
ATOM     18  C   UNL     1       7.301   7.941  17.320  0.00  0.00    +0.000 C 
BRANCH  18  19
ATOM     19  O   UNL     1       8.316   8.337  18.258  0.00  0.00    +0.000 OA
BRANCH  19  20
ATOM     20  C   UNL     1       8.522   9.750  18.245  0.00  0.00    +0.000 C 
BRANCH  20  21
ATOM     21  C   UNL     1       9.471  10.109  19.345  0.00  0.00    +0.000 C 
ATOM     22  C   UNL     1      10.477  11.222  19.182  0.00  0.00    +0.000 C 
ATOM     23  C   UNL     1       9.297  11.409  20.092  0.00  0.00    +0.000 C 
ENDBRANCH  20  21
ENDBRANCH  19  20
ENDBRANCH  18  19
ENDBRANCH   9  18
TORSDOF 5
ENDMDL
MODEL 9
REMARK VINA RESULT:      -6.5      7.750     10.121
REMARK  Name = 
REMARK  5 active torsions:
REMARK  status: ('A' for Active; 'I' for Inactive)
REMARK    1  A    between atoms: C_2  and  C_3
REMARK    2  A    between atoms: C_15  and  C_16
REMARK    3  A    between atoms: C_16  and  O_17
REMARK    4  A    between atoms: O_17  and  C_18
REMARK    5  A    between atoms: C_18  and  C_19
REMARK                            x       y       z     vdW  Elec       q    Type
REMARK                         _______ _______ _______ _____ _____    ______ ____
ROOT
ATOM      1  O   UNL     1      -2.747  11.383  16.255  0.00  0.00    +0.000 OA
ATOM      2  C   UNL     1      -2.794  11.409  17.488  0.00  0.00    +0.000 C 
ATOM      3  N   UNL     1      -4.019  11.428  18.198  0.00  0.00    +0.000 N 
ATOM      4  C   UNL     1      -5.226  11.400  17.365  0.00  0.00    +0.000 C 
ATOM      5  C   UNL     1      -6.531  11.133  18.115  0.00  0.00    +0.000 C 
ATOM      6  N   UNL     1      -6.525  11.702  19.439  0.00  0.00    +0.000 N 
ATOM      7  C   UNL     1      -7.580  11.846  20.288  0.00  0.00    +0.000 A 
ATOM      8  N   UNL     1      -7.202  12.385  21.427  0.00  0.00    +0.000 NA
ATOM      9  C   UNL     1      -5.841  12.577  21.311  0.00  0.00    +0.000 A 
ATOM     10  C   UNL     1      -5.406  12.156  20.066  0.00  0.00    +0.000 A 
ATOM     11  C   UNL     1      -4.074  12.200  19.445  0.00  0.00    +0.000 C 
ENDROOT
BRANCH   2  12
ATOM     12  C   UNL     1      -1.502  11.454  18.250  0.00  0.00    +0.000 A 
ATOM     13  C   UNL     1      -1.067  10.323  18.935  0.00  0.00    +0.000 A 
ATOM     14  C   UNL     1       0.141  10.398  19.626  0.00  0.00    +0.000 A 
ATOM     15  C   UNL     1       0.860  11.588  19.618  0.00  0.00    +0.000 A 
ATOM     16  C   UNL     1       0.342  12.667  18.919  0.00  0.00    +0.000 A 
ATOM     17  N   UNL     1      -0.821  12.629  18.244  0.00  0.00    +0.000 NA
ENDBRANCH   2  12
BRANCH   9  18
ATOM     18  C   UNL     1      -5.046  13.237  22.391  0.00  0.00    +0.000 C 
BRANCH  18  19
ATOM     19  O   UNL     1      -4.694  12.339  23.456  0.00  0.00    +0.000 OA
BRANCH  19  20
ATOM     20  C   UNL     1      -3.338  12.516  23.868  0.00  0.00    +0.000 C 
BRANCH  20  21
ATOM     21  C   UNL     1      -2.437  12.105  22.746  0.00  0.00    +0.000 C 
ATOM     22  C   UNL     1      -1.013  12.601  22.662  0.00  0.00    +0.000 C 
ATOM     23  C   UNL     1      -1.286  11.166  23.013  0.00  0.00    +0.000 C 
ENDBRANCH  20  21
ENDBRANCH  19  20
ENDBRANCH  18  19
ENDBRANCH   9  18
TORSDOF 5
ENDMDL
