MODEL 1
REMARK VINA RESULT:      -8.1      0.000      0.000
REMARK  Name = 
REMARK  4 active torsions:
REMARK  status: ('A' for Active; 'I' for Inactive)
REMARK    1  A    between atoms: C_1  and  N_2
REMARK    2  A    between atoms: C_4  and  N_5
REMARK    3  A    between atoms: C_11  and  N_12
REMARK    4  A    between atoms: N_12  and  C_13
REMARK                            x       y       z     vdW  Elec       q    Type
REMARK                         _______ _______ _______ _____ _____    ______ ____
ROOT
ATOM      1  N   UNL     1       4.934   3.120  16.308  0.00  0.00    +0.000 N 
ATOM      2  C   UNL     1       4.269   3.242  17.530  0.00  0.00    +0.000 A 
ATOM      3  N   UNL     1       3.634   2.152  17.978  0.00  0.00    +0.000 NA
ATOM      4  C   UNL     1       2.985   2.271  19.155  0.00  0.00    +0.000 A 
ATOM      5  C   UNL     1       2.910   3.444  19.874  0.00  0.00    +0.000 A 
ATOM      6 BR   UNL     1       1.917   3.521  21.474  0.00  0.00    +0.000 Br
ATOM      7  C   UNL     1       3.561   4.534  19.324  0.00  0.00    +0.000 A 
ATOM      8  N   UNL     1       4.250   4.418  18.172  0.00  0.00    +0.000 NA
ATOM      9  H   UNL     1       4.653   2.257  15.868  0.00  0.00    +0.000 HD
ENDROOT
BRANCH   1  13
ATOM     10  C   UNL     1       7.855   5.329  13.119  0.00  0.00    +0.000 C 
ATOM     11  N   UNL     1       7.177   4.913  14.321  0.00  0.00    +0.000 N 
ATOM     12  C   UNL     1       6.147   4.019  14.422  0.00  0.00    +0.000 A 
ATOM     13  C   UNL     1       5.862   3.930  15.762  0.00  0.00    +0.000 A 
ATOM     14  C   UNL     1       6.765   4.821  16.385  0.00  0.00    +0.000 A 
ATOM     15  N   UNL     1       7.579   5.412  15.502  0.00  0.00    +0.000 NA
ENDBRANCH   1  13
BRANCH   7  16
ATOM     16  N   UNL     1       3.456   5.804  19.922  0.00  0.00    +0.000 N 
ATOM     17  H   UNL     1       4.153   5.986  20.630  0.00  0.00    +0.000 HD
BRANCH  16  18
ATOM     18  C   UNL     1       2.722   6.920  19.485  0.00  0.00    +0.000 A 
ATOM     19  C   UNL     1       1.871   7.630  20.343  0.00  0.00    +0.000 A 
ATOM     20  C   UNL     1       1.198   8.774  19.912  0.00  0.00    +0.000 A 
ATOM     21  C   UNL     1       1.347   9.214  18.600  0.00  0.00    +0.000 A 
ATOM     22  C   UNL     1       2.151   8.497  17.719  0.00  0.00    +0.000 A 
ATOM     23  C   UNL     1       2.834   7.357  18.159  0.00  0.00    +0.000 A 
ENDBRANCH  16  18
ENDBRANCH   7  16
TORSDOF 3
ENDMDL
MODEL 2
REMARK VINA RESULT:      -8.0      1.801      2.387
REMARK  Name = 
REMARK  4 active torsions:
REMARK  status: ('A' for Active; 'I' for Inactive)
REMARK    1  A    between atoms: C_1  and  N_2
REMARK    2  A    between atoms: C_4  and  N_5
REMARK    3  A    between atoms: C_11  and  N_12
REMARK    4  A    between atoms: N_12  and  C_13
REMARK                            x       y       z     vdW  Elec       q    Type
REMARK                         _______ _______ _______ _____ _____    ______ ____
ROOT
ATOM      1  N   UNL     1       6.239   4.119  18.209  0.00  0.00    +0.000 N 
ATOM      2  C   UNL     1       5.139   3.890  19.039  0.00  0.00    +0.000 A 
ATOM      3  N   UNL     1       4.943   2.626  19.439  0.00  0.00    +0.000 NA
ATOM      4  C   UNL     1       3.877   2.403  20.235  0.00  0.00    +0.000 A 
ATOM      5  C   UNL     1       2.980   3.380  20.607  0.00  0.00    +0.000 A 
ATOM      6 BR   UNL     1       1.482   2.946  21.666  0.00  0.00    +0.000 Br
ATOM      7  C   UNL     1       3.232   4.651  20.122  0.00  0.00    +0.000 A 
ATOM      8  N   UNL     1       4.317   4.897  19.362  0.00  0.00    +0.000 NA
ATOM      9  H   UNL     1       6.598   3.232  17.890  0.00  0.00    +0.000 HD
ENDROOT
BRANCH   1  13
ATOM     10  C   UNL     1       8.524   8.392  18.522  0.00  0.00    +0.000 C 
ATOM     11  N   UNL     1       7.854   7.210  18.041  0.00  0.00    +0.000 N 
ATOM     12  C   UNL     1       7.439   6.137  18.779  0.00  0.00    +0.000 A 
ATOM     13  C   UNL     1       6.832   5.285  17.889  0.00  0.00    +0.000 A 
ATOM     14  C   UNL     1       6.946   5.929  16.636  0.00  0.00    +0.000 A 
ATOM     15  N   UNL     1       7.561   7.114  16.733  0.00  0.00    +0.000 NA
ENDBRANCH   1  13
BRANCH   7  16
ATOM     16  N   UNL     1       2.319   5.697  20.353  0.00  0.00    +0.000 N 
ATOM     17  H   UNL     1       1.886   5.672  21.266  0.00  0.00    +0.000 HD
BRANCH  16  18
ATOM     18  C   UNL     1       2.148   6.888  19.626  0.00  0.00    +0.000 A 
ATOM     19  C   UNL     1       1.592   8.036  20.206  0.00  0.00    +0.000 A 
ATOM     20  C   UNL     1       1.488   9.230  19.491  0.00  0.00    +0.000 A 
ATOM     21  C   UNL     1       1.915   9.287  18.168  0.00  0.00    +0.000 A 
ATOM     22  C   UNL     1       2.427   8.143  17.559  0.00  0.00    +0.000 A 
ATOM     23  C   UNL     1       2.542   6.952  18.284  0.00  0.00    +0.000 A 
ENDBRANCH  16  18
ENDBRANCH   7  16
TORSDOF 3
ENDMDL
MODEL 3
REMARK VINA RESULT:      -8.0      2.872      4.755
REMARK  Name = 
REMARK  4 active torsions:
REMARK  status: ('A' for Active; 'I' for Inactive)
REMARK    1  A    between atoms: C_1  and  N_2
REMARK    2  A    between atoms: C_4  and  N_5
REMARK    3  A    between atoms: C_11  and  N_12
REMARK    4  A    between atoms: N_12  and  C_13
REMARK                            x       y       z     vdW  Elec       q    Type
REMARK                         _______ _______ _______ _____ _____    ______ ____
ROOT
ATOM      1  N   UNL     1       6.855   4.385  13.442  0.00  0.00    +0.000 N 
ATOM      2  C   UNL     1       6.656   4.603  14.807  0.00  0.00    +0.000 A 
ATOM      3  N   UNL     1       7.341   5.613  15.360  0.00  0.00    +0.000 NA
ATOM      4  C   UNL     1       7.154   5.819  16.679  0.00  0.00    +0.000 A 
ATOM      5  C   UNL     1       6.347   5.033  17.472  0.00  0.00    +0.000 A 
ATOM      6 BR   UNL     1       6.211   5.365  19.323  0.00  0.00    +0.000 Br
ATOM      7  C   UNL     1       5.704   3.988  16.832  0.00  0.00    +0.000 A 
ATOM      8  N   UNL     1       5.847   3.796  15.507  0.00  0.00    +0.000 NA
ATOM      9  H   UNL     1       7.652   4.924  13.138  0.00  0.00    +0.000 HD
ENDROOT
BRANCH   1  13
ATOM     10  C   UNL     1       3.237   2.830  10.602  0.00  0.00    +0.000 C 
ATOM     11  N   UNL     1       4.484   2.958  11.313  0.00  0.00    +0.000 N 
ATOM     12  C   UNL     1       4.881   4.000  12.105  0.00  0.00    +0.000 A 
ATOM     13  C   UNL     1       6.120   3.654  12.583  0.00  0.00    +0.000 A 
ATOM     14  C   UNL     1       6.389   2.390  12.010  0.00  0.00    +0.000 A 
ATOM     15  N   UNL     1       5.380   1.959  11.243  0.00  0.00    +0.000 NA
ENDBRANCH   1  13
BRANCH   7  16
ATOM     16  N   UNL     1       4.944   3.060  17.570  0.00  0.00    +0.000 N 
ATOM     17  H   UNL     1       5.498   2.409  18.109  0.00  0.00    +0.000 HD
BRANCH  16  18
ATOM     18  C   UNL     1       3.572   3.096  17.875  0.00  0.00    +0.000 A 
ATOM     19  C   UNL     1       2.934   2.043  18.544  0.00  0.00    +0.000 A 
ATOM     20  C   UNL     1       1.585   2.121  18.897  0.00  0.00    +0.000 A 
ATOM     21  C   UNL     1       0.844   3.250  18.561  0.00  0.00    +0.000 A 
ATOM     22  C   UNL     1       1.449   4.288  17.856  0.00  0.00    +0.000 A 
ATOM     23  C   UNL     1       2.804   4.211  17.516  0.00  0.00    +0.000 A 
ENDBRANCH  16  18
ENDBRANCH   7  16
TORSDOF 3
ENDMDL
MODEL 4
REMARK VINA RESULT:      -8.0      2.925      4.795
REMARK  Name = 
REMARK  4 active torsions:
REMARK  status: ('A' for Active; 'I' for Inactive)
REMARK    1  A    between atoms: C_1  and  N_2
REMARK    2  A    between atoms: C_4  and  N_5
REMARK    3  A    between atoms: C_11  and  N_12
REMARK    4  A    between atoms: N_12  and  C_13
REMARK                            x       y       z     vdW  Elec       q    Type
REMARK                         _______ _______ _______ _____ _____    ______ ____
ROOT
ATOM      1  N   UNL     1       6.844   4.402  13.462  0.00  0.00    +0.000 N 
ATOM      2  C   UNL     1       6.650   4.615  14.828  0.00  0.00    +0.000 A 
ATOM      3  N   UNL     1       7.331   5.628  15.379  0.00  0.00    +0.000 NA
ATOM      4  C   UNL     1       7.149   5.830  16.700  0.00  0.00    +0.000 A 
ATOM      5  C   UNL     1       6.353   5.037  17.496  0.00  0.00    +0.000 A 
ATOM      6 BR   UNL     1       6.224   5.365  19.347  0.00  0.00    +0.000 Br
ATOM      7  C   UNL     1       5.714   3.989  16.857  0.00  0.00    +0.000 A 
ATOM      8  N   UNL     1       5.851   3.801  15.531  0.00  0.00    +0.000 NA
ATOM      9  H   UNL     1       7.635   4.947  13.155  0.00  0.00    +0.000 HD
ENDROOT
BRANCH   1  13
ATOM     10  C   UNL     1       3.221   2.826  10.637  0.00  0.00    +0.000 C 
ATOM     11  N   UNL     1       4.471   2.962  11.342  0.00  0.00    +0.000 N 
ATOM     12  C   UNL     1       4.865   4.005  12.133  0.00  0.00    +0.000 A 
ATOM     13  C   UNL     1       6.109   3.667  12.605  0.00  0.00    +0.000 A 
ATOM     14  C   UNL     1       6.384   2.406  12.028  0.00  0.00    +0.000 A 
ATOM     15  N   UNL     1       5.374   1.970  11.266  0.00  0.00    +0.000 NA
ENDBRANCH   1  13
BRANCH   7  16
ATOM     16  N   UNL     1       4.964   3.054  17.597  0.00  0.00    +0.000 N 
ATOM     17  H   UNL     1       5.525   2.376  18.094  0.00  0.00    +0.000 HD
BRANCH  16  18
ATOM     18  C   UNL     1       3.606   3.108  17.958  0.00  0.00    +0.000 A 
ATOM     19  C   UNL     1       2.756   4.121  17.496  0.00  0.00    +0.000 A 
ATOM     20  C   UNL     1       1.396   4.125  17.811  0.00  0.00    +0.000 A 
ATOM     21  C   UNL     1       0.868   3.122  18.619  0.00  0.00    +0.000 A 
ATOM     22  C   UNL     1       1.706   2.132  19.126  0.00  0.00    +0.000 A 
ATOM     23  C   UNL     1       3.066   2.125  18.797  0.00  0.00    +0.000 A 
ENDBRANCH  16  18
ENDBRANCH   7  16
TORSDOF 3
ENDMDL
MODEL 5
REMARK VINA RESULT:      -7.9      1.782      2.579
REMARK  Name = 
REMARK  4 active torsions:
REMARK  status: ('A' for Active; 'I' for Inactive)
REMARK    1  A    between atoms: C_1  and  N_2
REMARK    2  A    between atoms: C_4  and  N_5
REMARK    3  A    between atoms: C_11  and  N_12
REMARK    4  A    between atoms: N_12  and  C_13
REMARK                            x       y       z     vdW  Elec       q    Type
REMARK                         _______ _______ _______ _____ _____    ______ ____
ROOT
ATOM      1  N   UNL     1       6.488   4.027  18.523  0.00  0.00    +0.000 N 
ATOM      2  C   UNL     1       5.249   3.801  19.127  0.00  0.00    +0.000 A 
ATOM      3  N   UNL     1       5.137   2.692  19.869  0.00  0.00    +0.000 NA
ATOM      4  C   UNL     1       3.939   2.470  20.447  0.00  0.00    +0.000 A 
ATOM      5  C   UNL     1       2.842   3.285  20.276  0.00  0.00    +0.000 A 
ATOM      6 BR   UNL     1       1.191   2.844  21.073  0.00  0.00    +0.000 Br
ATOM      7  C   UNL     1       3.029   4.390  19.464  0.00  0.00    +0.000 A 
ATOM      8  N   UNL     1       4.232   4.648  18.916  0.00  0.00    +0.000 NA
ATOM      9  H   UNL     1       7.045   3.190  18.599  0.00  0.00    +0.000 HD
ENDROOT
BRANCH   1  13
ATOM     10  C   UNL     1       8.247   8.516  17.949  0.00  0.00    +0.000 C 
ATOM     11  N   UNL     1       7.754   7.181  17.722  0.00  0.00    +0.000 N 
ATOM     12  C   UNL     1       7.405   6.257  18.668  0.00  0.00    +0.000 A 
ATOM     13  C   UNL     1       6.969   5.157  17.971  0.00  0.00    +0.000 A 
ATOM     14  C   UNL     1       7.108   5.512  16.610  0.00  0.00    +0.000 A 
ATOM     15  N   UNL     1       7.576   6.757  16.459  0.00  0.00    +0.000 NA
ENDBRANCH   1  13
BRANCH   7  16
ATOM     16  N   UNL     1       1.945   5.226  19.137  0.00  0.00    +0.000 N 
ATOM     17  H   UNL     1       1.091   4.730  18.921  0.00  0.00    +0.000 HD
BRANCH  16  18
ATOM     18  C   UNL     1       1.812   6.611  19.342  0.00  0.00    +0.000 A 
ATOM     19  C   UNL     1       1.989   7.534  18.302  0.00  0.00    +0.000 A 
ATOM     20  C   UNL     1       1.792   8.901  18.507  0.00  0.00    +0.000 A 
ATOM     21  C   UNL     1       1.437   9.370  19.768  0.00  0.00    +0.000 A 
ATOM     22  C   UNL     1       1.302   8.473  20.825  0.00  0.00    +0.000 A 
ATOM     23  C   UNL     1       1.488   7.103  20.612  0.00  0.00    +0.000 A 
ENDBRANCH  16  18
ENDBRANCH   7  16
TORSDOF 3
ENDMDL
MODEL 6
REMARK VINA RESULT:      -7.9      1.086      1.948
REMARK  Name = 
REMARK  4 active torsions:
REMARK  status: ('A' for Active; 'I' for Inactive)
REMARK    1  A    between atoms: C_1  and  N_2
REMARK    2  A    between atoms: C_4  and  N_5
REMARK    3  A    between atoms: C_11  and  N_12
REMARK    4  A    between atoms: N_12  and  C_13
REMARK                            x       y       z     vdW  Elec       q    Type
REMARK                         _______ _______ _______ _____ _____    ______ ____
ROOT
ATOM      1  N   UNL     1       5.284   3.621  17.077  0.00  0.00    +0.000 N 
ATOM      2  C   UNL     1       4.368   3.479  18.122  0.00  0.00    +0.000 A 
ATOM      3  N   UNL     1       3.867   2.252  18.317  0.00  0.00    +0.000 NA
ATOM      4  C   UNL     1       2.978   2.116  19.322  0.00  0.00    +0.000 A 
ATOM      5  C   UNL     1       2.540   3.159  20.106  0.00  0.00    +0.000 A 
ATOM      6 BR   UNL     1       1.239   2.872  21.440  0.00  0.00    +0.000 Br
ATOM      7  C   UNL     1       3.078   4.401  19.817  0.00  0.00    +0.000 A 
ATOM      8  N   UNL     1       4.000   4.545  18.845  0.00  0.00    +0.000 NA
ATOM      9  H   UNL     1       5.265   2.787  16.510  0.00  0.00    +0.000 HD
ENDROOT
BRANCH   1  13
ATOM     10  C   UNL     1       7.809   7.751  17.462  0.00  0.00    +0.000 C 
ATOM     11  N   UNL     1       7.265   6.496  17.008  0.00  0.00    +0.000 N 
ATOM     12  C   UNL     1       6.381   5.690  17.670  0.00  0.00    +0.000 A 
ATOM     13  C   UNL     1       6.138   4.632  16.829  0.00  0.00    +0.000 A 
ATOM     14  C   UNL     1       6.935   4.886  15.690  0.00  0.00    +0.000 A 
ATOM     15  N   UNL     1       7.614   6.034  15.795  0.00  0.00    +0.000 NA
ENDBRANCH   1  13
BRANCH   7  16
ATOM     16  N   UNL     1       2.618   5.551  20.486  0.00  0.00    +0.000 N 
ATOM     17  H   UNL     1       2.773   5.538  21.484  0.00  0.00    +0.000 HD
BRANCH  16  18
ATOM     18  C   UNL     1       2.247   6.793  19.941  0.00  0.00    +0.000 A 
ATOM     19  C   UNL     1       2.538   7.137  18.614  0.00  0.00    +0.000 A 
ATOM     20  C   UNL     1       2.107   8.347  18.069  0.00  0.00    +0.000 A 
ATOM     21  C   UNL     1       1.396   9.249  18.855  0.00  0.00    +0.000 A 
ATOM     22  C   UNL     1       1.137   8.946  20.189  0.00  0.00    +0.000 A 
ATOM     23  C   UNL     1       1.559   7.726  20.728  0.00  0.00    +0.000 A 
ENDBRANCH  16  18
ENDBRANCH   7  16
TORSDOF 3
ENDMDL
MODEL 7
REMARK VINA RESULT:      -7.8      1.087      1.637
REMARK  Name = 
REMARK  4 active torsions:
REMARK  status: ('A' for Active; 'I' for Inactive)
REMARK    1  A    between atoms: C_1  and  N_2
REMARK    2  A    between atoms: C_4  and  N_5
REMARK    3  A    between atoms: C_11  and  N_12
REMARK    4  A    between atoms: N_12  and  C_13
REMARK                            x       y       z     vdW  Elec       q    Type
REMARK                         _______ _______ _______ _____ _____    ______ ____
ROOT
ATOM      1  N   UNL     1       5.252   3.630  17.057  0.00  0.00    +0.000 N 
ATOM      2  C   UNL     1       4.354   3.487  18.118  0.00  0.00    +0.000 A 
ATOM      3  N   UNL     1       3.840   2.265  18.307  0.00  0.00    +0.000 NA
ATOM      4  C   UNL     1       2.968   2.128  19.327  0.00  0.00    +0.000 A 
ATOM      5  C   UNL     1       2.561   3.168  20.133  0.00  0.00    +0.000 A 
ATOM      6 BR   UNL     1       1.282   2.881  21.489  0.00  0.00    +0.000 Br
ATOM      7  C   UNL     1       3.111   4.405  19.849  0.00  0.00    +0.000 A 
ATOM      8  N   UNL     1       4.015   4.549  18.861  0.00  0.00    +0.000 NA
ATOM      9  H   UNL     1       5.209   2.804  16.480  0.00  0.00    +0.000 HD
ENDROOT
BRANCH   1  13
ATOM     10  C   UNL     1       7.803   7.746  17.417  0.00  0.00    +0.000 C 
ATOM     11  N   UNL     1       7.254   6.490  16.972  0.00  0.00    +0.000 N 
ATOM     12  C   UNL     1       6.359   5.697  17.637  0.00  0.00    +0.000 A 
ATOM     13  C   UNL     1       6.115   4.633  16.805  0.00  0.00    +0.000 A 
ATOM     14  C   UNL     1       6.922   4.868  15.669  0.00  0.00    +0.000 A 
ATOM     15  N   UNL     1       7.609   6.012  15.767  0.00  0.00    +0.000 NA
ENDBRANCH   1  13
BRANCH   7  16
ATOM     16  N   UNL     1       2.680   5.553  20.541  0.00  0.00    +0.000 N 
ATOM     17  H   UNL     1       2.933   5.565  21.519  0.00  0.00    +0.000 HD
BRANCH  16  18
ATOM     18  C   UNL     1       2.215   6.771  20.015  0.00  0.00    +0.000 A 
ATOM     19  C   UNL     1       1.484   7.682  20.790  0.00  0.00    +0.000 A 
ATOM     20  C   UNL     1       1.085   8.916  20.272  0.00  0.00    +0.000 A 
ATOM     21  C   UNL     1       1.389   9.247  18.955  0.00  0.00    +0.000 A 
ATOM     22  C   UNL     1       2.074   8.336  18.155  0.00  0.00    +0.000 A 
ATOM     23  C   UNL     1       2.484   7.107  18.682  0.00  0.00    +0.000 A 
ENDBRANCH  16  18
ENDBRANCH   7  16
TORSDOF 3
ENDMDL
MODEL 8
REMARK VINA RESULT:      -7.6      0.411      1.123
REMARK  Name = 
REMARK  4 active torsions:
REMARK  status: ('A' for Active; 'I' for Inactive)
REMARK    1  A    between atoms: C_1  and  N_2
REMARK    2  A    between atoms: C_4  and  N_5
REMARK    3  A    between atoms: C_11  and  N_12
REMARK    4  A    between atoms: N_12  and  C_13
REMARK                            x       y       z     vdW  Elec       q    Type
REMARK                         _______ _______ _______ _____ _____    ______ ____
ROOT
ATOM      1  N   UNL     1       4.662   3.396  15.986  0.00  0.00    +0.000 N 
ATOM      2  C   UNL     1       3.968   3.502  17.193  0.00  0.00    +0.000 A 
ATOM      3  N   UNL     1       3.200   2.459  17.536  0.00  0.00    +0.000 NA
ATOM      4  C   UNL     1       2.525   2.563  18.699  0.00  0.00    +0.000 A 
ATOM      5  C   UNL     1       2.553   3.679  19.506  0.00  0.00    +0.000 A 
ATOM      6 BR   UNL     1       1.515   3.748  21.078  0.00  0.00    +0.000 Br
ATOM      7  C   UNL     1       3.341   4.726  19.062  0.00  0.00    +0.000 A 
ATOM      8  N   UNL     1       4.055   4.620  17.925  0.00  0.00    +0.000 NA
ATOM      9  H   UNL     1       4.303   2.607  15.471  0.00  0.00    +0.000 HD
ENDROOT
BRANCH   1  13
ATOM     10  C   UNL     1       7.990   5.415  13.083  0.00  0.00    +0.000 C 
ATOM     11  N   UNL     1       7.191   5.033  14.220  0.00  0.00    +0.000 N 
ATOM     12  C   UNL     1       6.084   4.230  14.220  0.00  0.00    +0.000 A 
ATOM     13  C   UNL     1       5.693   4.135  15.532  0.00  0.00    +0.000 A 
ATOM     14  C   UNL     1       6.620   4.929  16.245  0.00  0.00    +0.000 A 
ATOM     15  N   UNL     1       7.545   5.467  15.441  0.00  0.00    +0.000 NA
ENDBRANCH   1  13
BRANCH   7  16
ATOM     16  N   UNL     1       3.355   5.952  19.756  0.00  0.00    +0.000 N 
ATOM     17  H   UNL     1       4.108   6.040  20.423  0.00  0.00    +0.000 HD
BRANCH  16  18
ATOM     18  C   UNL     1       2.663   7.138  19.453  0.00  0.00    +0.000 A 
ATOM     19  C   UNL     1       2.785   7.769  18.208  0.00  0.00    +0.000 A 
ATOM     20  C   UNL     1       2.043   8.911  17.900  0.00  0.00    +0.000 A 
ATOM     21  C   UNL     1       1.183   9.457  18.849  0.00  0.00    +0.000 A 
ATOM     22  C   UNL     1       1.083   8.870  20.108  0.00  0.00    +0.000 A 
ATOM     23  C   UNL     1       1.819   7.719  20.408  0.00  0.00    +0.000 A 
ENDBRANCH  16  18
ENDBRANCH   7  16
TORSDOF 3
ENDMDL
MODEL 9
REMARK VINA RESULT:      -7.5      2.107      2.799
REMARK  Name = 
REMARK  4 active torsions:
REMARK  status: ('A' for Active; 'I' for Inactive)
REMARK    1  A    between atoms: C_1  and  N_2
REMARK    2  A    between atoms: C_4  and  N_5
REMARK    3  A    between atoms: C_11  and  N_12
REMARK    4  A    between atoms: N_12  and  C_13
REMARK                            x       y       z     vdW  Elec       q    Type
REMARK                         _______ _______ _______ _____ _____    ______ ____
ROOT
ATOM      1  N   UNL     1       6.042   4.996  17.742  0.00  0.00    +0.000 N 
ATOM      2  C   UNL     1       4.858   4.610  18.374  0.00  0.00    +0.000 A 
ATOM      3  N   UNL     1       4.417   3.371  18.116  0.00  0.00    +0.000 NA
ATOM      4  C   UNL     1       3.271   3.000  18.721  0.00  0.00    +0.000 A 
ATOM      5  C   UNL     1       2.528   3.828  19.533  0.00  0.00    +0.000 A 
ATOM      6 BR   UNL     1       0.900   3.232  20.274  0.00  0.00    +0.000 Br
ATOM      7  C   UNL     1       3.032   5.104  19.720  0.00  0.00    +0.000 A 
ATOM      8  N   UNL     1       4.199   5.474  19.157  0.00  0.00    +0.000 NA
ATOM      9  H   UNL     1       6.267   4.320  17.029  0.00  0.00    +0.000 HD
ENDROOT
BRANCH   1  13
ATOM     10  C   UNL     1       8.222   9.333  17.594  0.00  0.00    +0.000 C 
ATOM     11  N   UNL     1       7.829   7.990  17.939  0.00  0.00    +0.000 N 
ATOM     12  C   UNL     1       6.813   7.258  17.389  0.00  0.00    +0.000 A 
ATOM     13  C   UNL     1       6.849   6.038  18.018  0.00  0.00    +0.000 A 
ATOM     14  C   UNL     1       7.915   6.139  18.941  0.00  0.00    +0.000 A 
ATOM     15  N   UNL     1       8.522   7.330  18.882  0.00  0.00    +0.000 NA
ENDBRANCH   1  13
BRANCH   7  16
ATOM     16  N   UNL     1       2.297   6.062  20.442  0.00  0.00    +0.000 N 
ATOM     17  H   UNL     1       2.226   5.868  21.432  0.00  0.00    +0.000 HD
BRANCH  16  18
ATOM     18  C   UNL     1       1.907   7.352  20.042  0.00  0.00    +0.000 A 
ATOM     19  C   UNL     1       2.129   7.824  18.741  0.00  0.00    +0.000 A 
ATOM     20  C   UNL     1       1.679   9.083  18.341  0.00  0.00    +0.000 A 
ATOM     21  C   UNL     1       1.019   9.906  19.250  0.00  0.00    +0.000 A 
ATOM     22  C   UNL     1       0.830   9.474  20.560  0.00  0.00    +0.000 A 
ATOM     23  C   UNL     1       1.271   8.206  20.953  0.00  0.00    +0.000 A 
ENDBRANCH  16  18
ENDBRANCH   7  16
TORSDOF 3
ENDMDL
