MODEL 1
REMARK VINA RESULT:      -8.4      0.000      0.000
REMARK  Name = 
REMARK  4 active torsions:
REMARK  status: ('A' for Active; 'I' for Inactive)
REMARK    1  A    between atoms: C_6  and  C_7
REMARK    2  A    between atoms: C_7  and  N_8
REMARK    3  A    between atoms: C_11  and  C_12
REMARK    4  A    between atoms: C_12  and  C_13
REMARK                            x       y       z     vdW  Elec       q    Type
REMARK                         _______ _______ _______ _____ _____    ______ ____
ROOT
ATOM      1  N   UNL     1       4.009   6.309  18.797  0.00  0.00    +0.000 NA
ATOM      2  C   UNL     1       4.571   4.950  18.872  0.00  0.00    +0.000 C 
ATOM      3  C   UNL     1       5.996   4.865  18.321  0.00  0.00    +0.000 C 
ATOM      4  C   UNL     1       6.095   5.371  16.877  0.00  0.00    +0.000 C 
ATOM      5  C   UNL     1       5.543   6.806  16.859  0.00  0.00    +0.000 C 
ATOM      6  C   UNL     1       4.133   6.902  17.453  0.00  0.00    +0.000 C 
ENDROOT
BRANCH   1   7
ATOM      7  C   UNL     1       2.582   6.308  19.189  0.00  0.00    +0.000 C 
BRANCH   7  13
ATOM      8  F   UNL     1       1.149   2.619  22.066  0.00  0.00    +0.000 F 
ATOM      9  C   UNL     1       1.303   3.115  20.830  0.00  0.00    +0.000 A 
ATOM     10  C   UNL     1       0.974   2.332  19.732  0.00  0.00    +0.000 A 
ATOM     11  C   UNL     1       1.138   2.847  18.447  0.00  0.00    +0.000 A 
ATOM     12  C   UNL     1       1.636   4.143  18.274  0.00  0.00    +0.000 A 
ATOM     13  C   UNL     1       1.977   4.935  19.382  0.00  0.00    +0.000 A 
ATOM     14  C   UNL     1       1.803   4.406  20.669  0.00  0.00    +0.000 A 
ENDBRANCH   7  13
ENDBRANCH   1   7
BRANCH   4  15
ATOM     15  C   UNL     1       5.359   4.488  15.843  0.00  0.00    +0.000 C 
BRANCH  15  16
ATOM     16  C   UNL     1       6.018   4.343  14.491  0.00  0.00    +0.000 A 
ATOM     17  C   UNL     1       5.428   3.532  13.508  0.00  0.00    +0.000 A 
ATOM     18  C   UNL     1       5.982   3.442  12.230  0.00  0.00    +0.000 A 
ATOM     19  C   UNL     1       7.134   4.160  11.917  0.00  0.00    +0.000 A 
ATOM     20  C   UNL     1       7.731   4.967  12.883  0.00  0.00    +0.000 A 
ATOM     21  C   UNL     1       7.176   5.059  14.164  0.00  0.00    +0.000 A 
ENDBRANCH  15  16
ENDBRANCH   4  15
TORSDOF 4
ENDMDL
MODEL 2
REMARK VINA RESULT:      -8.4      0.877      1.367
REMARK  Name = 
REMARK  4 active torsions:
REMARK  status: ('A' for Active; 'I' for Inactive)
REMARK    1  A    between atoms: C_6  and  C_7
REMARK    2  A    between atoms: C_7  and  N_8
REMARK    3  A    between atoms: C_11  and  C_12
REMARK    4  A    between atoms: C_12  and  C_13
REMARK                            x       y       z     vdW  Elec       q    Type
REMARK                         _______ _______ _______ _____ _____    ______ ____
ROOT
ATOM      1  N   UNL     1       4.124   6.295  18.676  0.00  0.00    +0.000 NA
ATOM      2  C   UNL     1       4.706   4.947  18.791  0.00  0.00    +0.000 C 
ATOM      3  C   UNL     1       6.138   4.870  18.256  0.00  0.00    +0.000 C 
ATOM      4  C   UNL     1       6.244   5.341  16.801  0.00  0.00    +0.000 C 
ATOM      5  C   UNL     1       5.670   6.766  16.741  0.00  0.00    +0.000 C 
ATOM      6  C   UNL     1       4.253   6.856  17.319  0.00  0.00    +0.000 C 
ENDROOT
BRANCH   1   7
ATOM      7  C   UNL     1       2.694   6.282  19.054  0.00  0.00    +0.000 C 
BRANCH   7  13
ATOM      8  F   UNL     1       0.326   2.026  18.584  0.00  0.00    +0.000 F 
ATOM      9  C   UNL     1       0.997   2.884  19.366  0.00  0.00    +0.000 A 
ATOM     10  C   UNL     1       1.167   2.592  20.713  0.00  0.00    +0.000 A 
ATOM     11  C   UNL     1       1.862   3.487  21.526  0.00  0.00    +0.000 A 
ATOM     12  C   UNL     1       2.376   4.668  20.982  0.00  0.00    +0.000 A 
ATOM     13  C   UNL     1       2.199   4.970  19.622  0.00  0.00    +0.000 A 
ATOM     14  C   UNL     1       1.502   4.060  18.815  0.00  0.00    +0.000 A 
ENDBRANCH   7  13
ENDBRANCH   1   7
BRANCH   4  15
ATOM     15  C   UNL     1       5.531   4.421  15.783  0.00  0.00    +0.000 C 
BRANCH  15  16
ATOM     16  C   UNL     1       6.158   4.322  14.411  0.00  0.00    +0.000 A 
ATOM     17  C   UNL     1       5.570   3.509  13.430  0.00  0.00    +0.000 A 
ATOM     18  C   UNL     1       6.092   3.460  12.136  0.00  0.00    +0.000 A 
ATOM     19  C   UNL     1       7.209   4.224  11.806  0.00  0.00    +0.000 A 
ATOM     20  C   UNL     1       7.804   5.034  12.770  0.00  0.00    +0.000 A 
ATOM     21  C   UNL     1       7.281   5.085  14.066  0.00  0.00    +0.000 A 
ENDBRANCH  15  16
ENDBRANCH   4  15
TORSDOF 4
ENDMDL
MODEL 3
REMARK VINA RESULT:      -8.1      0.478      1.154
REMARK  Name = 
REMARK  4 active torsions:
REMARK  status: ('A' for Active; 'I' for Inactive)
REMARK    1  A    between atoms: C_6  and  C_7
REMARK    2  A    between atoms: C_7  and  N_8
REMARK    3  A    between atoms: C_11  and  C_12
REMARK    4  A    between atoms: C_12  and  C_13
REMARK                            x       y       z     vdW  Elec       q    Type
REMARK                         _______ _______ _______ _____ _____    ______ ____
ROOT
ATOM      1  N   UNL     1       3.974   6.478  18.418  0.00  0.00    +0.000 NA
ATOM      2  C   UNL     1       4.721   5.306  18.904  0.00  0.00    +0.000 C 
ATOM      3  C   UNL     1       6.207   5.356  18.542  0.00  0.00    +0.000 C 
ATOM      4  C   UNL     1       6.435   5.508  17.034  0.00  0.00    +0.000 C 
ATOM      5  C   UNL     1       5.678   6.768  16.583  0.00  0.00    +0.000 C 
ATOM      6  C   UNL     1       4.199   6.742  16.986  0.00  0.00    +0.000 C 
ENDROOT
BRANCH   1   7
ATOM      7  C   UNL     1       2.523   6.308  18.651  0.00  0.00    +0.000 C 
BRANCH   7  13
ATOM      8  F   UNL     1       0.928   2.780  21.643  0.00  0.00    +0.000 F 
ATOM      9  C   UNL     1       1.321   3.151  20.416  0.00  0.00    +0.000 A 
ATOM     10  C   UNL     1       1.391   2.203  19.404  0.00  0.00    +0.000 A 
ATOM     11  C   UNL     1       1.804   2.589  18.130  0.00  0.00    +0.000 A 
ATOM     12  C   UNL     1       2.146   3.922  17.882  0.00  0.00    +0.000 A 
ATOM     13  C   UNL     1       2.083   4.882  18.905  0.00  0.00    +0.000 A 
ATOM     14  C   UNL     1       1.663   4.481  20.181  0.00  0.00    +0.000 A 
ENDBRANCH   7  13
ENDBRANCH   1   7
BRANCH   4  15
ATOM     15  C   UNL     1       6.001   4.281  16.199  0.00  0.00    +0.000 C 
BRANCH  15  16
ATOM     16  C   UNL     1       6.330   4.318  14.724  0.00  0.00    +0.000 A 
ATOM     17  C   UNL     1       7.442   5.046  14.273  0.00  0.00    +0.000 A 
ATOM     18  C   UNL     1       7.804   5.034  12.925  0.00  0.00    +0.000 A 
ATOM     19  C   UNL     1       7.058   4.295  12.010  0.00  0.00    +0.000 A 
ATOM     20  C   UNL     1       5.951   3.570  12.443  0.00  0.00    +0.000 A 
ATOM     21  C   UNL     1       5.588   3.579  13.794  0.00  0.00    +0.000 A 
ENDBRANCH  15  16
ENDBRANCH   4  15
TORSDOF 4
ENDMDL
MODEL 4
REMARK VINA RESULT:      -8.0      2.913      7.409
REMARK  Name = 
REMARK  4 active torsions:
REMARK  status: ('A' for Active; 'I' for Inactive)
REMARK    1  A    between atoms: C_6  and  C_7
REMARK    2  A    between atoms: C_7  and  N_8
REMARK    3  A    between atoms: C_11  and  C_12
REMARK    4  A    between atoms: C_12  and  C_13
REMARK                            x       y       z     vdW  Elec       q    Type
REMARK                         _______ _______ _______ _____ _____    ______ ____
ROOT
ATOM      1  N   UNL     1       5.704   4.763  16.660  0.00  0.00    +0.000 NA
ATOM      2  C   UNL     1       4.929   5.866  16.067  0.00  0.00    +0.000 C 
ATOM      3  C   UNL     1       4.643   6.993  17.062  0.00  0.00    +0.000 C 
ATOM      4  C   UNL     1       3.924   6.492  18.320  0.00  0.00    +0.000 C 
ATOM      5  C   UNL     1       4.792   5.379  18.928  0.00  0.00    +0.000 C 
ATOM      6  C   UNL     1       5.119   4.271  17.920  0.00  0.00    +0.000 C 
ENDROOT
BRANCH   1   7
ATOM      7  C   UNL     1       5.816   3.632  15.712  0.00  0.00    +0.000 C 
BRANCH   7  13
ATOM      8  F   UNL     1       8.995   6.116  12.944  0.00  0.00    +0.000 F 
ATOM      9  C   UNL     1       7.972   5.254  13.020  0.00  0.00    +0.000 A 
ATOM     10  C   UNL     1       7.412   4.751  11.852  0.00  0.00    +0.000 A 
ATOM     11  C   UNL     1       6.345   3.857  11.932  0.00  0.00    +0.000 A 
ATOM     12  C   UNL     1       5.846   3.477  13.182  0.00  0.00    +0.000 A 
ATOM     13  C   UNL     1       6.405   3.989  14.364  0.00  0.00    +0.000 A 
ATOM     14  C   UNL     1       7.479   4.885  14.270  0.00  0.00    +0.000 A 
ENDBRANCH   7  13
ENDBRANCH   1   7
BRANCH   4  15
ATOM     15  C   UNL     1       2.483   5.989  18.070  0.00  0.00    +0.000 C 
BRANCH  15  16
ATOM     16  C   UNL     1       2.022   4.822  18.912  0.00  0.00    +0.000 A 
ATOM     17  C   UNL     1       2.006   4.931  20.311  0.00  0.00    +0.000 A 
ATOM     18  C   UNL     1       1.516   3.892  21.103  0.00  0.00    +0.000 A 
ATOM     19  C   UNL     1       1.035   2.728  20.507  0.00  0.00    +0.000 A 
ATOM     20  C   UNL     1       1.046   2.605  19.120  0.00  0.00    +0.000 A 
ATOM     21  C   UNL     1       1.536   3.647  18.325  0.00  0.00    +0.000 A 
ENDBRANCH  15  16
ENDBRANCH   4  15
TORSDOF 4
ENDMDL
MODEL 5
REMARK VINA RESULT:      -7.9      1.166      1.859
REMARK  Name = 
REMARK  4 active torsions:
REMARK  status: ('A' for Active; 'I' for Inactive)
REMARK    1  A    between atoms: C_6  and  C_7
REMARK    2  A    between atoms: C_7  and  N_8
REMARK    3  A    between atoms: C_11  and  C_12
REMARK    4  A    between atoms: C_12  and  C_13
REMARK                            x       y       z     vdW  Elec       q    Type
REMARK                         _______ _______ _______ _____ _____    ______ ____
ROOT
ATOM      1  N   UNL     1       4.109   6.450  18.775  0.00  0.00    +0.000 NA
ATOM      2  C   UNL     1       4.913   5.241  19.020  0.00  0.00    +0.000 C 
ATOM      3  C   UNL     1       6.317   5.328  18.416  0.00  0.00    +0.000 C 
ATOM      4  C   UNL     1       6.287   5.616  16.911  0.00  0.00    +0.000 C 
ATOM      5  C   UNL     1       5.481   6.908  16.710  0.00  0.00    +0.000 C 
ATOM      6  C   UNL     1       4.091   6.842  17.354  0.00  0.00    +0.000 C 
ENDROOT
BRANCH   1   7
ATOM      7  C   UNL     1       2.716   6.255  19.235  0.00  0.00    +0.000 C 
BRANCH   7  13
ATOM      8  F   UNL     1       2.204   1.826  17.219  0.00  0.00    +0.000 F 
ATOM      9  C   UNL     1       2.001   2.639  18.265  0.00  0.00    +0.000 A 
ATOM     10  C   UNL     1       1.310   2.169  19.374  0.00  0.00    +0.000 A 
ATOM     11  C   UNL     1       1.096   3.017  20.460  0.00  0.00    +0.000 A 
ATOM     12  C   UNL     1       1.573   4.331  20.423  0.00  0.00    +0.000 A 
ATOM     13  C   UNL     1       2.265   4.812  19.300  0.00  0.00    +0.000 A 
ATOM     14  C   UNL     1       2.477   3.948  18.217  0.00  0.00    +0.000 A 
ENDBRANCH   7  13
ENDBRANCH   1   7
BRANCH   4  15
ATOM     15  C   UNL     1       5.703   4.466  16.057  0.00  0.00    +0.000 C 
BRANCH  15  16
ATOM     16  C   UNL     1       6.155   4.400  14.616  0.00  0.00    +0.000 A 
ATOM     17  C   UNL     1       7.282   5.127  14.202  0.00  0.00    +0.000 A 
ATOM     18  C   UNL     1       7.758   5.023  12.894  0.00  0.00    +0.000 A 
ATOM     19  C   UNL     1       7.113   4.191  11.982  0.00  0.00    +0.000 A 
ATOM     20  C   UNL     1       5.992   3.466  12.378  0.00  0.00    +0.000 A 
ATOM     21  C   UNL     1       5.515   3.568  13.689  0.00  0.00    +0.000 A 
ENDBRANCH  15  16
ENDBRANCH   4  15
TORSDOF 4
ENDMDL
MODEL 6
REMARK VINA RESULT:      -7.9      1.390      2.152
REMARK  Name = 
REMARK  4 active torsions:
REMARK  status: ('A' for Active; 'I' for Inactive)
REMARK    1  A    between atoms: C_6  and  C_7
REMARK    2  A    between atoms: C_7  and  N_8
REMARK    3  A    between atoms: C_11  and  C_12
REMARK    4  A    between atoms: C_12  and  C_13
REMARK                            x       y       z     vdW  Elec       q    Type
REMARK                         _______ _______ _______ _____ _____    ______ ____
ROOT
ATOM      1  N   UNL     1       5.211   5.255  18.762  0.00  0.00    +0.000 NA
ATOM      2  C   UNL     1       6.664   5.487  18.798  0.00  0.00    +0.000 C 
ATOM      3  C   UNL     1       7.119   6.561  17.807  0.00  0.00    +0.000 C 
ATOM      4  C   UNL     1       6.696   6.244  16.368  0.00  0.00    +0.000 C 
ATOM      5  C   UNL     1       5.171   6.057  16.373  0.00  0.00    +0.000 C 
ATOM      6  C   UNL     1       4.707   5.015  17.398  0.00  0.00    +0.000 C 
ENDROOT
BRANCH   1   7
ATOM      7  C   UNL     1       4.843   4.104  19.616  0.00  0.00    +0.000 C 
BRANCH   7  13
ATOM      8  F   UNL     1       0.736   1.640  18.615  0.00  0.00    +0.000 F 
ATOM      9  C   UNL     1       1.335   2.661  19.243  0.00  0.00    +0.000 A 
ATOM     10  C   UNL     1       0.570   3.555  19.981  0.00  0.00    +0.000 A 
ATOM     11  C   UNL     1       1.193   4.618  20.631  0.00  0.00    +0.000 A 
ATOM     12  C   UNL     1       2.579   4.781  20.532  0.00  0.00    +0.000 A 
ATOM     13  C   UNL     1       3.355   3.884  19.780  0.00  0.00    +0.000 A 
ATOM     14  C   UNL     1       2.715   2.816  19.135  0.00  0.00    +0.000 A 
ENDBRANCH   7  13
ENDBRANCH   1   7
BRANCH   4  15
ATOM     15  C   UNL     1       7.397   5.007  15.759  0.00  0.00    +0.000 C 
BRANCH  15  16
ATOM     16  C   UNL     1       7.060   4.681  14.322  0.00  0.00    +0.000 A 
ATOM     17  C   UNL     1       7.805   5.255  13.281  0.00  0.00    +0.000 A 
ATOM     18  C   UNL     1       7.555   4.911  11.951  0.00  0.00    +0.000 A 
ATOM     19  C   UNL     1       6.557   3.989  11.645  0.00  0.00    +0.000 A 
ATOM     20  C   UNL     1       5.809   3.413  12.669  0.00  0.00    +0.000 A 
ATOM     21  C   UNL     1       6.058   3.756  14.002  0.00  0.00    +0.000 A 
ENDBRANCH  15  16
ENDBRANCH   4  15
TORSDOF 4
ENDMDL
MODEL 7
REMARK VINA RESULT:      -7.8      1.394      2.386
REMARK  Name = 
REMARK  4 active torsions:
REMARK  status: ('A' for Active; 'I' for Inactive)
REMARK    1  A    between atoms: C_6  and  C_7
REMARK    2  A    between atoms: C_7  and  N_8
REMARK    3  A    between atoms: C_11  and  C_12
REMARK    4  A    between atoms: C_12  and  C_13
REMARK                            x       y       z     vdW  Elec       q    Type
REMARK                         _______ _______ _______ _____ _____    ______ ____
ROOT
ATOM      1  N   UNL     1       4.758   5.199  17.384  0.00  0.00    +0.000 NA
ATOM      2  C   UNL     1       4.654   4.019  16.510  0.00  0.00    +0.000 C 
ATOM      3  C   UNL     1       6.016   3.515  16.027  0.00  0.00    +0.000 C 
ATOM      4  C   UNL     1       6.820   4.604  15.309  0.00  0.00    +0.000 C 
ATOM      5  C   UNL     1       6.943   5.793  16.275  0.00  0.00    +0.000 C 
ATOM      6  C   UNL     1       5.582   6.270  16.797  0.00  0.00    +0.000 C 
ENDROOT
BRANCH   1   7
ATOM      7  C   UNL     1       3.416   5.743  17.692  0.00  0.00    +0.000 C 
BRANCH   7  13
ATOM      8  F   UNL     1       0.174   2.221  18.705  0.00  0.00    +0.000 F 
ATOM      9  C   UNL     1       0.983   3.195  19.145  0.00  0.00    +0.000 A 
ATOM     10  C   UNL     1       1.017   3.495  20.501  0.00  0.00    +0.000 A 
ATOM     11  C   UNL     1       1.856   4.511  20.957  0.00  0.00    +0.000 A 
ATOM     12  C   UNL     1       2.649   5.221  20.050  0.00  0.00    +0.000 A 
ATOM     13  C   UNL     1       2.611   4.925  18.678  0.00  0.00    +0.000 A 
ATOM     14  C   UNL     1       1.767   3.898  18.233  0.00  0.00    +0.000 A 
ENDBRANCH   7  13
ENDBRANCH   1   7
BRANCH   4  15
ATOM     15  C   UNL     1       6.213   5.056  13.960  0.00  0.00    +0.000 C 
BRANCH  15  16
ATOM     16  C   UNL     1       6.105   4.001  12.883  0.00  0.00    +0.000 A 
ATOM     17  C   UNL     1       7.268   3.420  12.353  0.00  0.00    +0.000 A 
ATOM     18  C   UNL     1       7.188   2.394  11.410  0.00  0.00    +0.000 A 
ATOM     19  C   UNL     1       5.944   1.935  10.984  0.00  0.00    +0.000 A 
ATOM     20  C   UNL     1       4.781   2.503  11.500  0.00  0.00    +0.000 A 
ATOM     21  C   UNL     1       4.860   3.531  12.446  0.00  0.00    +0.000 A 
ENDBRANCH  15  16
ENDBRANCH   4  15
TORSDOF 4
ENDMDL
MODEL 8
REMARK VINA RESULT:      -7.8      1.491      1.942
REMARK  Name = 
REMARK  4 active torsions:
REMARK  status: ('A' for Active; 'I' for Inactive)
REMARK    1  A    between atoms: C_6  and  C_7
REMARK    2  A    between atoms: C_7  and  N_8
REMARK    3  A    between atoms: C_11  and  C_12
REMARK    4  A    between atoms: C_12  and  C_13
REMARK                            x       y       z     vdW  Elec       q    Type
REMARK                         _______ _______ _______ _____ _____    ______ ____
ROOT
ATOM      1  N   UNL     1       4.208   6.053  19.147  0.00  0.00    +0.000 NA
ATOM      2  C   UNL     1       5.478   5.321  19.008  0.00  0.00    +0.000 C 
ATOM      3  C   UNL     1       6.405   5.933  17.956  0.00  0.00    +0.000 C 
ATOM      4  C   UNL     1       5.735   6.044  16.581  0.00  0.00    +0.000 C 
ATOM      5  C   UNL     1       4.443   6.855  16.768  0.00  0.00    +0.000 C 
ATOM      6  C   UNL     1       3.532   6.270  17.855  0.00  0.00    +0.000 C 
ENDROOT
BRANCH   1   7
ATOM      7  C   UNL     1       3.285   5.334  20.053  0.00  0.00    +0.000 C 
BRANCH   7  13
ATOM      8  F   UNL     1       3.938   0.816  18.291  0.00  0.00    +0.000 F 
ATOM      9  C   UNL     1       3.098   1.811  18.610  0.00  0.00    +0.000 A 
ATOM     10  C   UNL     1       1.739   1.666  18.364  0.00  0.00    +0.000 A 
ATOM     11  C   UNL     1       0.868   2.703  18.693  0.00  0.00    +0.000 A 
ATOM     12  C   UNL     1       1.366   3.880  19.261  0.00  0.00    +0.000 A 
ATOM     13  C   UNL     1       2.741   4.033  19.505  0.00  0.00    +0.000 A 
ATOM     14  C   UNL     1       3.606   2.981  19.173  0.00  0.00    +0.000 A 
ENDBRANCH   7  13
ENDBRANCH   1   7
BRANCH   4  15
ATOM     15  C   UNL     1       5.436   4.684  15.909  0.00  0.00    +0.000 C 
BRANCH  15  16
ATOM     16  C   UNL     1       5.975   4.490  14.510  0.00  0.00    +0.000 A 
ATOM     17  C   UNL     1       7.157   5.137  14.120  0.00  0.00    +0.000 A 
ATOM     18  C   UNL     1       7.709   4.915  12.858  0.00  0.00    +0.000 A 
ATOM     19  C   UNL     1       7.086   4.042  11.968  0.00  0.00    +0.000 A 
ATOM     20  C   UNL     1       5.911   3.395  12.342  0.00  0.00    +0.000 A 
ATOM     21  C   UNL     1       5.357   3.616  13.607  0.00  0.00    +0.000 A 
ENDBRANCH  15  16
ENDBRANCH   4  15
TORSDOF 4
ENDMDL
MODEL 9
REMARK VINA RESULT:      -7.8      1.409      2.195
REMARK  Name = 
REMARK  4 active torsions:
REMARK  status: ('A' for Active; 'I' for Inactive)
REMARK    1  A    between atoms: C_6  and  C_7
REMARK    2  A    between atoms: C_7  and  N_8
REMARK    3  A    between atoms: C_11  and  C_12
REMARK    4  A    between atoms: C_12  and  C_13
REMARK                            x       y       z     vdW  Elec       q    Type
REMARK                         _______ _______ _______ _____ _____    ______ ____
ROOT
ATOM      1  N   UNL     1       4.742   5.210  17.403  0.00  0.00    +0.000 NA
ATOM      2  C   UNL     1       4.713   4.022  16.534  0.00  0.00    +0.000 C 
ATOM      3  C   UNL     1       6.109   3.568  16.101  0.00  0.00    +0.000 C 
ATOM      4  C   UNL     1       6.896   4.684  15.403  0.00  0.00    +0.000 C 
ATOM      5  C   UNL     1       6.939   5.881  16.365  0.00  0.00    +0.000 C 
ATOM      6  C   UNL     1       5.544   6.309  16.837  0.00  0.00    +0.000 C 
ENDROOT
BRANCH   1   7
ATOM      7  C   UNL     1       3.371   5.703  17.661  0.00  0.00    +0.000 C 
BRANCH   7  13
ATOM      8  F   UNL     1       0.166   2.130  18.610  0.00  0.00    +0.000 F 
ATOM      9  C   UNL     1       0.957   3.110  19.067  0.00  0.00    +0.000 A 
ATOM     10  C   UNL     1       0.976   3.398  20.426  0.00  0.00    +0.000 A 
ATOM     11  C   UNL     1       1.796   4.420  20.900  0.00  0.00    +0.000 A 
ATOM     12  C   UNL     1       2.589   5.149  20.007  0.00  0.00    +0.000 A 
ATOM     13  C   UNL     1       2.567   4.866  18.632  0.00  0.00    +0.000 A 
ATOM     14  C   UNL     1       1.741   3.832  18.169  0.00  0.00    +0.000 A 
ENDBRANCH   7  13
ENDBRANCH   1   7
BRANCH   4  15
ATOM     15  C   UNL     1       6.318   5.103  14.031  0.00  0.00    +0.000 C 
BRANCH  15  16
ATOM     16  C   UNL     1       6.144   4.004  13.008  0.00  0.00    +0.000 A 
ATOM     17  C   UNL     1       4.857   3.639  12.585  0.00  0.00    +0.000 A 
ATOM     18  C   UNL     1       4.679   2.676  11.590  0.00  0.00    +0.000 A 
ATOM     19  C   UNL     1       5.785   2.067  11.004  0.00  0.00    +0.000 A 
ATOM     20  C   UNL     1       7.069   2.419  11.415  0.00  0.00    +0.000 A 
ATOM     21  C   UNL     1       7.249   3.383  12.412  0.00  0.00    +0.000 A 
ENDBRANCH  15  16
ENDBRANCH   4  15
TORSDOF 4
ENDMDL
