MODEL 1
REMARK VINA RESULT:      -7.4      0.000      0.000
REMARK  Name = 
REMARK  4 active torsions:
REMARK  status: ('A' for Active; 'I' for Inactive)
REMARK    1  A    between atoms: C_5  and  S_6
REMARK    2  A    between atoms: S_6  and  C_7
REMARK    3  A    between atoms: C_7  and  C_8
REMARK    4  A    between atoms: N_18  and  C_19
REMARK                            x       y       z     vdW  Elec       q    Type
REMARK                         _______ _______ _______ _____ _____    ______ ____
ROOT
ATOM      1  O   UNL     1       2.074   9.669  17.506  0.00  0.00    +0.000 OA
ATOM      2  C   UNL     1       1.790   9.296  18.644  0.00  0.00    +0.000 A 
ATOM      3  C   UNL     1       1.991   7.960  19.104  0.00  0.00    +0.000 A 
ATOM      4  S   UNL     1       2.653   6.715  18.170  0.00  0.00    +0.000 S 
ATOM      5  C   UNL     1       2.491   5.658  19.522  0.00  0.00    +0.000 A 
ATOM      6  N   UNL     1       1.932   6.179  20.595  0.00  0.00    +0.000 NA
ATOM      7  C   UNL     1       1.653   7.514  20.351  0.00  0.00    +0.000 A 
ATOM      8  N   UNL     1       1.067   8.375  21.291  0.00  0.00    +0.000 NA
ATOM      9  C   UNL     1       0.870   9.587  20.863  0.00  0.00    +0.000 A 
ATOM     10  N   UNL     1       1.184  10.107  19.613  0.00  0.00    +0.000 N 
ENDROOT
BRANCH  10  11
ATOM     11  C   UNL     1       0.837  11.453  19.281  0.00  0.00    +0.000 A 
ATOM     12  C   UNL     1       1.727  12.505  19.544  0.00  0.00    +0.000 A 
ATOM     13  C   UNL     1       1.344  13.832  19.311  0.00  0.00    +0.000 A 
ATOM     14  C   UNL     1       0.089  14.112  18.775  0.00  0.00    +0.000 A 
ATOM     15 CL   UNL     1      -0.380  15.742  18.493  0.00  0.00    +0.000 Cl
ATOM     16  C   UNL     1      -0.793  13.077  18.479  0.00  0.00    +0.000 A 
ATOM     17  C   UNL     1      -0.425  11.756  18.744  0.00  0.00    +0.000 A 
ENDBRANCH  10  11
BRANCH   5  18
ATOM     18  S   UNL     1       3.129   4.035  19.424  0.00  0.00    +0.000 S 
BRANCH  18  19
ATOM     19  C   UNL     1       3.337   3.774  17.644  0.00  0.00    +0.000 C 
BRANCH  19  20
ATOM     20  C   UNL     1       4.766   4.072  17.235  0.00  0.00    +0.000 A 
ATOM     21  C   UNL     1       5.729   4.401  18.202  0.00  0.00    +0.000 A 
ATOM     22  C   UNL     1       7.038   4.718  17.830  0.00  0.00    +0.000 A 
ATOM     23  C   UNL     1       7.403   4.715  16.485  0.00  0.00    +0.000 A 
ATOM     24  C   UNL     1       6.455   4.398  15.512  0.00  0.00    +0.000 A 
ATOM     25  C   UNL     1       5.145   4.084  15.882  0.00  0.00    +0.000 A 
ENDBRANCH  19  20
ENDBRANCH  18  19
ENDBRANCH   5  18
TORSDOF 4
ENDMDL
MODEL 2
REMARK VINA RESULT:      -7.3      2.625      3.776
REMARK  Name = 
REMARK  4 active torsions:
REMARK  status: ('A' for Active; 'I' for Inactive)
REMARK    1  A    between atoms: C_5  and  S_6
REMARK    2  A    between atoms: S_6  and  C_7
REMARK    3  A    between atoms: C_7  and  C_8
REMARK    4  A    between atoms: N_18  and  C_19
REMARK                            x       y       z     vdW  Elec       q    Type
REMARK                         _______ _______ _______ _____ _____    ______ ____
ROOT
ATOM      1  O   UNL     1       1.549   6.771  20.920  0.00  0.00    +0.000 OA
ATOM      2  C   UNL     1       1.897   7.343  19.888  0.00  0.00    +0.000 A 
ATOM      3  C   UNL     1       2.798   6.773  18.940  0.00  0.00    +0.000 A 
ATOM      4  S   UNL     1       3.500   5.241  19.088  0.00  0.00    +0.000 S 
ATOM      5  C   UNL     1       4.301   5.497  17.583  0.00  0.00    +0.000 A 
ATOM      6  N   UNL     1       4.102   6.671  17.020  0.00  0.00    +0.000 NA
ATOM      7  C   UNL     1       3.225   7.402  17.804  0.00  0.00    +0.000 A 
ATOM      8  N   UNL     1       2.784   8.696  17.487  0.00  0.00    +0.000 NA
ATOM      9  C   UNL     1       1.976   9.219  18.361  0.00  0.00    +0.000 A 
ATOM     10  N   UNL     1       1.505   8.642  19.535  0.00  0.00    +0.000 N 
ENDROOT
BRANCH  10  11
ATOM     11  C   UNL     1       0.668   9.386  20.422  0.00  0.00    +0.000 A 
ATOM     12  C   UNL     1      -0.212  10.360  19.926  0.00  0.00    +0.000 A 
ATOM     13  C   UNL     1      -0.957  11.155  20.806  0.00  0.00    +0.000 A 
ATOM     14  C   UNL     1      -0.859  10.955  22.181  0.00  0.00    +0.000 A 
ATOM     15 CL   UNL     1      -1.772  11.936  23.259  0.00  0.00    +0.000 Cl
ATOM     16  C   UNL     1      -0.015   9.971  22.687  0.00  0.00    +0.000 A 
ATOM     17  C   UNL     1       0.755   9.201  21.812  0.00  0.00    +0.000 A 
ENDBRANCH  10  11
BRANCH   5  18
ATOM     18  S   UNL     1       5.231   4.201  16.875  0.00  0.00    +0.000 S 
BRANCH  18  19
ATOM     19  C   UNL     1       6.644   5.056  16.132  0.00  0.00    +0.000 C 
BRANCH  19  20
ATOM     20  C   UNL     1       6.723   4.745  14.649  0.00  0.00    +0.000 A 
ATOM     21  C   UNL     1       5.903   3.754  14.086  0.00  0.00    +0.000 A 
ATOM     22  C   UNL     1       6.001   3.432  12.729  0.00  0.00    +0.000 A 
ATOM     23  C   UNL     1       6.922   4.091  11.918  0.00  0.00    +0.000 A 
ATOM     24  C   UNL     1       7.750   5.071  12.466  0.00  0.00    +0.000 A 
ATOM     25  C   UNL     1       7.656   5.392  13.823  0.00  0.00    +0.000 A 
ENDBRANCH  19  20
ENDBRANCH  18  19
ENDBRANCH   5  18
TORSDOF 4
ENDMDL
MODEL 3
REMARK VINA RESULT:      -7.3      3.665      5.039
REMARK  Name = 
REMARK  4 active torsions:
REMARK  status: ('A' for Active; 'I' for Inactive)
REMARK    1  A    between atoms: C_5  and  S_6
REMARK    2  A    between atoms: S_6  and  C_7
REMARK    3  A    between atoms: C_7  and  C_8
REMARK    4  A    between atoms: N_18  and  C_19
REMARK                            x       y       z     vdW  Elec       q    Type
REMARK                         _______ _______ _______ _____ _____    ______ ____
ROOT
ATOM      1  O   UNL     1      -0.202  10.763  23.092  0.00  0.00    +0.000 OA
ATOM      2  C   UNL     1      -0.327  11.094  21.913  0.00  0.00    +0.000 A 
ATOM      3  C   UNL     1       0.291  10.396  20.833  0.00  0.00    +0.000 A 
ATOM      4  S   UNL     1       1.261   9.021  21.010  0.00  0.00    +0.000 S 
ATOM      5  C   UNL     1       1.452   8.974  19.298  0.00  0.00    +0.000 A 
ATOM      6  N   UNL     1       0.872   9.948  18.628  0.00  0.00    +0.000 NA
ATOM      7  C   UNL     1       0.194  10.763  19.520  0.00  0.00    +0.000 A 
ATOM      8  N   UNL     1      -0.549  11.891  19.139  0.00  0.00    +0.000 NA
ATOM      9  C   UNL     1      -1.096  12.535  20.127  0.00  0.00    +0.000 A 
ATOM     10  N   UNL     1      -1.037  12.223  21.480  0.00  0.00    +0.000 N 
ENDROOT
BRANCH  10  11
ATOM     11  C   UNL     1      -1.646  13.079  22.448  0.00  0.00    +0.000 A 
ATOM     12  C   UNL     1      -2.993  12.912  22.803  0.00  0.00    +0.000 A 
ATOM     13  C   UNL     1      -3.612  13.816  23.676  0.00  0.00    +0.000 A 
ATOM     14  C   UNL     1      -2.881  14.864  24.230  0.00  0.00    +0.000 A 
ATOM     15 CL   UNL     1      -3.646  15.974  25.299  0.00  0.00    +0.000 Cl
ATOM     16  C   UNL     1      -1.536  15.024  23.913  0.00  0.00    +0.000 A 
ATOM     17  C   UNL     1      -0.926  14.144  23.015  0.00  0.00    +0.000 A 
ENDBRANCH  10  11
BRANCH   5  18
ATOM     18  S   UNL     1       2.305   7.637  18.567  0.00  0.00    +0.000 S 
BRANCH  18  19
ATOM     19  C   UNL     1       2.518   6.475  19.940  0.00  0.00    +0.000 C 
BRANCH  19  20
ATOM     20  C   UNL     1       1.949   5.119  19.570  0.00  0.00    +0.000 A 
ATOM     21  C   UNL     1       1.359   4.304  20.548  0.00  0.00    +0.000 A 
ATOM     22  C   UNL     1       0.871   3.034  20.223  0.00  0.00    +0.000 A 
ATOM     23  C   UNL     1       0.970   2.561  18.917  0.00  0.00    +0.000 A 
ATOM     24  C   UNL     1       1.562   3.356  17.935  0.00  0.00    +0.000 A 
ATOM     25  C   UNL     1       2.054   4.623  18.260  0.00  0.00    +0.000 A 
ENDBRANCH  19  20
ENDBRANCH  18  19
ENDBRANCH   5  18
TORSDOF 4
ENDMDL
MODEL 4
REMARK VINA RESULT:      -7.3      3.530      4.131
REMARK  Name = 
REMARK  4 active torsions:
REMARK  status: ('A' for Active; 'I' for Inactive)
REMARK    1  A    between atoms: C_5  and  S_6
REMARK    2  A    between atoms: S_6  and  C_7
REMARK    3  A    between atoms: C_7  and  C_8
REMARK    4  A    between atoms: N_18  and  C_19
REMARK                            x       y       z     vdW  Elec       q    Type
REMARK                         _______ _______ _______ _____ _____    ______ ____
ROOT
ATOM      1  O   UNL     1      -0.151  10.139  23.438  0.00  0.00    +0.000 OA
ATOM      2  C   UNL     1      -0.146  10.437  22.244  0.00  0.00    +0.000 A 
ATOM      3  C   UNL     1       0.536   9.675  21.249  0.00  0.00    +0.000 A 
ATOM      4  S   UNL     1       1.413   8.262  21.557  0.00  0.00    +0.000 S 
ATOM      5  C   UNL     1       1.766   8.150  19.874  0.00  0.00    +0.000 A 
ATOM      6  N   UNL     1       1.304   9.129  19.124  0.00  0.00    +0.000 NA
ATOM      7  C   UNL     1       0.585  10.004  19.923  0.00  0.00    +0.000 A 
ATOM      8  N   UNL     1      -0.060  11.154  19.440  0.00  0.00    +0.000 NA
ATOM      9  C   UNL     1      -0.666  11.854  20.353  0.00  0.00    +0.000 A 
ATOM     10  N   UNL     1      -0.753  11.584  21.713  0.00  0.00    +0.000 N 
ENDROOT
BRANCH  10  11
ATOM     11  C   UNL     1      -1.408  12.499  22.593  0.00  0.00    +0.000 A 
ATOM     12  C   UNL     1      -2.711  12.247  23.045  0.00  0.00    +0.000 A 
ATOM     13  C   UNL     1      -3.386  13.195  23.826  0.00  0.00    +0.000 A 
ATOM     14  C   UNL     1      -2.748  14.378  24.193  0.00  0.00    +0.000 A 
ATOM     15 CL   UNL     1      -3.581  15.541  25.148  0.00  0.00    +0.000 Cl
ATOM     16  C   UNL     1      -1.443  14.628  23.779  0.00  0.00    +0.000 A 
ATOM     17  C   UNL     1      -0.783  13.699  22.971  0.00  0.00    +0.000 A 
ENDBRANCH  10  11
BRANCH   5  18
ATOM     18  S   UNL     1       2.616   6.751  19.267  0.00  0.00    +0.000 S 
BRANCH  18  19
ATOM     19  C   UNL     1       3.439   7.374  17.778  0.00  0.00    +0.000 C 
BRANCH  19  20
ATOM     20  C   UNL     1       4.135   6.239  17.053  0.00  0.00    +0.000 A 
ATOM     21  C   UNL     1       3.881   4.905  17.408  0.00  0.00    +0.000 A 
ATOM     22  C   UNL     1       4.551   3.855  16.773  0.00  0.00    +0.000 A 
ATOM     23  C   UNL     1       5.487   4.124  15.777  0.00  0.00    +0.000 A 
ATOM     24  C   UNL     1       5.757   5.445  15.419  0.00  0.00    +0.000 A 
ATOM     25  C   UNL     1       5.090   6.495  16.055  0.00  0.00    +0.000 A 
ENDBRANCH  19  20
ENDBRANCH  18  19
ENDBRANCH   5  18
TORSDOF 4
ENDMDL
MODEL 5
REMARK VINA RESULT:      -7.2      0.194      1.376
REMARK  Name = 
REMARK  4 active torsions:
REMARK  status: ('A' for Active; 'I' for Inactive)
REMARK    1  A    between atoms: C_5  and  S_6
REMARK    2  A    between atoms: S_6  and  C_7
REMARK    3  A    between atoms: C_7  and  C_8
REMARK    4  A    between atoms: N_18  and  C_19
REMARK                            x       y       z     vdW  Elec       q    Type
REMARK                         _______ _______ _______ _____ _____    ______ ____
ROOT
ATOM      1  O   UNL     1       2.037   9.819  17.617  0.00  0.00    +0.000 OA
ATOM      2  C   UNL     1       1.757   9.380  18.732  0.00  0.00    +0.000 A 
ATOM      3  C   UNL     1       1.988   8.028  19.122  0.00  0.00    +0.000 A 
ATOM      4  S   UNL     1       2.684   6.849  18.129  0.00  0.00    +0.000 S 
ATOM      5  C   UNL     1       2.542   5.719  19.422  0.00  0.00    +0.000 A 
ATOM      6  N   UNL     1       1.966   6.169  20.518  0.00  0.00    +0.000 NA
ATOM      7  C   UNL     1       1.656   7.508  20.342  0.00  0.00    +0.000 A 
ATOM      8  N   UNL     1       1.046   8.305  21.324  0.00  0.00    +0.000 NA
ATOM      9  C   UNL     1       0.821   9.532  20.958  0.00  0.00    +0.000 A 
ATOM     10  N   UNL     1       1.127  10.125  19.739  0.00  0.00    +0.000 N 
ENDROOT
BRANCH  10  11
ATOM     11  C   UNL     1       0.750  11.478  19.476  0.00  0.00    +0.000 A 
ATOM     12  C   UNL     1      -0.430  11.768  18.776  0.00  0.00    +0.000 A 
ATOM     13  C   UNL     1      -0.744  13.089  18.434  0.00  0.00    +0.000 A 
ATOM     14  C   UNL     1       0.095  14.130  18.826  0.00  0.00    +0.000 A 
ATOM     15 CL   UNL     1      -0.292  15.751  18.401  0.00  0.00    +0.000 Cl
ATOM     16  C   UNL     1       1.253  13.862  19.549  0.00  0.00    +0.000 A 
ATOM     17  C   UNL     1       1.585  12.540  19.860  0.00  0.00    +0.000 A 
ENDBRANCH  10  11
BRANCH   5  18
ATOM     18  S   UNL     1       3.219   4.119  19.243  0.00  0.00    +0.000 S 
BRANCH  18  19
ATOM     19  C   UNL     1       3.377   3.931  17.448  0.00  0.00    +0.000 C 
BRANCH  19  20
ATOM     20  C   UNL     1       4.802   4.219  17.016  0.00  0.00    +0.000 A 
ATOM     21  C   UNL     1       5.156   4.181  15.658  0.00  0.00    +0.000 A 
ATOM     22  C   UNL     1       6.476   4.403  15.256  0.00  0.00    +0.000 A 
ATOM     23  C   UNL     1       7.462   4.662  16.206  0.00  0.00    +0.000 A 
ATOM     24  C   UNL     1       7.128   4.695  17.560  0.00  0.00    +0.000 A 
ATOM     25  C   UNL     1       5.809   4.469  17.963  0.00  0.00    +0.000 A 
ENDBRANCH  19  20
ENDBRANCH  18  19
ENDBRANCH   5  18
TORSDOF 4
ENDMDL
MODEL 6
REMARK VINA RESULT:      -7.2      4.555      9.497
REMARK  Name = 
REMARK  4 active torsions:
REMARK  status: ('A' for Active; 'I' for Inactive)
REMARK    1  A    between atoms: C_5  and  S_6
REMARK    2  A    between atoms: S_6  and  C_7
REMARK    3  A    between atoms: C_7  and  C_8
REMARK    4  A    between atoms: N_18  and  C_19
REMARK                            x       y       z     vdW  Elec       q    Type
REMARK                         _______ _______ _______ _____ _____    ______ ____
ROOT
ATOM      1  O   UNL     1       2.365   8.880  17.141  0.00  0.00    +0.000 OA
ATOM      2  C   UNL     1       2.062   8.510  18.275  0.00  0.00    +0.000 A 
ATOM      3  C   UNL     1       1.293   9.303  19.178  0.00  0.00    +0.000 A 
ATOM      4  S   UNL     1       0.680  10.839  18.822  0.00  0.00    +0.000 S 
ATOM      5  C   UNL     1      -0.025  10.888  20.395  0.00  0.00    +0.000 A 
ATOM      6  N   UNL     1       0.217   9.847  21.165  0.00  0.00    +0.000 NA
ATOM      7  C   UNL     1       0.972   8.929  20.453  0.00  0.00    +0.000 A 
ATOM      8  N   UNL     1       1.393   7.695  20.971  0.00  0.00    +0.000 NA
ATOM      9  C   UNL     1       2.108   6.983  20.151  0.00  0.00    +0.000 A 
ATOM     10  N   UNL     1       2.475   7.300  18.849  0.00  0.00    +0.000 N 
ENDROOT
BRANCH  10  11
ATOM     11  C   UNL     1       3.325   6.427  18.103  0.00  0.00    +0.000 A 
ATOM     12  C   UNL     1       4.510   6.905  17.524  0.00  0.00    +0.000 A 
ATOM     13  C   UNL     1       5.288   6.071  16.711  0.00  0.00    +0.000 A 
ATOM     14  C   UNL     1       4.910   4.746  16.506  0.00  0.00    +0.000 A 
ATOM     15 CL   UNL     1       5.865   3.725  15.504  0.00  0.00    +0.000 Cl
ATOM     16  C   UNL     1       3.754   4.247  17.100  0.00  0.00    +0.000 A 
ATOM     17  C   UNL     1       2.959   5.088  17.882  0.00  0.00    +0.000 A 
ENDBRANCH  10  11
BRANCH   5  18
ATOM     18  S   UNL     1      -1.052  12.231  20.832  0.00  0.00    +0.000 S 
BRANCH  18  19
ATOM     19  C   UNL     1      -1.498  11.874  22.551  0.00  0.00    +0.000 C 
BRANCH  19  20
ATOM     20  C   UNL     1      -2.935  12.281  22.813  0.00  0.00    +0.000 A 
ATOM     21  C   UNL     1      -3.762  12.693  21.756  0.00  0.00    +0.000 A 
ATOM     22  C   UNL     1      -5.075  13.111  21.996  0.00  0.00    +0.000 A 
ATOM     23  C   UNL     1      -5.578  13.126  23.295  0.00  0.00    +0.000 A 
ATOM     24  C   UNL     1      -4.765  12.728  24.356  0.00  0.00    +0.000 A 
ATOM     25  C   UNL     1      -3.452  12.314  24.119  0.00  0.00    +0.000 A 
ENDBRANCH  19  20
ENDBRANCH  18  19
ENDBRANCH   5  18
TORSDOF 4
ENDMDL
MODEL 7
REMARK VINA RESULT:      -7.2      3.897      8.709
REMARK  Name = 
REMARK  4 active torsions:
REMARK  status: ('A' for Active; 'I' for Inactive)
REMARK    1  A    between atoms: C_5  and  S_6
REMARK    2  A    between atoms: S_6  and  C_7
REMARK    3  A    between atoms: C_7  and  C_8
REMARK    4  A    between atoms: N_18  and  C_19
REMARK                            x       y       z     vdW  Elec       q    Type
REMARK                         _______ _______ _______ _____ _____    ______ ____
ROOT
ATOM      1  O   UNL     1       2.556   8.736  17.151  0.00  0.00    +0.000 OA
ATOM      2  C   UNL     1       2.251   8.262  18.245  0.00  0.00    +0.000 A 
ATOM      3  C   UNL     1       1.466   8.960  19.210  0.00  0.00    +0.000 A 
ATOM      4  S   UNL     1       0.834  10.514  18.989  0.00  0.00    +0.000 S 
ATOM      5  C   UNL     1       0.119  10.412  20.554  0.00  0.00    +0.000 A 
ATOM      6  N   UNL     1       0.371   9.310  21.230  0.00  0.00    +0.000 NA
ATOM      7  C   UNL     1       1.143   8.470  20.445  0.00  0.00    +0.000 A 
ATOM      8  N   UNL     1       1.579   7.200  20.853  0.00  0.00    +0.000 NA
ATOM      9  C   UNL     1       2.309   6.574  19.978  0.00  0.00    +0.000 A 
ATOM     10  N   UNL     1       2.679   7.011  18.711  0.00  0.00    +0.000 N 
ENDROOT
BRANCH  10  11
ATOM     11  C   UNL     1       3.545   6.219  17.896  0.00  0.00    +0.000 A 
ATOM     12  C   UNL     1       4.669   6.792  17.281  0.00  0.00    +0.000 A 
ATOM     13  C   UNL     1       5.457   6.037  16.404  0.00  0.00    +0.000 A 
ATOM     14  C   UNL     1       5.154   4.698  16.169  0.00  0.00    +0.000 A 
ATOM     15 CL   UNL     1       6.123   3.775  15.088  0.00  0.00    +0.000 Cl
ATOM     16  C   UNL     1       4.062   4.107  16.796  0.00  0.00    +0.000 A 
ATOM     17  C   UNL     1       3.254   4.868  17.644  0.00  0.00    +0.000 A 
ENDBRANCH  10  11
BRANCH   5  18
ATOM     18  S   UNL     1      -0.929  11.696  21.103  0.00  0.00    +0.000 S 
BRANCH  18  19
ATOM     19  C   UNL     1      -1.421  12.520  19.567  0.00  0.00    +0.000 C 
BRANCH  19  20
ATOM     20  C   UNL     1      -2.745  11.966  19.078  0.00  0.00    +0.000 A 
ATOM     21  C   UNL     1      -2.782  11.039  18.024  0.00  0.00    +0.000 A 
ATOM     22  C   UNL     1      -4.001  10.556  17.539  0.00  0.00    +0.000 A 
ATOM     23  C   UNL     1      -5.200  10.995  18.098  0.00  0.00    +0.000 A 
ATOM     24  C   UNL     1      -5.179  11.923  19.139  0.00  0.00    +0.000 A 
ATOM     25  C   UNL     1      -3.961  12.410  19.623  0.00  0.00    +0.000 A 
ENDBRANCH  19  20
ENDBRANCH  18  19
ENDBRANCH   5  18
TORSDOF 4
ENDMDL
MODEL 8
REMARK VINA RESULT:      -7.2      4.512      9.543
REMARK  Name = 
REMARK  4 active torsions:
REMARK  status: ('A' for Active; 'I' for Inactive)
REMARK    1  A    between atoms: C_5  and  S_6
REMARK    2  A    between atoms: S_6  and  C_7
REMARK    3  A    between atoms: C_7  and  C_8
REMARK    4  A    between atoms: N_18  and  C_19
REMARK                            x       y       z     vdW  Elec       q    Type
REMARK                         _______ _______ _______ _____ _____    ______ ____
ROOT
ATOM      1  O   UNL     1       1.459   7.101  20.912  0.00  0.00    +0.000 OA
ATOM      2  C   UNL     1       1.672   7.818  19.934  0.00  0.00    +0.000 A 
ATOM      3  C   UNL     1       1.275   9.186  19.864  0.00  0.00    +0.000 A 
ATOM      4  S   UNL     1       0.475  10.017  21.101  0.00  0.00    +0.000 S 
ATOM      5  C   UNL     1       0.485  11.431  20.116  0.00  0.00    +0.000 A 
ATOM      6  N   UNL     1       1.007  11.291  18.915  0.00  0.00    +0.000 NA
ATOM      7  C   UNL     1       1.471   9.992  18.777  0.00  0.00    +0.000 A 
ATOM      8  N   UNL     1       2.101   9.506  17.622  0.00  0.00    +0.000 NA
ATOM      9  C   UNL     1       2.447   8.254  17.683  0.00  0.00    +0.000 A 
ATOM     10  N   UNL     1       2.276   7.377  18.748  0.00  0.00    +0.000 N 
ENDROOT
BRANCH  10  11
ATOM     11  C   UNL     1       2.658   6.006  18.625  0.00  0.00    +0.000 A 
ATOM     12  C   UNL     1       1.846   5.098  17.929  0.00  0.00    +0.000 A 
ATOM     13  C   UNL     1       2.173   3.736  17.897  0.00  0.00    +0.000 A 
ATOM     14  C   UNL     1       3.332   3.282  18.522  0.00  0.00    +0.000 A 
ATOM     15 CL   UNL     1       3.729   1.609  18.483  0.00  0.00    +0.000 Cl
ATOM     16  C   UNL     1       4.165   4.175  19.189  0.00  0.00    +0.000 A 
ATOM     17  C   UNL     1       3.821   5.528  19.252  0.00  0.00    +0.000 A 
ENDBRANCH  10  11
BRANCH   5  18
ATOM     18  S   UNL     1      -0.102  12.939  20.774  0.00  0.00    +0.000 S 
BRANCH  18  19
ATOM     19  C   UNL     1      -0.796  12.455  22.375  0.00  0.00    +0.000 C 
BRANCH  19  20
ATOM     20  C   UNL     1      -2.300  12.651  22.374  0.00  0.00    +0.000 A 
ATOM     21  C   UNL     1      -3.021  12.630  23.577  0.00  0.00    +0.000 A 
ATOM     22  C   UNL     1      -4.413  12.767  23.580  0.00  0.00    +0.000 A 
ATOM     23  C   UNL     1      -5.103  12.923  22.380  0.00  0.00    +0.000 A 
ATOM     24  C   UNL     1      -4.400  12.936  21.175  0.00  0.00    +0.000 A 
ATOM     25  C   UNL     1      -3.010  12.795  21.170  0.00  0.00    +0.000 A 
ENDBRANCH  19  20
ENDBRANCH  18  19
ENDBRANCH   5  18
TORSDOF 4
ENDMDL
MODEL 9
REMARK VINA RESULT:      -7.2      3.730      4.928
REMARK  Name = 
REMARK  4 active torsions:
REMARK  status: ('A' for Active; 'I' for Inactive)
REMARK    1  A    between atoms: C_5  and  S_6
REMARK    2  A    between atoms: S_6  and  C_7
REMARK    3  A    between atoms: C_7  and  C_8
REMARK    4  A    between atoms: N_18  and  C_19
REMARK                            x       y       z     vdW  Elec       q    Type
REMARK                         _______ _______ _______ _____ _____    ______ ____
ROOT
ATOM      1  O   UNL     1      -0.389  10.560  23.492  0.00  0.00    +0.000 OA
ATOM      2  C   UNL     1      -0.414  10.834  22.292  0.00  0.00    +0.000 A 
ATOM      3  C   UNL     1       0.271  10.072  21.299  0.00  0.00    +0.000 A 
ATOM      4  S   UNL     1       1.191   8.689  21.619  0.00  0.00    +0.000 S 
ATOM      5  C   UNL     1       1.515   8.553  19.931  0.00  0.00    +0.000 A 
ATOM      6  N   UNL     1       1.013   9.505  19.171  0.00  0.00    +0.000 NA
ATOM      7  C   UNL     1       0.286  10.376  19.967  0.00  0.00    +0.000 A 
ATOM      8  N   UNL     1      -0.398  11.498  19.475  0.00  0.00    +0.000 NA
ATOM      9  C   UNL     1      -1.006  12.200  20.384  0.00  0.00    +0.000 A 
ATOM     10  N   UNL     1      -1.061  11.954  21.751  0.00  0.00    +0.000 N 
ENDROOT
BRANCH  10  11
ATOM     11  C   UNL     1      -1.724  12.869  22.626  0.00  0.00    +0.000 A 
ATOM     12  C   UNL     1      -3.107  12.777  22.840  0.00  0.00    +0.000 A 
ATOM     13  C   UNL     1      -3.768  13.736  23.618  0.00  0.00    +0.000 A 
ATOM     14  C   UNL     1      -3.047  14.766  24.218  0.00  0.00    +0.000 A 
ATOM     15 CL   UNL     1      -3.863  15.944  25.169  0.00  0.00    +0.000 Cl
ATOM     16  C   UNL     1      -1.670  14.852  24.041  0.00  0.00    +0.000 A 
ATOM     17  C   UNL     1      -1.015  13.916  23.237  0.00  0.00    +0.000 A 
ENDBRANCH  10  11
BRANCH   5  18
ATOM     18  S   UNL     1       2.392   7.165  19.335  0.00  0.00    +0.000 S 
BRANCH  18  19
ATOM     19  C   UNL     1       1.905   5.843  20.473  0.00  0.00    +0.000 C 
BRANCH  19  20
ATOM     20  C   UNL     1       1.970   4.500  19.771  0.00  0.00    +0.000 A 
ATOM     21  C   UNL     1       3.103   4.141  19.024  0.00  0.00    +0.000 A 
ATOM     22  C   UNL     1       3.153   2.923  18.339  0.00  0.00    +0.000 A 
ATOM     23  C   UNL     1       2.069   2.049  18.387  0.00  0.00    +0.000 A 
ATOM     24  C   UNL     1       0.932   2.396  19.118  0.00  0.00    +0.000 A 
ATOM     25  C   UNL     1       0.880   3.615  19.800  0.00  0.00    +0.000 A 
ENDBRANCH  19  20
ENDBRANCH  18  19
ENDBRANCH   5  18
TORSDOF 4
ENDMDL
