MODEL 1
REMARK VINA RESULT:      -7.2      0.000      0.000
REMARK  Name = 
REMARK  6 active torsions:
REMARK  status: ('A' for Active; 'I' for Inactive)
REMARK    1  A    between atoms: C_1  and  O_2
REMARK    2  A    between atoms: O_2  and  C_3
REMARK    3  A    between atoms: C_3  and  C_5
REMARK    4  A    between atoms: C_8  and  N_9
REMARK    5  A    between atoms: C_10  and  C_12
REMARK    6  A    between atoms: C_12  and  N_13
REMARK                            x       y       z     vdW  Elec       q    Type
REMARK                         _______ _______ _______ _____ _____    ______ ____
ROOT
ATOM      1  N   UNL     1       5.563   3.979  17.979  0.00  0.00    +0.000 N 
ATOM      2  C   UNL     1       4.216   3.833  17.675  0.00  0.00    +0.000 C 
ATOM      3  O   UNL     1       3.464   4.746  17.340  0.00  0.00    +0.000 OA
ATOM      4  H   UNL     1       6.114   3.136  18.111  0.00  0.00    +0.000 HD
ENDROOT
BRANCH   1   8
ATOM      5  C   UNL     1       7.560   7.718  17.976  0.00  0.00    +0.000 A 
ATOM      6  C   UNL     1       8.010   6.692  18.811  0.00  0.00    +0.000 A 
ATOM      7  C   UNL     1       7.363   5.451  18.814  0.00  0.00    +0.000 A 
ATOM      8  C   UNL     1       6.263   5.209  17.986  0.00  0.00    +0.000 A 
ATOM      9  C   UNL     1       5.839   6.223  17.121  0.00  0.00    +0.000 A 
ATOM     10  C   UNL     1       6.471   7.477  17.128  0.00  0.00    +0.000 A 
BRANCH   5  11
ATOM     11  C   UNL     1       8.280   9.020  18.026  0.00  0.00    +0.000 C 
ATOM     12  O   UNL     1       8.118   9.916  17.215  0.00  0.00    +0.000 OA
BRANCH  11  14
ATOM     13  C   UNL     1       9.428  10.372  19.548  0.00  0.00    +0.000 C 
ATOM     14  O   UNL     1       9.121   9.053  19.088  0.00  0.00    +0.000 OA
ENDBRANCH  11  14
ENDBRANCH   5  11
ENDBRANCH   1   8
BRANCH   2  15
ATOM     15  C   UNL     1       3.664   2.424  17.871  0.00  0.00    +0.000 C 
BRANCH  15  16
ATOM     16  N   UNL     1       2.960   2.442  19.135  0.00  0.00    +0.000 N 
ATOM     17  C   UNL     1       3.589   2.388  20.339  0.00  0.00    +0.000 C 
ATOM     18  O   UNL     1       4.790   2.244  20.515  0.00  0.00    +0.000 OA
ATOM     19  C   UNL     1       2.567   2.520  21.427  0.00  0.00    +0.000 C 
ATOM     20  C   UNL     1       1.275   2.826  20.689  0.00  0.00    +0.000 C 
ATOM     21  C   UNL     1       1.607   2.593  19.245  0.00  0.00    +0.000 C 
ATOM     22  O   UNL     1       0.787   2.571  18.343  0.00  0.00    +0.000 OA
ENDBRANCH  15  16
ENDBRANCH   2  15
TORSDOF 5
ENDMDL
MODEL 2
REMARK VINA RESULT:      -7.1      4.674      6.216
REMARK  Name = 
REMARK  6 active torsions:
REMARK  status: ('A' for Active; 'I' for Inactive)
REMARK    1  A    between atoms: C_1  and  O_2
REMARK    2  A    between atoms: O_2  and  C_3
REMARK    3  A    between atoms: C_3  and  C_5
REMARK    4  A    between atoms: C_8  and  N_9
REMARK    5  A    between atoms: C_10  and  C_12
REMARK    6  A    between atoms: C_12  and  N_13
REMARK                            x       y       z     vdW  Elec       q    Type
REMARK                         _______ _______ _______ _____ _____    ______ ____
ROOT
ATOM      1  N   UNL     1       3.415   6.215  18.847  0.00  0.00    +0.000 N 
ATOM      2  C   UNL     1       3.063   5.013  18.248  0.00  0.00    +0.000 C 
ATOM      3  O   UNL     1       1.993   4.788  17.685  0.00  0.00    +0.000 OA
ATOM      4  H   UNL     1       4.374   6.326  19.161  0.00  0.00    +0.000 HD
ENDROOT
BRANCH   1   8
ATOM      5  C   UNL     1       0.935   9.632  19.218  0.00  0.00    +0.000 A 
ATOM      6  C   UNL     1       1.538   9.343  17.991  0.00  0.00    +0.000 A 
ATOM      7  C   UNL     1       2.352   8.213  17.855  0.00  0.00    +0.000 A 
ATOM      8  C   UNL     1       2.576   7.352  18.934  0.00  0.00    +0.000 A 
ATOM      9  C   UNL     1       1.939   7.619  20.150  0.00  0.00    +0.000 A 
ATOM     10  C   UNL     1       1.137   8.763  20.298  0.00  0.00    +0.000 A 
BRANCH   5  11
ATOM     11  C   UNL     1       0.089  10.855  19.305  0.00  0.00    +0.000 C 
ATOM     12  O   UNL     1       0.088  11.611  20.262  0.00  0.00    +0.000 OA
BRANCH  11  14
ATOM     13  C   UNL     1      -2.035  10.656  18.354  0.00  0.00    +0.000 C 
ATOM     14  O   UNL     1      -0.657  10.993  18.182  0.00  0.00    +0.000 OA
ENDBRANCH  11  14
ENDBRANCH   5  11
ENDBRANCH   1   8
BRANCH   2  15
ATOM     15  C   UNL     1       4.090   3.894  18.406  0.00  0.00    +0.000 C 
BRANCH  15  16
ATOM     16  N   UNL     1       5.326   4.403  17.853  0.00  0.00    +0.000 N 
ATOM     17  C   UNL     1       6.335   4.900  18.617  0.00  0.00    +0.000 C 
ATOM     18  O   UNL     1       6.308   5.052  19.830  0.00  0.00    +0.000 OA
ATOM     19  C   UNL     1       7.491   5.248  17.729  0.00  0.00    +0.000 C 
ATOM     20  C   UNL     1       7.079   4.729  16.362  0.00  0.00    +0.000 C 
ATOM     21  C   UNL     1       5.633   4.363  16.523  0.00  0.00    +0.000 C 
ATOM     22  O   UNL     1       4.891   4.061  15.604  0.00  0.00    +0.000 OA
ENDBRANCH  15  16
ENDBRANCH   2  15
TORSDOF 5
ENDMDL
MODEL 3
REMARK VINA RESULT:      -7.0      4.546      5.892
REMARK  Name = 
REMARK  6 active torsions:
REMARK  status: ('A' for Active; 'I' for Inactive)
REMARK    1  A    between atoms: C_1  and  O_2
REMARK    2  A    between atoms: O_2  and  C_3
REMARK    3  A    between atoms: C_3  and  C_5
REMARK    4  A    between atoms: C_8  and  N_9
REMARK    5  A    between atoms: C_10  and  C_12
REMARK    6  A    between atoms: C_12  and  N_13
REMARK                            x       y       z     vdW  Elec       q    Type
REMARK                         _______ _______ _______ _____ _____    ______ ____
ROOT
ATOM      1  N   UNL     1       3.463   6.213  18.773  0.00  0.00    +0.000 N 
ATOM      2  C   UNL     1       3.086   4.999  18.216  0.00  0.00    +0.000 C 
ATOM      3  O   UNL     1       1.999   4.769  17.689  0.00  0.00    +0.000 OA
ATOM      4  H   UNL     1       4.431   6.324  19.058  0.00  0.00    +0.000 HD
ENDROOT
BRANCH   1   8
ATOM      5  C   UNL     1       1.012   9.653  19.126  0.00  0.00    +0.000 A 
ATOM      6  C   UNL     1       1.662   9.386  17.918  0.00  0.00    +0.000 A 
ATOM      7  C   UNL     1       2.468   8.249  17.788  0.00  0.00    +0.000 A 
ATOM      8  C   UNL     1       2.636   7.359  18.853  0.00  0.00    +0.000 A 
ATOM      9  C   UNL     1       1.952   7.606  20.049  0.00  0.00    +0.000 A 
ATOM     10  C   UNL     1       1.159   8.757  20.191  0.00  0.00    +0.000 A 
BRANCH   5  11
ATOM     11  C   UNL     1       0.180  10.886  19.208  0.00  0.00    +0.000 C 
ATOM     12  O   UNL     1      -1.025  10.878  19.401  0.00  0.00    +0.000 OA
BRANCH  11  14
ATOM     13  C   UNL     1       1.458  12.534  20.259  0.00  0.00    +0.000 C 
ATOM     14  O   UNL     1       0.950  11.988  19.040  0.00  0.00    +0.000 OA
ENDBRANCH  11  14
ENDBRANCH   5  11
ENDBRANCH   1   8
BRANCH   2  15
ATOM     15  C   UNL     1       4.108   3.877  18.375  0.00  0.00    +0.000 C 
BRANCH  15  16
ATOM     16  N   UNL     1       5.348   4.382  17.827  0.00  0.00    +0.000 N 
ATOM     17  C   UNL     1       6.340   4.908  18.593  0.00  0.00    +0.000 C 
ATOM     18  O   UNL     1       6.293   5.092  19.801  0.00  0.00    +0.000 OA
ATOM     19  C   UNL     1       7.507   5.244  17.714  0.00  0.00    +0.000 C 
ATOM     20  C   UNL     1       7.120   4.686  16.354  0.00  0.00    +0.000 C 
ATOM     21  C   UNL     1       5.675   4.310  16.503  0.00  0.00    +0.000 C 
ATOM     22  O   UNL     1       4.950   3.978  15.582  0.00  0.00    +0.000 OA
ENDBRANCH  15  16
ENDBRANCH   2  15
TORSDOF 5
ENDMDL
MODEL 4
REMARK VINA RESULT:      -7.0      4.729      6.532
REMARK  Name = 
REMARK  6 active torsions:
REMARK  status: ('A' for Active; 'I' for Inactive)
REMARK    1  A    between atoms: C_1  and  O_2
REMARK    2  A    between atoms: O_2  and  C_3
REMARK    3  A    between atoms: C_3  and  C_5
REMARK    4  A    between atoms: C_8  and  N_9
REMARK    5  A    between atoms: C_10  and  C_12
REMARK    6  A    between atoms: C_12  and  N_13
REMARK                            x       y       z     vdW  Elec       q    Type
REMARK                         _______ _______ _______ _____ _____    ______ ____
ROOT
ATOM      1  N   UNL     1       3.256   6.799  17.823  0.00  0.00    +0.000 N 
ATOM      2  C   UNL     1       3.186   5.413  17.800  0.00  0.00    +0.000 C 
ATOM      3  O   UNL     1       2.369   4.735  18.421  0.00  0.00    +0.000 OA
ATOM      4  H   UNL     1       3.884   7.253  17.167  0.00  0.00    +0.000 HD
ENDROOT
BRANCH   1   8
ATOM      5  C   UNL     1       0.819   9.293  20.232  0.00  0.00    +0.000 A 
ATOM      6  C   UNL     1       0.980   9.584  18.876  0.00  0.00    +0.000 A 
ATOM      7  C   UNL     1       1.777   8.763  18.069  0.00  0.00    +0.000 A 
ATOM      8  C   UNL     1       2.420   7.640  18.596  0.00  0.00    +0.000 A 
ATOM      9  C   UNL     1       2.224   7.326  19.946  0.00  0.00    +0.000 A 
ATOM     10  C   UNL     1       1.443   8.157  20.765  0.00  0.00    +0.000 A 
BRANCH   5  11
ATOM     11  C   UNL     1      -0.029  10.210  21.043  0.00  0.00    +0.000 C 
ATOM     12  O   UNL     1      -0.637  11.159  20.577  0.00  0.00    +0.000 OA
BRANCH  11  14
ATOM     13  C   UNL     1      -0.973  10.525  23.157  0.00  0.00    +0.000 C 
ATOM     14  O   UNL     1      -0.021   9.834  22.345  0.00  0.00    +0.000 OA
ENDBRANCH  11  14
ENDBRANCH   5  11
ENDBRANCH   1   8
BRANCH   2  15
ATOM     15  C   UNL     1       4.286   4.729  16.993  0.00  0.00    +0.000 C 
BRANCH  15  16
ATOM     16  N   UNL     1       5.538   5.251  17.498  0.00  0.00    +0.000 N 
ATOM     17  C   UNL     1       6.191   6.298  16.928  0.00  0.00    +0.000 C 
ATOM     18  O   UNL     1       5.865   6.874  15.901  0.00  0.00    +0.000 OA
ATOM     19  C   UNL     1       7.395   6.629  17.758  0.00  0.00    +0.000 C 
ATOM     20  C   UNL     1       7.259   5.738  18.982  0.00  0.00    +0.000 C 
ATOM     21  C   UNL     1       6.142   4.798  18.636  0.00  0.00    +0.000 C 
ATOM     22  O   UNL     1       5.836   3.819  19.293  0.00  0.00    +0.000 OA
ENDBRANCH  15  16
ENDBRANCH   2  15
TORSDOF 5
ENDMDL
MODEL 5
REMARK VINA RESULT:      -7.0      4.737      6.369
REMARK  Name = 
REMARK  6 active torsions:
REMARK  status: ('A' for Active; 'I' for Inactive)
REMARK    1  A    between atoms: C_1  and  O_2
REMARK    2  A    between atoms: O_2  and  C_3
REMARK    3  A    between atoms: C_3  and  C_5
REMARK    4  A    between atoms: C_8  and  N_9
REMARK    5  A    between atoms: C_10  and  C_12
REMARK    6  A    between atoms: C_12  and  N_13
REMARK                            x       y       z     vdW  Elec       q    Type
REMARK                         _______ _______ _______ _____ _____    ______ ____
ROOT
ATOM      1  N   UNL     1       3.210   6.714  17.926  0.00  0.00    +0.000 N 
ATOM      2  C   UNL     1       2.977   5.350  17.805  0.00  0.00    +0.000 C 
ATOM      3  O   UNL     1       2.018   4.750  18.285  0.00  0.00    +0.000 OA
ATOM      4  H   UNL     1       3.960   7.118  17.376  0.00  0.00    +0.000 HD
ENDROOT
BRANCH   1   8
ATOM      5  C   UNL     1       0.705   9.423  20.013  0.00  0.00    +0.000 A 
ATOM      6  C   UNL     1       1.278   8.345  20.693  0.00  0.00    +0.000 A 
ATOM      7  C   UNL     1       2.113   7.448  20.015  0.00  0.00    +0.000 A 
ATOM      8  C   UNL     1       2.394   7.612  18.656  0.00  0.00    +0.000 A 
ATOM      9  C   UNL     1       1.853   8.715  17.986  0.00  0.00    +0.000 A 
ATOM     10  C   UNL     1       0.999   9.606  18.656  0.00  0.00    +0.000 A 
BRANCH   5  11
ATOM     11  C   UNL     1      -0.185  10.335  20.784  0.00  0.00    +0.000 C 
ATOM     12  O   UNL     1      -0.361  11.508  20.501  0.00  0.00    +0.000 OA
BRANCH  11  14
ATOM     13  C   UNL     1      -0.642  10.351  23.075  0.00  0.00    +0.000 C 
ATOM     14  O   UNL     1      -0.753   9.674  21.821  0.00  0.00    +0.000 OA
ENDBRANCH  11  14
ENDBRANCH   5  11
ENDBRANCH   1   8
BRANCH   2  15
ATOM     15  C   UNL     1       4.076   4.576  17.082  0.00  0.00    +0.000 C 
BRANCH  15  16
ATOM     16  N   UNL     1       5.324   5.202  17.462  0.00  0.00    +0.000 N 
ATOM     17  C   UNL     1       6.043   4.827  18.554  0.00  0.00    +0.000 C 
ATOM     18  O   UNL     1       5.708   3.991  19.380  0.00  0.00    +0.000 OA
ATOM     19  C   UNL     1       7.316   5.617  18.592  0.00  0.00    +0.000 C 
ATOM     20  C   UNL     1       7.317   6.385  17.281  0.00  0.00    +0.000 C 
ATOM     21  C   UNL     1       5.940   6.171  16.723  0.00  0.00    +0.000 C 
ATOM     22  O   UNL     1       5.487   6.762  15.759  0.00  0.00    +0.000 OA
ENDBRANCH  15  16
ENDBRANCH   2  15
TORSDOF 5
ENDMDL
MODEL 6
REMARK VINA RESULT:      -7.0      4.718      6.126
REMARK  Name = 
REMARK  6 active torsions:
REMARK  status: ('A' for Active; 'I' for Inactive)
REMARK    1  A    between atoms: C_1  and  O_2
REMARK    2  A    between atoms: O_2  and  C_3
REMARK    3  A    between atoms: C_3  and  C_5
REMARK    4  A    between atoms: C_8  and  N_9
REMARK    5  A    between atoms: C_10  and  C_12
REMARK    6  A    between atoms: C_12  and  N_13
REMARK                            x       y       z     vdW  Elec       q    Type
REMARK                         _______ _______ _______ _____ _____    ______ ____
ROOT
ATOM      1  N   UNL     1       3.430   6.229  18.804  0.00  0.00    +0.000 N 
ATOM      2  C   UNL     1       3.043   5.045  18.193  0.00  0.00    +0.000 C 
ATOM      3  O   UNL     1       1.967   4.859  17.627  0.00  0.00    +0.000 OA
ATOM      4  H   UNL     1       4.392   6.308  19.120  0.00  0.00    +0.000 HD
ENDROOT
BRANCH   1   8
ATOM      5  C   UNL     1       1.003   9.700  18.977  0.00  0.00    +0.000 A 
ATOM      6  C   UNL     1       1.101   8.867  20.094  0.00  0.00    +0.000 A 
ATOM      7  C   UNL     1       1.906   7.722  20.050  0.00  0.00    +0.000 A 
ATOM      8  C   UNL     1       2.627   7.392  18.900  0.00  0.00    +0.000 A 
ATOM      9  C   UNL     1       2.561   8.249  17.796  0.00  0.00    +0.000 A 
ATOM     10  C   UNL     1       1.740   9.388  17.827  0.00  0.00    +0.000 A 
BRANCH   5  11
ATOM     11  C   UNL     1       0.122  10.896  19.079  0.00  0.00    +0.000 C 
ATOM     12  O   UNL     1       0.426  11.913  19.680  0.00  0.00    +0.000 OA
BRANCH  11  14
ATOM     13  C   UNL     1      -1.908  11.819  18.380  0.00  0.00    +0.000 C 
ATOM     14  O   UNL     1      -1.040  10.683  18.414  0.00  0.00    +0.000 OA
ENDBRANCH  11  14
ENDBRANCH   5  11
ENDBRANCH   1   8
BRANCH   2  15
ATOM     15  C   UNL     1       4.033   3.893  18.342  0.00  0.00    +0.000 C 
BRANCH  15  16
ATOM     16  N   UNL     1       5.288   4.371  17.803  0.00  0.00    +0.000 N 
ATOM     17  C   UNL     1       6.294   4.856  18.577  0.00  0.00    +0.000 C 
ATOM     18  O   UNL     1       6.252   5.023  19.788  0.00  0.00    +0.000 OA
ATOM     19  C   UNL     1       7.471   5.171  17.704  0.00  0.00    +0.000 C 
ATOM     20  C   UNL     1       7.070   4.645  16.336  0.00  0.00    +0.000 C 
ATOM     21  C   UNL     1       5.614   4.310  16.478  0.00  0.00    +0.000 C 
ATOM     22  O   UNL     1       4.881   4.013  15.551  0.00  0.00    +0.000 OA
ENDBRANCH  15  16
ENDBRANCH   2  15
TORSDOF 5
ENDMDL
MODEL 7
REMARK VINA RESULT:      -7.0      4.723      6.393
REMARK  Name = 
REMARK  6 active torsions:
REMARK  status: ('A' for Active; 'I' for Inactive)
REMARK    1  A    between atoms: C_1  and  O_2
REMARK    2  A    between atoms: O_2  and  C_3
REMARK    3  A    between atoms: C_3  and  C_5
REMARK    4  A    between atoms: C_8  and  N_9
REMARK    5  A    between atoms: C_10  and  C_12
REMARK    6  A    between atoms: C_12  and  N_13
REMARK                            x       y       z     vdW  Elec       q    Type
REMARK                         _______ _______ _______ _____ _____    ______ ____
ROOT
ATOM      1  N   UNL     1       3.479   6.284  18.714  0.00  0.00    +0.000 N 
ATOM      2  C   UNL     1       3.116   5.059  18.171  0.00  0.00    +0.000 C 
ATOM      3  O   UNL     1       2.016   4.797  17.688  0.00  0.00    +0.000 OA
ATOM      4  H   UNL     1       4.454   6.423  18.960  0.00  0.00    +0.000 HD
ENDROOT
BRANCH   1   8
ATOM      5  C   UNL     1       0.942   9.648  19.168  0.00  0.00    +0.000 A 
ATOM      6  C   UNL     1       1.580   9.422  17.946  0.00  0.00    +0.000 A 
ATOM      7  C   UNL     1       2.414   8.309  17.783  0.00  0.00    +0.000 A 
ATOM      8  C   UNL     1       2.623   7.405  18.828  0.00  0.00    +0.000 A 
ATOM      9  C   UNL     1       1.950   7.611  20.038  0.00  0.00    +0.000 A 
ATOM     10  C   UNL     1       1.129   8.736  20.214  0.00  0.00    +0.000 A 
BRANCH   5  11
ATOM     11  C   UNL     1       0.077  10.855  19.285  0.00  0.00    +0.000 C 
ATOM     12  O   UNL     1       0.487  11.951  19.632  0.00  0.00    +0.000 OA
BRANCH  11  14
ATOM     13  C   UNL     1      -1.885  11.598  18.257  0.00  0.00    +0.000 C 
ATOM     14  O   UNL     1      -1.202  10.554  18.954  0.00  0.00    +0.000 OA
ENDBRANCH  11  14
ENDBRANCH   5  11
ENDBRANCH   1   8
BRANCH   2  15
ATOM     15  C   UNL     1       4.176   3.967  18.289  0.00  0.00    +0.000 C 
BRANCH  15  16
ATOM     16  N   UNL     1       5.401   4.540  17.774  0.00  0.00    +0.000 N 
ATOM     17  C   UNL     1       5.692   4.606  16.448  0.00  0.00    +0.000 C 
ATOM     18  O   UNL     1       5.018   4.138  15.541  0.00  0.00    +0.000 OA
ATOM     19  C   UNL     1       6.987   5.338  16.271  0.00  0.00    +0.000 C 
ATOM     20  C   UNL     1       7.327   5.836  17.666  0.00  0.00    +0.000 C 
ATOM     21  C   UNL     1       6.345   5.138  18.559  0.00  0.00    +0.000 C 
ATOM     22  O   UNL     1       6.395   5.143  19.777  0.00  0.00    +0.000 OA
ENDBRANCH  15  16
ENDBRANCH   2  15
TORSDOF 5
ENDMDL
MODEL 8
REMARK VINA RESULT:      -6.9      4.668      6.402
REMARK  Name = 
REMARK  6 active torsions:
REMARK  status: ('A' for Active; 'I' for Inactive)
REMARK    1  A    between atoms: C_1  and  O_2
REMARK    2  A    between atoms: O_2  and  C_3
REMARK    3  A    between atoms: C_3  and  C_5
REMARK    4  A    between atoms: C_8  and  N_9
REMARK    5  A    between atoms: C_10  and  C_12
REMARK    6  A    between atoms: C_12  and  N_13
REMARK                            x       y       z     vdW  Elec       q    Type
REMARK                         _______ _______ _______ _____ _____    ______ ____
ROOT
ATOM      1  N   UNL     1       3.468   6.298  18.771  0.00  0.00    +0.000 N 
ATOM      2  C   UNL     1       3.100   5.080  18.216  0.00  0.00    +0.000 C 
ATOM      3  O   UNL     1       1.989   4.816  17.759  0.00  0.00    +0.000 OA
ATOM      4  H   UNL     1       4.448   6.442  18.993  0.00  0.00    +0.000 HD
ENDROOT
BRANCH   1   8
ATOM      5  C   UNL     1       0.856   9.617  19.130  0.00  0.00    +0.000 A 
ATOM      6  C   UNL     1       1.060   8.775  20.225  0.00  0.00    +0.000 A 
ATOM      7  C   UNL     1       1.927   7.680  20.120  0.00  0.00    +0.000 A 
ATOM      8  C   UNL     1       2.605   7.409  18.929  0.00  0.00    +0.000 A 
ATOM      9  C   UNL     1       2.431   8.277  17.845  0.00  0.00    +0.000 A 
ATOM     10  C   UNL     1       1.548   9.365  17.938  0.00  0.00    +0.000 A 
BRANCH   5  11
ATOM     11  C   UNL     1      -0.087  10.758  19.298  0.00  0.00    +0.000 C 
ATOM     12  O   UNL     1      -0.182  11.413  20.322  0.00  0.00    +0.000 OA
BRANCH  11  14
ATOM     13  C   UNL     1      -2.084  10.314  18.170  0.00  0.00    +0.000 C 
ATOM     14  O   UNL     1      -0.803  10.948  18.163  0.00  0.00    +0.000 OA
ENDBRANCH  11  14
ENDBRANCH   5  11
ENDBRANCH   1   8
BRANCH   2  15
ATOM     15  C   UNL     1       4.172   3.996  18.285  0.00  0.00    +0.000 C 
BRANCH  15  16
ATOM     16  N   UNL     1       5.386   4.599  17.779  0.00  0.00    +0.000 N 
ATOM     17  C   UNL     1       5.675   4.691  16.453  0.00  0.00    +0.000 C 
ATOM     18  O   UNL     1       5.009   4.224  15.540  0.00  0.00    +0.000 OA
ATOM     19  C   UNL     1       6.956   5.450  16.287  0.00  0.00    +0.000 C 
ATOM     20  C   UNL     1       7.288   5.932  17.689  0.00  0.00    +0.000 C 
ATOM     21  C   UNL     1       6.319   5.202  18.573  0.00  0.00    +0.000 C 
ATOM     22  O   UNL     1       6.370   5.190  19.790  0.00  0.00    +0.000 OA
ENDBRANCH  15  16
ENDBRANCH   2  15
TORSDOF 5
ENDMDL
MODEL 9
REMARK VINA RESULT:      -6.9      4.868      5.831
REMARK  Name = 
REMARK  6 active torsions:
REMARK  status: ('A' for Active; 'I' for Inactive)
REMARK    1  A    between atoms: C_1  and  O_2
REMARK    2  A    between atoms: O_2  and  C_3
REMARK    3  A    between atoms: C_3  and  C_5
REMARK    4  A    between atoms: C_8  and  N_9
REMARK    5  A    between atoms: C_10  and  C_12
REMARK    6  A    between atoms: C_12  and  N_13
REMARK                            x       y       z     vdW  Elec       q    Type
REMARK                         _______ _______ _______ _____ _____    ______ ____
ROOT
ATOM      1  N   UNL     1       2.793   6.301  18.098  0.00  0.00    +0.000 N 
ATOM      2  C   UNL     1       4.073   6.205  17.567  0.00  0.00    +0.000 C 
ATOM      3  O   UNL     1       4.884   7.127  17.504  0.00  0.00    +0.000 OA
ATOM      4  H   UNL     1       2.264   5.444  18.218  0.00  0.00    +0.000 HD
ENDROOT
BRANCH   1   8
ATOM      5  C   UNL     1       1.126   9.835  19.741  0.00  0.00    +0.000 A 
ATOM      6  C   UNL     1       1.372   9.759  18.368  0.00  0.00    +0.000 A 
ATOM      7  C   UNL     1       1.916   8.593  17.814  0.00  0.00    +0.000 A 
ATOM      8  C   UNL     1       2.217   7.488  18.613  0.00  0.00    +0.000 A 
ATOM      9  C   UNL     1       1.931   7.550  19.982  0.00  0.00    +0.000 A 
ATOM     10  C   UNL     1       1.405   8.724  20.546  0.00  0.00    +0.000 A 
BRANCH   5  11
ATOM     11  C   UNL     1       0.559  11.105  20.274  0.00  0.00    +0.000 C 
ATOM     12  O   UNL     1       0.846  11.569  21.365  0.00  0.00    +0.000 OA
BRANCH  11  14
ATOM     13  C   UNL     1      -1.624  11.843  19.888  0.00  0.00    +0.000 C 
ATOM     14  O   UNL     1      -0.302  11.649  19.380  0.00  0.00    +0.000 OA
ENDBRANCH  11  14
ENDBRANCH   5  11
ENDBRANCH   1   8
BRANCH   2  15
ATOM     15  C   UNL     1       4.410   4.850  16.951  0.00  0.00    +0.000 C 
BRANCH  15  16
ATOM     16  N   UNL     1       4.017   3.857  17.927  0.00  0.00    +0.000 N 
ATOM     17  C   UNL     1       2.863   3.145  17.841  0.00  0.00    +0.000 C 
ATOM     18  O   UNL     1       1.989   3.293  16.999  0.00  0.00    +0.000 OA
ATOM     19  C   UNL     1       2.822   2.148  18.960  0.00  0.00    +0.000 C 
ATOM     20  C   UNL     1       4.190   2.265  19.612  0.00  0.00    +0.000 C 
ATOM     21  C   UNL     1       4.799   3.483  18.983  0.00  0.00    +0.000 C 
ATOM     22  O   UNL     1       5.831   4.011  19.359  0.00  0.00    +0.000 OA
ENDBRANCH  15  16
ENDBRANCH   2  15
TORSDOF 5
ENDMDL
