MODEL 1
REMARK VINA RESULT:      -7.5      0.000      0.000
REMARK  Name = 
REMARK  5 active torsions:
REMARK  status: ('A' for Active; 'I' for Inactive)
REMARK    1  A    between atoms: C_1  and  C_2
REMARK    2  A    between atoms: C_2  and  O_3
REMARK    3  A    between atoms: O_3  and  C_4
REMARK    4  A    between atoms: C_7  and  C_8
REMARK    5  A    between atoms: C_13  and  C_14
REMARK                            x       y       z     vdW  Elec       q    Type
REMARK                         _______ _______ _______ _____ _____    ______ ____
ROOT
ATOM      1  C   UNL     1       6.628   5.402  17.122  0.00  0.00    +0.000 C 
ATOM      2  O   UNL     1       7.308   4.686  16.388  0.00  0.00    +0.000 OA
ATOM      3  N   UNL     1       5.311   5.064  17.485  0.00  0.00    +0.000 N 
ATOM      4  C   UNL     1       4.893   3.687  17.233  0.00  0.00    +0.000 C 
ATOM      5  C   UNL     1       3.400   3.560  16.921  0.00  0.00    +0.000 C 
ATOM      6  C   UNL     1       2.497   4.278  17.942  0.00  0.00    +0.000 C 
ATOM      7  C   UNL     1       2.977   5.736  18.032  0.00  0.00    +0.000 C 
ATOM      8  C   UNL     1       4.454   5.839  18.378  0.00  0.00    +0.000 C 
ENDROOT
BRANCH   1  12
ATOM      9  C   UNL     1       8.528   8.990  18.542  0.00  0.00    +0.000 A 
ATOM     10  C   UNL     1       8.698   7.775  19.207  0.00  0.00    +0.000 A 
ATOM     11  C   UNL     1       8.083   6.615  18.728  0.00  0.00    +0.000 A 
ATOM     12  C   UNL     1       7.262   6.668  17.593  0.00  0.00    +0.000 A 
ATOM     13  C   UNL     1       7.011   7.911  17.004  0.00  0.00    +0.000 A 
ATOM     14  C   UNL     1       7.669   9.060  17.449  0.00  0.00    +0.000 A 
BRANCH   9  15
ATOM     15  O   UNL     1       9.217  10.047  19.065  0.00  0.00    +0.000 OA
BRANCH  15  17
ATOM     16  C   UNL     1      10.711  11.460  17.876  0.00  0.00    +0.000 C 
ATOM     17  C   UNL     1       9.261  11.222  18.253  0.00  0.00    +0.000 C 
ENDBRANCH  15  17
ENDBRANCH   9  15
ENDBRANCH   1  12
BRANCH   6  18
ATOM     18  C   UNL     1       2.325   3.611  19.305  0.00  0.00    +0.000 A 
ATOM     19  C   UNL     1       1.135   3.656  20.038  0.00  0.00    +0.000 A 
ATOM     20  C   UNL     1       1.074   3.048  21.285  0.00  0.00    +0.000 A 
ATOM     21  N   UNL     1       2.107   2.416  21.869  0.00  0.00    +0.000 NA
ATOM     22  C   UNL     1       3.262   2.398  21.169  0.00  0.00    +0.000 A 
ATOM     23  C   UNL     1       3.416   2.977  19.918  0.00  0.00    +0.000 A 
ENDBRANCH   6  18
TORSDOF 4
ENDMDL
MODEL 2
REMARK VINA RESULT:      -7.2      0.750      1.277
REMARK  Name = 
REMARK  5 active torsions:
REMARK  status: ('A' for Active; 'I' for Inactive)
REMARK    1  A    between atoms: C_1  and  C_2
REMARK    2  A    between atoms: C_2  and  O_3
REMARK    3  A    between atoms: O_3  and  C_4
REMARK    4  A    between atoms: C_7  and  C_8
REMARK    5  A    between atoms: C_13  and  C_14
REMARK                            x       y       z     vdW  Elec       q    Type
REMARK                         _______ _______ _______ _____ _____    ______ ____
ROOT
ATOM      1  C   UNL     1       6.350   5.265  17.124  0.00  0.00    +0.000 C 
ATOM      2  O   UNL     1       6.933   4.520  16.337  0.00  0.00    +0.000 OA
ATOM      3  N   UNL     1       5.006   5.064  17.488  0.00  0.00    +0.000 N 
ATOM      4  C   UNL     1       4.424   3.764  17.162  0.00  0.00    +0.000 C 
ATOM      5  C   UNL     1       2.925   3.833  16.868  0.00  0.00    +0.000 C 
ATOM      6  C   UNL     1       2.123   4.589  17.944  0.00  0.00    +0.000 C 
ATOM      7  C   UNL     1       2.773   5.972  18.113  0.00  0.00    +0.000 C 
ATOM      8  C   UNL     1       4.255   5.878  18.440  0.00  0.00    +0.000 C 
ENDROOT
BRANCH   1  12
ATOM      9  C   UNL     1       8.551   8.654  18.598  0.00  0.00    +0.000 A 
ATOM     10  C   UNL     1       7.806   8.737  17.421  0.00  0.00    +0.000 A 
ATOM     11  C   UNL     1       7.088   7.631  16.959  0.00  0.00    +0.000 A 
ATOM     12  C   UNL     1       7.134   6.416  17.658  0.00  0.00    +0.000 A 
ATOM     13  C   UNL     1       7.973   6.315  18.773  0.00  0.00    +0.000 A 
ATOM     14  C   UNL     1       8.647   7.436  19.264  0.00  0.00    +0.000 A 
BRANCH   9  15
ATOM     15  O   UNL     1       9.170   9.808  18.985  0.00  0.00    +0.000 OA
BRANCH  15  17
ATOM     16  C   UNL     1      10.350  11.514  17.828  0.00  0.00    +0.000 C 
ATOM     17  C   UNL     1       8.981  10.932  18.125  0.00  0.00    +0.000 C 
ENDBRANCH  15  17
ENDBRANCH   9  15
ENDBRANCH   1  12
BRANCH   6  18
ATOM     18  C   UNL     1       1.885   3.865  19.267  0.00  0.00    +0.000 A 
ATOM     19  C   UNL     1       2.056   4.471  20.516  0.00  0.00    +0.000 A 
ATOM     20  C   UNL     1       1.849   3.729  21.672  0.00  0.00    +0.000 A 
ATOM     21  N   UNL     1       1.504   2.430  21.685  0.00  0.00    +0.000 NA
ATOM     22  C   UNL     1       1.366   1.842  20.477  0.00  0.00    +0.000 A 
ATOM     23  C   UNL     1       1.552   2.502  19.271  0.00  0.00    +0.000 A 
ENDBRANCH   6  18
TORSDOF 4
ENDMDL
MODEL 3
REMARK VINA RESULT:      -7.1      4.795      7.452
REMARK  Name = 
REMARK  5 active torsions:
REMARK  status: ('A' for Active; 'I' for Inactive)
REMARK    1  A    between atoms: C_1  and  C_2
REMARK    2  A    between atoms: C_2  and  O_3
REMARK    3  A    between atoms: O_3  and  C_4
REMARK    4  A    between atoms: C_7  and  C_8
REMARK    5  A    between atoms: C_13  and  C_14
REMARK                            x       y       z     vdW  Elec       q    Type
REMARK                         _______ _______ _______ _____ _____    ______ ____
ROOT
ATOM      1  C   UNL     1       2.331   6.620  19.733  0.00  0.00    +0.000 C 
ATOM      2  O   UNL     1       2.124   6.029  20.792  0.00  0.00    +0.000 OA
ATOM      3  N   UNL     1       1.798   7.895  19.472  0.00  0.00    +0.000 N 
ATOM      4  C   UNL     1       1.267   8.633  20.616  0.00  0.00    +0.000 C 
ATOM      5  C   UNL     1       0.104   9.556  20.248  0.00  0.00    +0.000 C 
ATOM      6  C   UNL     1       0.402  10.467  19.041  0.00  0.00    +0.000 C 
ATOM      7  C   UNL     1       0.848   9.560  17.882  0.00  0.00    +0.000 C 
ATOM      8  C   UNL     1       2.026   8.676  18.259  0.00  0.00    +0.000 C 
ENDROOT
BRANCH   1  12
ATOM      9  C   UNL     1       4.630   4.495  16.783  0.00  0.00    +0.000 A 
ATOM     10  C   UNL     1       3.387   4.021  17.205  0.00  0.00    +0.000 A 
ATOM     11  C   UNL     1       2.647   4.727  18.156  0.00  0.00    +0.000 A 
ATOM     12  C   UNL     1       3.161   5.903  18.721  0.00  0.00    +0.000 A 
ATOM     13  C   UNL     1       4.454   6.305  18.373  0.00  0.00    +0.000 A 
ATOM     14  C   UNL     1       5.170   5.630  17.382  0.00  0.00    +0.000 A 
BRANCH   9  15
ATOM     15  O   UNL     1       5.243   3.756  15.812  0.00  0.00    +0.000 OA
BRANCH  15  17
ATOM     16  C   UNL     1       6.230   3.937  13.660  0.00  0.00    +0.000 C 
ATOM     17  C   UNL     1       6.290   4.415  15.098  0.00  0.00    +0.000 C 
ENDBRANCH  15  17
ENDBRANCH   9  15
ENDBRANCH   1  12
BRANCH   6  18
ATOM     18  C   UNL     1       1.339  11.649  19.280  0.00  0.00    +0.000 A 
ATOM     19  C   UNL     1       1.458  12.299  20.513  0.00  0.00    +0.000 A 
ATOM     20  C   UNL     1       2.311  13.387  20.635  0.00  0.00    +0.000 A 
ATOM     21  N   UNL     1       3.040  13.893  19.625  0.00  0.00    +0.000 NA
ATOM     22  C   UNL     1       2.902  13.280  18.429  0.00  0.00    +0.000 A 
ATOM     23  C   UNL     1       2.075  12.187  18.213  0.00  0.00    +0.000 A 
ENDBRANCH   6  18
TORSDOF 4
ENDMDL
MODEL 4
REMARK VINA RESULT:      -7.1      4.782      7.429
REMARK  Name = 
REMARK  5 active torsions:
REMARK  status: ('A' for Active; 'I' for Inactive)
REMARK    1  A    between atoms: C_1  and  C_2
REMARK    2  A    between atoms: C_2  and  O_3
REMARK    3  A    between atoms: O_3  and  C_4
REMARK    4  A    between atoms: C_7  and  C_8
REMARK    5  A    between atoms: C_13  and  C_14
REMARK                            x       y       z     vdW  Elec       q    Type
REMARK                         _______ _______ _______ _____ _____    ______ ____
ROOT
ATOM      1  C   UNL     1       2.182   6.613  19.897  0.00  0.00    +0.000 C 
ATOM      2  O   UNL     1       1.948   6.063  20.973  0.00  0.00    +0.000 OA
ATOM      3  N   UNL     1       1.692   7.896  19.591  0.00  0.00    +0.000 N 
ATOM      4  C   UNL     1       1.176   8.686  20.707  0.00  0.00    +0.000 C 
ATOM      5  C   UNL     1       0.047   9.634  20.300  0.00  0.00    +0.000 C 
ATOM      6  C   UNL     1       0.382  10.495  19.068  0.00  0.00    +0.000 C 
ATOM      7  C   UNL     1       0.807   9.538  17.942  0.00  0.00    +0.000 C 
ATOM      8  C   UNL     1       1.954   8.630  18.356  0.00  0.00    +0.000 C 
ENDROOT
BRANCH   1  12
ATOM      9  C   UNL     1       4.622   4.410  17.123  0.00  0.00    +0.000 A 
ATOM     10  C   UNL     1       5.179   5.377  17.961  0.00  0.00    +0.000 A 
ATOM     11  C   UNL     1       4.376   6.078  18.864  0.00  0.00    +0.000 A 
ATOM     12  C   UNL     1       2.996   5.838  18.915  0.00  0.00    +0.000 A 
ATOM     13  C   UNL     1       2.434   4.949  17.994  0.00  0.00    +0.000 A 
ATOM     14  C   UNL     1       3.244   4.210  17.128  0.00  0.00    +0.000 A 
BRANCH   9  15
ATOM     15  O   UNL     1       5.505   3.749  16.318  0.00  0.00    +0.000 OA
BRANCH  15  17
ATOM     16  C   UNL     1       6.240   4.196  14.104  0.00  0.00    +0.000 C 
ATOM     17  C   UNL     1       6.396   4.573  15.565  0.00  0.00    +0.000 C 
ENDBRANCH  15  17
ENDBRANCH   9  15
ENDBRANCH   1  12
BRANCH   6  18
ATOM     18  C   UNL     1       1.354  11.654  19.277  0.00  0.00    +0.000 A 
ATOM     19  C   UNL     1       1.495  12.330  20.493  0.00  0.00    +0.000 A 
ATOM     20  C   UNL     1       2.381  13.395  20.588  0.00  0.00    +0.000 A 
ATOM     21  N   UNL     1       3.123  13.854  19.565  0.00  0.00    +0.000 NA
ATOM     22  C   UNL     1       2.964  13.216  18.385  0.00  0.00    +0.000 A 
ATOM     23  C   UNL     1       2.105  12.144  18.196  0.00  0.00    +0.000 A 
ENDBRANCH   6  18
TORSDOF 4
ENDMDL
MODEL 5
REMARK VINA RESULT:      -7.0      4.822      7.514
REMARK  Name = 
REMARK  5 active torsions:
REMARK  status: ('A' for Active; 'I' for Inactive)
REMARK    1  A    between atoms: C_1  and  C_2
REMARK    2  A    between atoms: C_2  and  O_3
REMARK    3  A    between atoms: O_3  and  C_4
REMARK    4  A    between atoms: C_7  and  C_8
REMARK    5  A    between atoms: C_13  and  C_14
REMARK                            x       y       z     vdW  Elec       q    Type
REMARK                         _______ _______ _______ _____ _____    ______ ____
ROOT
ATOM      1  C   UNL     1       2.231   6.688  19.747  0.00  0.00    +0.000 C 
ATOM      2  O   UNL     1       2.084   6.132  20.834  0.00  0.00    +0.000 OA
ATOM      3  N   UNL     1       1.700   7.965  19.482  0.00  0.00    +0.000 N 
ATOM      4  C   UNL     1       1.256   8.744  20.635  0.00  0.00    +0.000 C 
ATOM      5  C   UNL     1       0.086   9.676  20.316  0.00  0.00    +0.000 C 
ATOM      6  C   UNL     1       0.318  10.546  19.066  0.00  0.00    +0.000 C 
ATOM      7  C   UNL     1       0.674   9.598  17.908  0.00  0.00    +0.000 C 
ATOM      8  C   UNL     1       1.861   8.706  18.234  0.00  0.00    +0.000 C 
ENDROOT
BRANCH   1  12
ATOM      9  C   UNL     1       4.488   4.562  16.766  0.00  0.00    +0.000 A 
ATOM     10  C   UNL     1       4.926   5.792  17.257  0.00  0.00    +0.000 A 
ATOM     11  C   UNL     1       4.187   6.467  18.233  0.00  0.00    +0.000 A 
ATOM     12  C   UNL     1       2.982   5.929  18.705  0.00  0.00    +0.000 A 
ATOM     13  C   UNL     1       2.499   4.752  18.124  0.00  0.00    +0.000 A 
ATOM     14  C   UNL     1       3.264   4.051  17.188  0.00  0.00    +0.000 A 
BRANCH   9  15
ATOM     15  O   UNL     1       5.312   3.965  15.855  0.00  0.00    +0.000 OA
BRANCH  15  17
ATOM     16  C   UNL     1       6.186   3.937  13.647  0.00  0.00    +0.000 C 
ATOM     17  C   UNL     1       5.823   4.817  14.829  0.00  0.00    +0.000 C 
ENDBRANCH  15  17
ENDBRANCH   9  15
ENDBRANCH   1  12
BRANCH   6  18
ATOM     18  C   UNL     1       1.286  11.719  19.208  0.00  0.00    +0.000 A 
ATOM     19  C   UNL     1       2.108  12.168  18.169  0.00  0.00    +0.000 A 
ATOM     20  C   UNL     1       2.983  13.223  18.394  0.00  0.00    +0.000 A 
ATOM     21  N   UNL     1       3.119  13.854  19.573  0.00  0.00    +0.000 NA
ATOM     22  C   UNL     1       2.342  13.400  20.581  0.00  0.00    +0.000 A 
ATOM     23  C   UNL     1       1.441  12.354  20.450  0.00  0.00    +0.000 A 
ENDBRANCH   6  18
TORSDOF 4
ENDMDL
MODEL 6
REMARK VINA RESULT:      -6.9      3.911      6.912
REMARK  Name = 
REMARK  5 active torsions:
REMARK  status: ('A' for Active; 'I' for Inactive)
REMARK    1  A    between atoms: C_1  and  C_2
REMARK    2  A    between atoms: C_2  and  O_3
REMARK    3  A    between atoms: O_3  and  C_4
REMARK    4  A    between atoms: C_7  and  C_8
REMARK    5  A    between atoms: C_13  and  C_14
REMARK                            x       y       z     vdW  Elec       q    Type
REMARK                         _______ _______ _______ _____ _____    ______ ____
ROOT
ATOM      1  C   UNL     1       3.337   6.055  19.060  0.00  0.00    +0.000 C 
ATOM      2  O   UNL     1       2.944   5.199  19.852  0.00  0.00    +0.000 OA
ATOM      3  N   UNL     1       4.492   5.873  18.276  0.00  0.00    +0.000 N 
ATOM      4  C   UNL     1       5.021   4.514  18.191  0.00  0.00    +0.000 C 
ATOM      5  C   UNL     1       6.540   4.471  18.021  0.00  0.00    +0.000 C 
ATOM      6  C   UNL     1       7.058   5.382  16.893  0.00  0.00    +0.000 C 
ATOM      7  C   UNL     1       6.517   6.796  17.160  0.00  0.00    +0.000 C 
ATOM      8  C   UNL     1       5.002   6.821  17.289  0.00  0.00    +0.000 C 
ENDROOT
BRANCH   1  12
ATOM      9  C   UNL     1       1.039   9.690  18.965  0.00  0.00    +0.000 A 
ATOM     10  C   UNL     1       1.135   8.930  20.131  0.00  0.00    +0.000 A 
ATOM     11  C   UNL     1       1.893   7.756  20.150  0.00  0.00    +0.000 A 
ATOM     12  C   UNL     1       2.540   7.314  18.988  0.00  0.00    +0.000 A 
ATOM     13  C   UNL     1       2.344   8.024  17.799  0.00  0.00    +0.000 A 
ATOM     14  C   UNL     1       1.631   9.226  17.794  0.00  0.00    +0.000 A 
BRANCH   9  15
ATOM     15  O   UNL     1       0.318  10.844  19.073  0.00  0.00    +0.000 OA
BRANCH  15  17
ATOM     16  C   UNL     1      -1.828  10.484  18.120  0.00  0.00    +0.000 C 
ATOM     17  C   UNL     1      -1.060  10.686  19.413  0.00  0.00    +0.000 C 
ENDBRANCH  15  17
ENDBRANCH   9  15
ENDBRANCH   1  12
BRANCH   6  18
ATOM     18  C   UNL     1       6.830   4.907  15.459  0.00  0.00    +0.000 A 
ATOM     19  C   UNL     1       5.900   3.920  15.115  0.00  0.00    +0.000 A 
ATOM     20  C   UNL     1       5.779   3.525  13.789  0.00  0.00    +0.000 A 
ATOM     21  N   UNL     1       6.521   4.018  12.783  0.00  0.00    +0.000 NA
ATOM     22  C   UNL     1       7.437   4.951  13.123  0.00  0.00    +0.000 A 
ATOM     23  C   UNL     1       7.629   5.407  14.419  0.00  0.00    +0.000 A 
ENDBRANCH   6  18
TORSDOF 4
ENDMDL
MODEL 7
REMARK VINA RESULT:      -6.8      4.732      7.198
REMARK  Name = 
REMARK  5 active torsions:
REMARK  status: ('A' for Active; 'I' for Inactive)
REMARK    1  A    between atoms: C_1  and  C_2
REMARK    2  A    between atoms: C_2  and  O_3
REMARK    3  A    between atoms: O_3  and  C_4
REMARK    4  A    between atoms: C_7  and  C_8
REMARK    5  A    between atoms: C_13  and  C_14
REMARK                            x       y       z     vdW  Elec       q    Type
REMARK                         _______ _______ _______ _____ _____    ______ ____
ROOT
ATOM      1  C   UNL     1       2.927   6.542  19.154  0.00  0.00    +0.000 C 
ATOM      2  O   UNL     1       2.898   5.822  20.152  0.00  0.00    +0.000 OA
ATOM      3  N   UNL     1       2.212   7.751  19.084  0.00  0.00    +0.000 N 
ATOM      4  C   UNL     1       1.701   8.287  20.343  0.00  0.00    +0.000 C 
ATOM      5  C   UNL     1       0.400   9.074  20.177  0.00  0.00    +0.000 C 
ATOM      6  C   UNL     1       0.463  10.136  19.063  0.00  0.00    +0.000 C 
ATOM      7  C   UNL     1       0.911   9.423  17.776  0.00  0.00    +0.000 C 
ATOM      8  C   UNL     1       2.223   8.677  17.954  0.00  0.00    +0.000 C 
ENDROOT
BRANCH   1  12
ATOM      9  C   UNL     1       5.344   5.229  15.847  0.00  0.00    +0.000 A 
ATOM     10  C   UNL     1       5.374   6.556  16.277  0.00  0.00    +0.000 A 
ATOM     11  C   UNL     1       4.590   6.966  17.359  0.00  0.00    +0.000 A 
ATOM     12  C   UNL     1       3.743   6.054  18.004  0.00  0.00    +0.000 A 
ATOM     13  C   UNL     1       3.639   4.757  17.492  0.00  0.00    +0.000 A 
ATOM     14  C   UNL     1       4.462   4.334  16.445  0.00  0.00    +0.000 A 
BRANCH   9  15
ATOM     15  O   UNL     1       6.187   4.926  14.817  0.00  0.00    +0.000 OA
BRANCH  15  17
ATOM     16  C   UNL     1       6.576   3.859  12.731  0.00  0.00    +0.000 C 
ATOM     17  C   UNL     1       5.852   3.762  14.061  0.00  0.00    +0.000 C 
ENDBRANCH  15  17
ENDBRANCH   9  15
ENDBRANCH   1  12
BRANCH   6  18
ATOM     18  C   UNL     1       1.258  11.406  19.360  0.00  0.00    +0.000 A 
ATOM     19  C   UNL     1       1.254  12.042  20.606  0.00  0.00    +0.000 A 
ATOM     20  C   UNL     1       1.981  13.211  20.781  0.00  0.00    +0.000 A 
ATOM     21  N   UNL     1       2.697  13.809  19.813  0.00  0.00    +0.000 NA
ATOM     22  C   UNL     1       2.677  13.206  18.604  0.00  0.00    +0.000 A 
ATOM     23  C   UNL     1       1.980  12.037  18.335  0.00  0.00    +0.000 A 
ENDBRANCH   6  18
TORSDOF 4
ENDMDL
MODEL 8
REMARK VINA RESULT:      -6.7      3.977      6.548
REMARK  Name = 
REMARK  5 active torsions:
REMARK  status: ('A' for Active; 'I' for Inactive)
REMARK    1  A    between atoms: C_1  and  C_2
REMARK    2  A    between atoms: C_2  and  O_3
REMARK    3  A    between atoms: O_3  and  C_4
REMARK    4  A    between atoms: C_7  and  C_8
REMARK    5  A    between atoms: C_13  and  C_14
REMARK                            x       y       z     vdW  Elec       q    Type
REMARK                         _______ _______ _______ _____ _____    ______ ____
ROOT
ATOM      1  C   UNL     1       3.249   6.130  19.129  0.00  0.00    +0.000 C 
ATOM      2  O   UNL     1       2.854   5.289  19.935  0.00  0.00    +0.000 OA
ATOM      3  N   UNL     1       4.404   5.934  18.349  0.00  0.00    +0.000 N 
ATOM      4  C   UNL     1       4.930   4.572  18.286  0.00  0.00    +0.000 C 
ATOM      5  C   UNL     1       6.450   4.523  18.118  0.00  0.00    +0.000 C 
ATOM      6  C   UNL     1       6.971   5.415  16.975  0.00  0.00    +0.000 C 
ATOM      7  C   UNL     1       6.432   6.834  17.219  0.00  0.00    +0.000 C 
ATOM      8  C   UNL     1       4.917   6.864  17.347  0.00  0.00    +0.000 C 
ENDROOT
BRANCH   1  12
ATOM      9  C   UNL     1       0.963   9.770  18.972  0.00  0.00    +0.000 A 
ATOM     10  C   UNL     1       1.096   9.055  20.163  0.00  0.00    +0.000 A 
ATOM     11  C   UNL     1       1.851   7.880  20.202  0.00  0.00    +0.000 A 
ATOM     12  C   UNL     1       2.455   7.390  19.035  0.00  0.00    +0.000 A 
ATOM     13  C   UNL     1       2.220   8.054  17.828  0.00  0.00    +0.000 A 
ATOM     14  C   UNL     1       1.512   9.258  17.800  0.00  0.00    +0.000 A 
BRANCH   9  15
ATOM     15  O   UNL     1       0.250  10.931  19.060  0.00  0.00    +0.000 OA
BRANCH  15  17
ATOM     16  C   UNL     1       1.816  12.716  19.075  0.00  0.00    +0.000 C 
ATOM     17  C   UNL     1       0.808  11.941  19.902  0.00  0.00    +0.000 C 
ENDBRANCH  15  17
ENDBRANCH   9  15
ENDBRANCH   1  12
BRANCH   6  18
ATOM     18  C   UNL     1       6.742   4.917  15.550  0.00  0.00    +0.000 A 
ATOM     19  C   UNL     1       5.799   3.938  15.219  0.00  0.00    +0.000 A 
ATOM     20  C   UNL     1       5.679   3.520  13.900  0.00  0.00    +0.000 A 
ATOM     21  N   UNL     1       6.434   3.983  12.888  0.00  0.00    +0.000 NA
ATOM     22  C   UNL     1       7.361   4.908  13.216  0.00  0.00    +0.000 A 
ATOM     23  C   UNL     1       7.554   5.385  14.505  0.00  0.00    +0.000 A 
ENDBRANCH   6  18
TORSDOF 4
ENDMDL
MODEL 9
REMARK VINA RESULT:      -6.7      3.650      5.952
REMARK  Name = 
REMARK  5 active torsions:
REMARK  status: ('A' for Active; 'I' for Inactive)
REMARK    1  A    between atoms: C_1  and  C_2
REMARK    2  A    between atoms: C_2  and  O_3
REMARK    3  A    between atoms: O_3  and  C_4
REMARK    4  A    between atoms: C_7  and  C_8
REMARK    5  A    between atoms: C_13  and  C_14
REMARK                            x       y       z     vdW  Elec       q    Type
REMARK                         _______ _______ _______ _____ _____    ______ ____
ROOT
ATOM      1  C   UNL     1       6.237   4.669  17.466  0.00  0.00    +0.000 C 
ATOM      2  O   UNL     1       7.230   4.506  18.174  0.00  0.00    +0.000 OA
ATOM      3  N   UNL     1       4.981   5.000  18.007  0.00  0.00    +0.000 N 
ATOM      4  C   UNL     1       4.963   5.465  19.392  0.00  0.00    +0.000 C 
ATOM      5  C   UNL     1       3.676   5.096  20.132  0.00  0.00    +0.000 C 
ATOM      6  C   UNL     1       2.396   5.474  19.363  0.00  0.00    +0.000 C 
ATOM      7  C   UNL     1       2.496   4.839  17.966  0.00  0.00    +0.000 C 
ATOM      8  C   UNL     1       3.766   5.247  17.235  0.00  0.00    +0.000 C 
ENDROOT
BRANCH   1  12
ATOM      9  C   UNL     1       6.678   4.043  13.233  0.00  0.00    +0.000 A 
ATOM     10  C   UNL     1       5.816   3.249  13.992  0.00  0.00    +0.000 A 
ATOM     11  C   UNL     1       5.676   3.470  15.365  0.00  0.00    +0.000 A 
ATOM     12  C   UNL     1       6.423   4.473  15.999  0.00  0.00    +0.000 A 
ATOM     13  C   UNL     1       7.364   5.185  15.248  0.00  0.00    +0.000 A 
ATOM     14  C   UNL     1       7.464   5.000  13.867  0.00  0.00    +0.000 A 
BRANCH   9  15
ATOM     15  O   UNL     1       6.697   3.775  11.895  0.00  0.00    +0.000 OA
BRANCH  15  17
ATOM     16  C   UNL     1       7.143   1.605  11.037  0.00  0.00    +0.000 C 
ATOM     17  C   UNL     1       6.058   2.562  11.494  0.00  0.00    +0.000 C 
ENDBRANCH  15  17
ENDBRANCH   9  15
ENDBRANCH   1  12
BRANCH   6  18
ATOM     18  C   UNL     1       2.019   6.954  19.330  0.00  0.00    +0.000 A 
ATOM     19  C   UNL     1       2.187   7.765  18.203  0.00  0.00    +0.000 A 
ATOM     20  C   UNL     1       1.847   9.110  18.270  0.00  0.00    +0.000 A 
ATOM     21  N   UNL     1       1.370   9.715  19.371  0.00  0.00    +0.000 NA
ATOM     22  C   UNL     1       1.234   8.934  20.465  0.00  0.00    +0.000 A 
ATOM     23  C   UNL     1       1.548   7.583  20.493  0.00  0.00    +0.000 A 
ENDBRANCH   6  18
TORSDOF 4
ENDMDL
