MODEL 1
REMARK VINA RESULT:      -7.1      0.000      0.000
REMARK  Name = 
REMARK  5 active torsions:
REMARK  status: ('A' for Active; 'I' for Inactive)
REMARK    1  A    between atoms: C_1  and  N_2
REMARK    2  A    between atoms: N_5  and  C_6
REMARK    3  A    between atoms: C_6  and  C_7
REMARK    4  A    between atoms: C_8  and  C_9
REMARK    5  A    between atoms: C_9  and  N_10
REMARK                            x       y       z     vdW  Elec       q    Type
REMARK                         _______ _______ _______ _____ _____    ______ ____
ROOT
ATOM      1  N   UNL     1       3.409   5.643  18.520  0.00  0.00    +0.000 N 
ATOM      2  C   UNL     1       2.644   4.597  19.116  0.00  0.00    +0.000 A 
ATOM      3  C   UNL     1       1.767   4.824  20.194  0.00  0.00    +0.000 A 
ATOM      4  C   UNL     1       1.043   3.776  20.748  0.00  0.00    +0.000 A 
ATOM      5  N   UNL     1       1.099   2.512  20.304  0.00  0.00    +0.000 NA
ATOM      6  C   UNL     1       1.925   2.296  19.258  0.00  0.00    +0.000 A 
ATOM      7  C   UNL     1       2.710   3.275  18.642  0.00  0.00    +0.000 A 
ATOM      8  S   UNL     1       3.767   2.736  17.327  0.00  0.00    +0.000 S 
ATOM      9  C   UNL     1       4.431   4.269  16.727  0.00  0.00    +0.000 A 
ATOM     10  C   UNL     1       5.248   4.166  15.592  0.00  0.00    +0.000 A 
ATOM     11  C   UNL     1       5.792   5.311  15.056  0.00  0.00    +0.000 A 
ATOM     12  N   UNL     1       5.556   6.534  15.556  0.00  0.00    +0.000 NA
ATOM     13  C   UNL     1       4.754   6.600  16.654  0.00  0.00    +0.000 A 
ATOM     14  C   UNL     1       4.183   5.515  17.333  0.00  0.00    +0.000 A 
ENDROOT
BRANCH   1  15
ATOM     15  C   UNL     1       3.489   6.933  19.248  0.00  0.00    +0.000 C 
BRANCH  15  17
ATOM     16  C   UNL     1       1.487   8.721  18.371  0.00  0.00    +0.000 C 
ATOM     17  C   UNL     1       2.411   7.896  18.776  0.00  0.00    +0.000 C 
BRANCH  16  18
ATOM     18  C   UNL     1       0.408   9.683  17.898  0.00  0.00    +0.000 C 
BRANCH  18  23
ATOM     19  C   UNL     1      -0.101  14.413  18.804  0.00  0.00    +0.000 C 
ATOM     20  N   UNL     1      -0.478  13.071  19.231  0.00  0.00    +0.000 NA
ATOM     21  C   UNL     1       0.698  12.293  19.655  0.00  0.00    +0.000 C 
ATOM     22  C   UNL     1       0.316  10.854  20.068  0.00  0.00    +0.000 C 
ATOM     23  N   UNL     1      -0.425  10.089  19.036  0.00  0.00    +0.000 NA
ATOM     24  C   UNL     1      -1.574  10.907  18.594  0.00  0.00    +0.000 C 
ATOM     25  C   UNL     1      -1.214  12.354  18.175  0.00  0.00    +0.000 C 
ENDBRANCH  18  23
ENDBRANCH  16  18
ENDBRANCH  15  17
ENDBRANCH   1  15
TORSDOF 4
ENDMDL
MODEL 2
REMARK VINA RESULT:      -6.8      2.090      2.450
REMARK  Name = 
REMARK  5 active torsions:
REMARK  status: ('A' for Active; 'I' for Inactive)
REMARK    1  A    between atoms: C_1  and  N_2
REMARK    2  A    between atoms: N_5  and  C_6
REMARK    3  A    between atoms: C_6  and  C_7
REMARK    4  A    between atoms: C_8  and  C_9
REMARK    5  A    between atoms: C_9  and  N_10
REMARK                            x       y       z     vdW  Elec       q    Type
REMARK                         _______ _______ _______ _____ _____    ______ ____
ROOT
ATOM      1  N   UNL     1       3.526   5.756  17.921  0.00  0.00    +0.000 N 
ATOM      2  C   UNL     1       2.932   4.522  18.317  0.00  0.00    +0.000 A 
ATOM      3  C   UNL     1       1.548   4.282  18.211  0.00  0.00    +0.000 A 
ATOM      4  C   UNL     1       1.010   3.067  18.612  0.00  0.00    +0.000 A 
ATOM      5  N   UNL     1       1.737   2.050  19.096  0.00  0.00    +0.000 NA
ATOM      6  C   UNL     1       3.066   2.271  19.182  0.00  0.00    +0.000 A 
ATOM      7  C   UNL     1       3.705   3.462  18.823  0.00  0.00    +0.000 A 
ATOM      8  S   UNL     1       5.454   3.537  19.088  0.00  0.00    +0.000 S 
ATOM      9  C   UNL     1       5.876   5.100  18.359  0.00  0.00    +0.000 A 
ATOM     10  C   UNL     1       7.247   5.398  18.329  0.00  0.00    +0.000 A 
ATOM     11  C   UNL     1       7.659   6.585  17.768  0.00  0.00    +0.000 A 
ATOM     12  N   UNL     1       6.808   7.467  17.221  0.00  0.00    +0.000 NA
ATOM     13  C   UNL     1       5.486   7.146  17.260  0.00  0.00    +0.000 A 
ATOM     14  C   UNL     1       4.925   6.003  17.849  0.00  0.00    +0.000 A 
ENDROOT
BRANCH   1  15
ATOM     15  C   UNL     1       2.619   6.901  17.663  0.00  0.00    +0.000 C 
BRANCH  15  17
ATOM     16  C   UNL     1       1.744   8.072  20.079  0.00  0.00    +0.000 C 
ATOM     17  C   UNL     1       2.148   7.532  18.964  0.00  0.00    +0.000 C 
BRANCH  16  18
ATOM     18  C   UNL     1       1.272   8.702  21.380  0.00  0.00    +0.000 C 
BRANCH  18  23
ATOM     19  C   UNL     1      -0.641  13.057  22.287  0.00  0.00    +0.000 C 
ATOM     20  N   UNL     1      -0.941  11.669  21.956  0.00  0.00    +0.000 NA
ATOM     21  C   UNL     1      -0.484  10.756  23.017  0.00  0.00    +0.000 C 
ATOM     22  C   UNL     1      -0.758   9.278  22.657  0.00  0.00    +0.000 C 
ATOM     23  N   UNL     1      -0.189   8.839  21.361  0.00  0.00    +0.000 NA
ATOM     24  C   UNL     1      -0.623   9.795  20.321  0.00  0.00    +0.000 C 
ATOM     25  C   UNL     1      -0.358  11.284  20.660  0.00  0.00    +0.000 C 
ENDBRANCH  18  23
ENDBRANCH  16  18
ENDBRANCH  15  17
ENDBRANCH   1  15
TORSDOF 4
ENDMDL
MODEL 3
REMARK VINA RESULT:      -6.8      7.290     10.189
REMARK  Name = 
REMARK  5 active torsions:
REMARK  status: ('A' for Active; 'I' for Inactive)
REMARK    1  A    between atoms: C_1  and  N_2
REMARK    2  A    between atoms: N_5  and  C_6
REMARK    3  A    between atoms: C_6  and  C_7
REMARK    4  A    between atoms: C_8  and  C_9
REMARK    5  A    between atoms: C_9  and  N_10
REMARK                            x       y       z     vdW  Elec       q    Type
REMARK                         _______ _______ _______ _____ _____    ______ ____
ROOT
ATOM      1  N   UNL     1       9.851  12.156  19.867  0.00  0.00    +0.000 N 
ATOM      2  C   UNL     1       8.906  12.480  20.886  0.00  0.00    +0.000 A 
ATOM      3  C   UNL     1       8.605  11.600  21.943  0.00  0.00    +0.000 A 
ATOM      4  C   UNL     1       7.675  11.954  22.912  0.00  0.00    +0.000 A 
ATOM      5  N   UNL     1       7.027  13.127  22.934  0.00  0.00    +0.000 NA
ATOM      6  C   UNL     1       7.326  13.979  21.930  0.00  0.00    +0.000 A 
ATOM      7  C   UNL     1       8.232  13.714  20.898  0.00  0.00    +0.000 A 
ATOM      8  S   UNL     1       8.410  14.964  19.657  0.00  0.00    +0.000 S 
ATOM      9  C   UNL     1       9.738  14.322  18.668  0.00  0.00    +0.000 A 
ATOM     10  C   UNL     1      10.180  15.165  17.637  0.00  0.00    +0.000 A 
ATOM     11  C   UNL     1      11.215  14.748  16.832  0.00  0.00    +0.000 A 
ATOM     12  N   UNL     1      11.844  13.575  17.004  0.00  0.00    +0.000 NA
ATOM     13  C   UNL     1      11.396  12.783  18.016  0.00  0.00    +0.000 A 
ATOM     14  C   UNL     1      10.319  13.057  18.871  0.00  0.00    +0.000 A 
ENDROOT
BRANCH   1  15
ATOM     15  C   UNL     1      10.303  10.746  19.776  0.00  0.00    +0.000 C 
BRANCH  15  17
ATOM     16  C   UNL     1       8.413   9.157  18.406  0.00  0.00    +0.000 C 
ATOM     17  C   UNL     1       9.286   9.891  19.038  0.00  0.00    +0.000 C 
BRANCH  16  18
ATOM     18  C   UNL     1       7.396   8.301  17.669  0.00  0.00    +0.000 C 
BRANCH  18  23
ATOM     19  C   UNL     1       4.412   4.612  18.637  0.00  0.00    +0.000 C 
ATOM     20  N   UNL     1       5.757   4.976  18.207  0.00  0.00    +0.000 NA
ATOM     21  C   UNL     1       6.468   5.730  19.253  0.00  0.00    +0.000 C 
ATOM     22  C   UNL     1       7.879   6.159  18.792  0.00  0.00    +0.000 C 
ATOM     23  N   UNL     1       7.909   6.934  17.528  0.00  0.00    +0.000 NA
ATOM     24  C   UNL     1       7.153   6.180  16.507  0.00  0.00    +0.000 C 
ATOM     25  C   UNL     1       5.734   5.739  16.948  0.00  0.00    +0.000 C 
ENDBRANCH  18  23
ENDBRANCH  16  18
ENDBRANCH  15  17
ENDBRANCH   1  15
TORSDOF 4
ENDMDL
MODEL 4
REMARK VINA RESULT:      -6.7      7.352     10.880
REMARK  Name = 
REMARK  5 active torsions:
REMARK  status: ('A' for Active; 'I' for Inactive)
REMARK    1  A    between atoms: C_1  and  N_2
REMARK    2  A    between atoms: N_5  and  C_6
REMARK    3  A    between atoms: C_6  and  C_7
REMARK    4  A    between atoms: C_8  and  C_9
REMARK    5  A    between atoms: C_9  and  N_10
REMARK                            x       y       z     vdW  Elec       q    Type
REMARK                         _______ _______ _______ _____ _____    ______ ____
ROOT
ATOM      1  N   UNL     1       9.761  12.025  19.839  0.00  0.00    +0.000 N 
ATOM      2  C   UNL     1      10.210  12.901  18.806  0.00  0.00    +0.000 A 
ATOM      3  C   UNL     1      10.808  12.426  17.622  0.00  0.00    +0.000 A 
ATOM      4  C   UNL     1      11.235  13.314  16.643  0.00  0.00    +0.000 A 
ATOM      5  N   UNL     1      11.100  14.645  16.730  0.00  0.00    +0.000 NA
ATOM      6  C   UNL     1      10.512  15.100  17.857  0.00  0.00    +0.000 A 
ATOM      7  C   UNL     1      10.063  14.295  18.908  0.00  0.00    +0.000 A 
ATOM      8  S   UNL     1       9.381  15.129  20.313  0.00  0.00    +0.000 S 
ATOM      9  C   UNL     1       8.795  13.776  21.303  0.00  0.00    +0.000 A 
ATOM     10  C   UNL     1       8.099  14.141  22.465  0.00  0.00    +0.000 A 
ATOM     11  C   UNL     1       7.600  13.151  23.281  0.00  0.00    +0.000 A 
ATOM     12  N   UNL     1       7.725  11.845  23.003  0.00  0.00    +0.000 NA
ATOM     13  C   UNL     1       8.399  11.524  21.864  0.00  0.00    +0.000 A 
ATOM     14  C   UNL     1       9.007  12.424  20.977  0.00  0.00    +0.000 A 
ENDROOT
BRANCH   1  15
ATOM     15  C   UNL     1      10.199  10.609  19.775  0.00  0.00    +0.000 C 
BRANCH  15  17
ATOM     16  C   UNL     1       8.341   9.031  18.349  0.00  0.00    +0.000 C 
ATOM     17  C   UNL     1       9.199   9.760  19.007  0.00  0.00    +0.000 C 
BRANCH  16  18
ATOM     18  C   UNL     1       7.342   8.180  17.581  0.00  0.00    +0.000 C 
BRANCH  18  23
ATOM     19  C   UNL     1       4.419   4.529  18.836  0.00  0.00    +0.000 C 
ATOM     20  N   UNL     1       5.739   4.877  18.323  0.00  0.00    +0.000 NA
ATOM     21  C   UNL     1       6.503   5.667  19.303  0.00  0.00    +0.000 C 
ATOM     22  C   UNL     1       7.887   6.079  18.752  0.00  0.00    +0.000 C 
ATOM     23  N   UNL     1       7.850   6.808  17.462  0.00  0.00    +0.000 NA
ATOM     24  C   UNL     1       7.041   6.019  16.510  0.00  0.00    +0.000 C 
ATOM     25  C   UNL     1       5.648   5.595  17.041  0.00  0.00    +0.000 C 
ENDBRANCH  18  23
ENDBRANCH  16  18
ENDBRANCH  15  17
ENDBRANCH   1  15
TORSDOF 4
ENDMDL
MODEL 5
REMARK VINA RESULT:      -6.6      1.906      2.356
REMARK  Name = 
REMARK  5 active torsions:
REMARK  status: ('A' for Active; 'I' for Inactive)
REMARK    1  A    between atoms: C_1  and  N_2
REMARK    2  A    between atoms: N_5  and  C_6
REMARK    3  A    between atoms: C_6  and  C_7
REMARK    4  A    between atoms: C_8  and  C_9
REMARK    5  A    between atoms: C_9  and  N_10
REMARK                            x       y       z     vdW  Elec       q    Type
REMARK                         _______ _______ _______ _____ _____    ______ ____
ROOT
ATOM      1  N   UNL     1       3.833   6.097  17.692  0.00  0.00    +0.000 N 
ATOM      2  C   UNL     1       3.138   4.932  18.133  0.00  0.00    +0.000 A 
ATOM      3  C   UNL     1       1.784   4.699  17.824  0.00  0.00    +0.000 A 
ATOM      4  C   UNL     1       1.144   3.552  18.277  0.00  0.00    +0.000 A 
ATOM      5  N   UNL     1       1.745   2.598  19.002  0.00  0.00    +0.000 NA
ATOM      6  C   UNL     1       3.047   2.811  19.284  0.00  0.00    +0.000 A 
ATOM      7  C   UNL     1       3.778   3.937  18.892  0.00  0.00    +0.000 A 
ATOM      8  S   UNL     1       5.460   4.023  19.439  0.00  0.00    +0.000 S 
ATOM      9  C   UNL     1       6.052   5.473  18.602  0.00  0.00    +0.000 A 
ATOM     10  C   UNL     1       7.418   5.746  18.769  0.00  0.00    +0.000 A 
ATOM     11  C   UNL     1       7.959   6.845  18.141  0.00  0.00    +0.000 A 
ATOM     12  N   UNL     1       7.243   7.659  17.351  0.00  0.00    +0.000 NA
ATOM     13  C   UNL     1       5.922   7.363  17.204  0.00  0.00    +0.000 A 
ATOM     14  C   UNL     1       5.232   6.314  17.828  0.00  0.00    +0.000 A 
ENDROOT
BRANCH   1  15
ATOM     15  C   UNL     1       3.022   7.210  17.141  0.00  0.00    +0.000 C 
BRANCH  15  17
ATOM     16  C   UNL     1       1.662   8.593  19.193  0.00  0.00    +0.000 C 
ATOM     17  C   UNL     1       2.290   7.954  18.246  0.00  0.00    +0.000 C 
BRANCH  16  18
ATOM     18  C   UNL     1       0.930   9.339  20.298  0.00  0.00    +0.000 C 
BRANCH  18  23
ATOM     19  C   UNL     1      -2.927  12.137  19.436  0.00  0.00    +0.000 C 
ATOM     20  N   UNL     1      -1.482  12.128  19.636  0.00  0.00    +0.000 NA
ATOM     21  C   UNL     1      -0.801  11.352  18.586  0.00  0.00    +0.000 C 
ATOM     22  C   UNL     1       0.727  11.298  18.813  0.00  0.00    +0.000 C 
ATOM     23  N   UNL     1       1.138  10.783  20.141  0.00  0.00    +0.000 NA
ATOM     24  C   UNL     1       0.409  11.545  21.176  0.00  0.00    +0.000 C 
ATOM     25  C   UNL     1      -1.125  11.612  20.969  0.00  0.00    +0.000 C 
ENDBRANCH  18  23
ENDBRANCH  16  18
ENDBRANCH  15  17
ENDBRANCH   1  15
TORSDOF 4
ENDMDL
MODEL 6
REMARK VINA RESULT:      -6.6      2.363      2.943
REMARK  Name = 
REMARK  5 active torsions:
REMARK  status: ('A' for Active; 'I' for Inactive)
REMARK    1  A    between atoms: C_1  and  N_2
REMARK    2  A    between atoms: N_5  and  C_6
REMARK    3  A    between atoms: C_6  and  C_7
REMARK    4  A    between atoms: C_8  and  C_9
REMARK    5  A    between atoms: C_9  and  N_10
REMARK                            x       y       z     vdW  Elec       q    Type
REMARK                         _______ _______ _______ _____ _____    ______ ____
ROOT
ATOM      1  N   UNL     1       3.978   6.234  17.694  0.00  0.00    +0.000 N 
ATOM      2  C   UNL     1       3.258   5.068  18.088  0.00  0.00    +0.000 A 
ATOM      3  C   UNL     1       1.908   4.862  17.745  0.00  0.00    +0.000 A 
ATOM      4  C   UNL     1       1.243   3.713  18.153  0.00  0.00    +0.000 A 
ATOM      5  N   UNL     1       1.816   2.730  18.862  0.00  0.00    +0.000 NA
ATOM      6  C   UNL     1       3.115   2.917  19.177  0.00  0.00    +0.000 A 
ATOM      7  C   UNL     1       3.869   4.043  18.832  0.00  0.00    +0.000 A 
ATOM      8  S   UNL     1       5.540   4.090  19.415  0.00  0.00    +0.000 S 
ATOM      9  C   UNL     1       6.169   5.553  18.631  0.00  0.00    +0.000 A 
ATOM     10  C   UNL     1       7.535   5.802  18.833  0.00  0.00    +0.000 A 
ATOM     11  C   UNL     1       8.104   6.911  18.248  0.00  0.00    +0.000 A 
ATOM     12  N   UNL     1       7.416   7.757  17.467  0.00  0.00    +0.000 NA
ATOM     13  C   UNL     1       6.095   7.484  17.285  0.00  0.00    +0.000 A 
ATOM     14  C   UNL     1       5.377   6.428  17.865  0.00  0.00    +0.000 A 
ENDROOT
BRANCH   1  15
ATOM     15  C   UNL     1       3.194   7.374  17.159  0.00  0.00    +0.000 C 
BRANCH  15  17
ATOM     16  C   UNL     1       1.456   8.427  19.120  0.00  0.00    +0.000 C 
ATOM     17  C   UNL     1       2.258   7.940  18.214  0.00  0.00    +0.000 C 
BRANCH  16  18
ATOM     18  C   UNL     1       0.521   8.994  20.176  0.00  0.00    +0.000 C 
BRANCH  18  23
ATOM     19  C   UNL     1      -1.920  11.769  23.305  0.00  0.00    +0.000 C 
ATOM     20  N   UNL     1      -0.593  11.353  22.864  0.00  0.00    +0.000 NA
ATOM     21  C   UNL     1      -0.347  11.744  21.466  0.00  0.00    +0.000 C 
ATOM     22  C   UNL     1       1.039  11.270  20.974  0.00  0.00    +0.000 C 
ATOM     23  N   UNL     1       1.285   9.816  21.122  0.00  0.00    +0.000 NA
ATOM     24  C   UNL     1       0.989   9.438  22.520  0.00  0.00    +0.000 C 
ATOM     25  C   UNL     1      -0.397   9.904  23.035  0.00  0.00    +0.000 C 
ENDBRANCH  18  23
ENDBRANCH  16  18
ENDBRANCH  15  17
ENDBRANCH   1  15
TORSDOF 4
ENDMDL
MODEL 7
REMARK VINA RESULT:      -6.6      0.830      1.335
REMARK  Name = 
REMARK  5 active torsions:
REMARK  status: ('A' for Active; 'I' for Inactive)
REMARK    1  A    between atoms: C_1  and  N_2
REMARK    2  A    between atoms: N_5  and  C_6
REMARK    3  A    between atoms: C_6  and  C_7
REMARK    4  A    between atoms: C_8  and  C_9
REMARK    5  A    between atoms: C_9  and  N_10
REMARK                            x       y       z     vdW  Elec       q    Type
REMARK                         _______ _______ _______ _____ _____    ______ ____
ROOT
ATOM      1  N   UNL     1       3.335   5.532  18.572  0.00  0.00    +0.000 N 
ATOM      2  C   UNL     1       2.499   4.468  19.024  0.00  0.00    +0.000 A 
ATOM      3  C   UNL     1       1.601   4.620  20.099  0.00  0.00    +0.000 A 
ATOM      4  C   UNL     1       0.807   3.557  20.510  0.00  0.00    +0.000 A 
ATOM      5  N   UNL     1       0.813   2.350  19.926  0.00  0.00    +0.000 NA
ATOM      6  C   UNL     1       1.660   2.208  18.885  0.00  0.00    +0.000 A 
ATOM      7  C   UNL     1       2.513   3.207  18.404  0.00  0.00    +0.000 A 
ATOM      8  S   UNL     1       3.582   2.763  17.065  0.00  0.00    +0.000 S 
ATOM      9  C   UNL     1       4.342   4.316  16.661  0.00  0.00    +0.000 A 
ATOM     10  C   UNL     1       5.189   4.297  15.543  0.00  0.00    +0.000 A 
ATOM     11  C   UNL     1       5.807   5.464  15.155  0.00  0.00    +0.000 A 
ATOM     12  N   UNL     1       5.617   6.633  15.785  0.00  0.00    +0.000 NA
ATOM     13  C   UNL     1       4.785   6.619  16.863  0.00  0.00    +0.000 A 
ATOM     14  C   UNL     1       4.139   5.497  17.399  0.00  0.00    +0.000 A 
ENDROOT
BRANCH   1  15
ATOM     15  C   UNL     1       3.457   6.726  19.444  0.00  0.00    +0.000 C 
BRANCH  15  17
ATOM     16  C   UNL     1       1.668   8.759  18.644  0.00  0.00    +0.000 C 
ATOM     17  C   UNL     1       2.494   7.820  19.013  0.00  0.00    +0.000 C 
BRANCH  16  18
ATOM     18  C   UNL     1       0.704   9.853  18.215  0.00  0.00    +0.000 C 
BRANCH  18  23
ATOM     19  C   UNL     1      -2.936  12.477  20.036  0.00  0.00    +0.000 C 
ATOM     20  N   UNL     1      -1.488  12.392  19.883  0.00  0.00    +0.000 NA
ATOM     21  C   UNL     1      -1.096  12.438  18.464  0.00  0.00    +0.000 C 
ATOM     22  C   UNL     1       0.434  12.304  18.288  0.00  0.00    +0.000 C 
ATOM     23  N   UNL     1       1.028  11.101  18.918  0.00  0.00    +0.000 NA
ATOM     24  C   UNL     1       0.584  11.052  20.326  0.00  0.00    +0.000 C 
ATOM     25  C   UNL     1      -0.946  11.184  20.527  0.00  0.00    +0.000 C 
ENDBRANCH  18  23
ENDBRANCH  16  18
ENDBRANCH  15  17
ENDBRANCH   1  15
TORSDOF 4
ENDMDL
MODEL 8
REMARK VINA RESULT:      -6.4      1.122      3.760
REMARK  Name = 
REMARK  5 active torsions:
REMARK  status: ('A' for Active; 'I' for Inactive)
REMARK    1  A    between atoms: C_1  and  N_2
REMARK    2  A    between atoms: N_5  and  C_6
REMARK    3  A    between atoms: C_6  and  C_7
REMARK    4  A    between atoms: C_8  and  C_9
REMARK    5  A    between atoms: C_9  and  N_10
REMARK                            x       y       z     vdW  Elec       q    Type
REMARK                         _______ _______ _______ _____ _____    ______ ____
ROOT
ATOM      1  N   UNL     1       3.999   6.057  17.930  0.00  0.00    +0.000 N 
ATOM      2  C   UNL     1       4.726   5.360  16.920  0.00  0.00    +0.000 A 
ATOM      3  C   UNL     1       5.768   5.963  16.189  0.00  0.00    +0.000 A 
ATOM      4  C   UNL     1       6.448   5.248  15.211  0.00  0.00    +0.000 A 
ATOM      5  N   UNL     1       6.195   3.967  14.909  0.00  0.00    +0.000 NA
ATOM      6  C   UNL     1       5.208   3.383  15.621  0.00  0.00    +0.000 A 
ATOM      7  C   UNL     1       4.451   4.017  16.611  0.00  0.00    +0.000 A 
ATOM      8  S   UNL     1       3.165   3.060  17.363  0.00  0.00    +0.000 S 
ATOM      9  C   UNL     1       2.589   4.147  18.643  0.00  0.00    +0.000 A 
ATOM     10  C   UNL     1       1.611   3.609  19.492  0.00  0.00    +0.000 A 
ATOM     11  C   UNL     1       1.120   4.384  20.519  0.00  0.00    +0.000 A 
ATOM     12  N   UNL     1       1.556   5.629  20.765  0.00  0.00    +0.000 NA
ATOM     13  C   UNL     1       2.510   6.119  19.927  0.00  0.00    +0.000 A 
ATOM     14  C   UNL     1       3.053   5.464  18.812  0.00  0.00    +0.000 A 
ENDROOT
BRANCH   1  15
ATOM     15  C   UNL     1       4.163   7.530  17.999  0.00  0.00    +0.000 C 
BRANCH  15  17
ATOM     16  C   UNL     1       1.668   8.843  17.837  0.00  0.00    +0.000 C 
ATOM     17  C   UNL     1       2.820   8.236  17.912  0.00  0.00    +0.000 C 
BRANCH  16  18
ATOM     18  C   UNL     1       0.325   9.550  17.752  0.00  0.00    +0.000 C 
BRANCH  18  23
ATOM     19  C   UNL     1      -0.145  14.283  18.662  0.00  0.00    +0.000 C 
ATOM     20  N   UNL     1      -0.273  12.943  19.223  0.00  0.00    +0.000 NA
ATOM     21  C   UNL     1       1.024  12.246  19.245  0.00  0.00    +0.000 C 
ATOM     22  C   UNL     1       0.892  10.808  19.796  0.00  0.00    +0.000 C 
ATOM     23  N   UNL     1      -0.103   9.963  19.094  0.00  0.00    +0.000 NA
ATOM     24  C   UNL     1      -1.382  10.701  19.044  0.00  0.00    +0.000 C 
ATOM     25  C   UNL     1      -1.274  12.146  18.494  0.00  0.00    +0.000 C 
ENDBRANCH  18  23
ENDBRANCH  16  18
ENDBRANCH  15  17
ENDBRANCH   1  15
TORSDOF 4
ENDMDL
MODEL 9
REMARK VINA RESULT:      -6.3      1.918      2.382
REMARK  Name = 
REMARK  5 active torsions:
REMARK  status: ('A' for Active; 'I' for Inactive)
REMARK    1  A    between atoms: C_1  and  N_2
REMARK    2  A    between atoms: N_5  and  C_6
REMARK    3  A    between atoms: C_6  and  C_7
REMARK    4  A    between atoms: C_8  and  C_9
REMARK    5  A    between atoms: C_9  and  N_10
REMARK                            x       y       z     vdW  Elec       q    Type
REMARK                         _______ _______ _______ _____ _____    ______ ____
ROOT
ATOM      1  N   UNL     1       3.808   6.006  17.670  0.00  0.00    +0.000 N 
ATOM      2  C   UNL     1       3.095   4.877  18.172  0.00  0.00    +0.000 A 
ATOM      3  C   UNL     1       1.756   4.616  17.823  0.00  0.00    +0.000 A 
ATOM      4  C   UNL     1       1.097   3.506  18.337  0.00  0.00    +0.000 A 
ATOM      5  N   UNL     1       1.666   2.614  19.160  0.00  0.00    +0.000 NA
ATOM      6  C   UNL     1       2.955   2.853  19.481  0.00  0.00    +0.000 A 
ATOM      7  C   UNL     1       3.702   3.948  19.034  0.00  0.00    +0.000 A 
ATOM      8  S   UNL     1       5.358   4.083  19.645  0.00  0.00    +0.000 S 
ATOM      9  C   UNL     1       5.986   5.464  18.723  0.00  0.00    +0.000 A 
ATOM     10  C   UNL     1       7.343   5.755  18.927  0.00  0.00    +0.000 A 
ATOM     11  C   UNL     1       7.911   6.803  18.239  0.00  0.00    +0.000 A 
ATOM     12  N   UNL     1       7.230   7.550  17.356  0.00  0.00    +0.000 NA
ATOM     13  C   UNL     1       5.917   7.238  17.177  0.00  0.00    +0.000 A 
ATOM     14  C   UNL     1       5.200   6.239  17.850  0.00  0.00    +0.000 A 
ENDROOT
BRANCH   1  15
ATOM     15  C   UNL     1       3.022   7.070  16.999  0.00  0.00    +0.000 C 
BRANCH  15  17
ATOM     16  C   UNL     1       1.737   8.732  18.886  0.00  0.00    +0.000 C 
ATOM     17  C   UNL     1       2.330   7.965  18.015  0.00  0.00    +0.000 C 
BRANCH  16  18
ATOM     18  C   UNL     1       1.045   9.628  19.902  0.00  0.00    +0.000 C 
BRANCH  18  23
ATOM     19  C   UNL     1      -0.668  13.302  22.550  0.00  0.00    +0.000 C 
ATOM     20  N   UNL     1      -0.518  12.776  21.199  0.00  0.00    +0.000 NA
ATOM     21  C   UNL     1      -1.233  11.498  21.039  0.00  0.00    +0.000 C 
ATOM     22  C   UNL     1      -1.044  10.909  19.623  0.00  0.00    +0.000 C 
ATOM     23  N   UNL     1       0.368  10.730  19.209  0.00  0.00    +0.000 NA
ATOM     24  C   UNL     1       1.075  12.010  19.420  0.00  0.00    +0.000 C 
ATOM     25  C   UNL     1       0.900  12.620  20.833  0.00  0.00    +0.000 C 
ENDBRANCH  18  23
ENDBRANCH  16  18
ENDBRANCH  15  17
ENDBRANCH   1  15
TORSDOF 4
ENDMDL
