MODEL 1
REMARK VINA RESULT:      -6.8      0.000      0.000
REMARK  Name = 
REMARK  12 active torsions:
REMARK  status: ('A' for Active; 'I' for Inactive)
REMARK    1  A    between atoms: C_1  and  O_2
REMARK    2  A    between atoms: O_2  and  C_3
REMARK    3  A    between atoms: C_6  and  C_7
REMARK    4  A    between atoms: C_8  and  C_9
REMARK    5  A    between atoms: C_11  and  O_12
REMARK    6  A    between atoms: O_12  and  C_13
REMARK    7  A    between atoms: C_14  and  O_15
REMARK    8  A    between atoms: O_15  and  C_16
REMARK    9  A    between atoms: C_17  and  O_18
REMARK   10  A    between atoms: O_18  and  C_19
REMARK   11  A    between atoms: C_22  and  C_23
REMARK   12  A    between atoms: C_23  and  O_25
REMARK                            x       y       z     vdW  Elec       q    Type
REMARK                         _______ _______ _______ _____ _____    ______ ____
ROOT
ATOM      1  C   UNL     1       2.487   3.361  18.169  0.00  0.00    +0.000 C 
ATOM      2  C   UNL     1       3.641   3.066  17.557  0.00  0.00    +0.000 C 
ENDROOT
BRANCH   1   6
ATOM      3  C   UNL     1       1.791   7.062  20.156  0.00  0.00    +0.000 A 
ATOM      4  C   UNL     1       1.662   5.851  20.848  0.00  0.00    +0.000 A 
ATOM      5  C   UNL     1       1.828   4.632  20.185  0.00  0.00    +0.000 A 
ATOM      6  C   UNL     1       2.097   4.610  18.817  0.00  0.00    +0.000 A 
ATOM      7  C   UNL     1       2.138   5.809  18.105  0.00  0.00    +0.000 A 
ATOM      8  C   UNL     1       1.996   7.044  18.765  0.00  0.00    +0.000 A 
BRANCH   3  10
ATOM      9  C   UNL     1       0.498   8.505  21.524  0.00  0.00    +0.000 C 
ATOM     10  O   UNL     1       1.703   8.281  20.786  0.00  0.00    +0.000 OA
ENDBRANCH   3  10
BRANCH   8  11
ATOM     11  C   UNL     1       2.161   8.263  17.910  0.00  0.00    +0.000 C 
ATOM     12  O   UNL     1       3.093   8.396  17.131  0.00  0.00    +0.000 OA
BRANCH  11  13
ATOM     13  O   UNL     1       1.243   9.231  18.089  0.00  0.00    +0.000 OA
ATOM     14  H   UNL     1       0.357   8.989  17.752  0.00  0.00    +0.000 HD
ENDBRANCH  11  13
ENDBRANCH   8  11
ENDBRANCH   1   6
BRANCH   2  15
ATOM     15  C   UNL     1       4.828   3.904  17.407  0.00  0.00    +0.000 A 
ATOM     16  C   UNL     1       5.236   4.307  16.137  0.00  0.00    +0.000 A 
ATOM     17  C   UNL     1       6.242   5.270  15.989  0.00  0.00    +0.000 A 
ATOM     18  C   UNL     1       6.873   5.811  17.132  0.00  0.00    +0.000 A 
ATOM     19  C   UNL     1       6.484   5.372  18.414  0.00  0.00    +0.000 A 
ATOM     20  C   UNL     1       5.471   4.411  18.536  0.00  0.00    +0.000 A 
BRANCH  17  21
ATOM     21  O   UNL     1       6.647   5.749  14.765  0.00  0.00    +0.000 OA
ATOM     22  C   UNL     1       6.942   4.771  13.773  0.00  0.00    +0.000 C 
ENDBRANCH  17  21
BRANCH  18  23
ATOM     23  O   UNL     1       7.869   6.730  16.881  0.00  0.00    +0.000 OA
ATOM     24  C   UNL     1       7.670   8.038  17.401  0.00  0.00    +0.000 C 
ENDBRANCH  18  23
BRANCH  19  25
ATOM     25  O   UNL     1       7.143   5.868  19.512  0.00  0.00    +0.000 OA
ATOM     26  C   UNL     1       8.365   5.218  19.850  0.00  0.00    +0.000 C 
ENDBRANCH  19  25
ENDBRANCH   2  15
TORSDOF 8
ENDMDL
MODEL 2
REMARK VINA RESULT:      -6.4      1.264      5.981
REMARK  Name = 
REMARK  12 active torsions:
REMARK  status: ('A' for Active; 'I' for Inactive)
REMARK    1  A    between atoms: C_1  and  O_2
REMARK    2  A    between atoms: O_2  and  C_3
REMARK    3  A    between atoms: C_6  and  C_7
REMARK    4  A    between atoms: C_8  and  C_9
REMARK    5  A    between atoms: C_11  and  O_12
REMARK    6  A    between atoms: O_12  and  C_13
REMARK    7  A    between atoms: C_14  and  O_15
REMARK    8  A    between atoms: O_15  and  C_16
REMARK    9  A    between atoms: C_17  and  O_18
REMARK   10  A    between atoms: O_18  and  C_19
REMARK   11  A    between atoms: C_22  and  C_23
REMARK   12  A    between atoms: C_23  and  O_25
REMARK                            x       y       z     vdW  Elec       q    Type
REMARK                         _______ _______ _______ _____ _____    ______ ____
ROOT
ATOM      1  C   UNL     1       3.314   3.365  19.682  0.00  0.00    +0.000 C 
ATOM      2  C   UNL     1       2.435   4.211  20.234  0.00  0.00    +0.000 C 
ENDROOT
BRANCH   1   6
ATOM      3  C   UNL     1       6.275   4.638  16.901  0.00  0.00    +0.000 A 
ATOM      4  C   UNL     1       5.173   3.889  16.469  0.00  0.00    +0.000 A 
ATOM      5  C   UNL     1       4.231   3.416  17.387  0.00  0.00    +0.000 A 
ATOM      6  C   UNL     1       4.396   3.662  18.749  0.00  0.00    +0.000 A 
ATOM      7  C   UNL     1       5.538   4.330  19.194  0.00  0.00    +0.000 A 
ATOM      8  C   UNL     1       6.482   4.832  18.279  0.00  0.00    +0.000 A 
BRANCH   3  10
ATOM      9  C   UNL     1       6.990   4.836  14.648  0.00  0.00    +0.000 C 
ATOM     10  O   UNL     1       7.185   5.179  16.023  0.00  0.00    +0.000 OA
ENDBRANCH   3  10
BRANCH   8  11
ATOM     11  C   UNL     1       7.610   5.619  18.871  0.00  0.00    +0.000 C 
ATOM     12  O   UNL     1       8.235   5.236  19.848  0.00  0.00    +0.000 OA
BRANCH  11  13
ATOM     13  O   UNL     1       7.862   6.806  18.288  0.00  0.00    +0.000 OA
ATOM     14  H   UNL     1       7.992   6.741  17.320  0.00  0.00    +0.000 HD
ENDBRANCH  11  13
ENDBRANCH   8  11
ENDBRANCH   1   6
BRANCH   2  15
ATOM     15  C   UNL     1       2.305   5.650  20.022  0.00  0.00    +0.000 A 
ATOM     16  C   UNL     1       2.841   6.233  18.875  0.00  0.00    +0.000 A 
ATOM     17  C   UNL     1       2.551   7.565  18.556  0.00  0.00    +0.000 A 
ATOM     18  C   UNL     1       1.739   8.336  19.420  0.00  0.00    +0.000 A 
ATOM     19  C   UNL     1       1.232   7.754  20.600  0.00  0.00    +0.000 A 
ATOM     20  C   UNL     1       1.532   6.416  20.893  0.00  0.00    +0.000 A 
BRANCH  17  21
ATOM     21  O   UNL     1       3.001   8.177  17.410  0.00  0.00    +0.000 OA
ATOM     22  C   UNL     1       4.138   7.587  16.787  0.00  0.00    +0.000 C 
ENDBRANCH  17  21
BRANCH  18  23
ATOM     23  O   UNL     1       1.535   9.643  19.034  0.00  0.00    +0.000 OA
ATOM     24  C   UNL     1       0.314   9.922  18.361  0.00  0.00    +0.000 C 
ENDBRANCH  18  23
BRANCH  19  25
ATOM     25  O   UNL     1       0.490   8.530  21.455  0.00  0.00    +0.000 OA
ATOM     26  C   UNL     1       1.222   9.212  22.470  0.00  0.00    +0.000 C 
ENDBRANCH  19  25
ENDBRANCH   2  15
TORSDOF 8
ENDMDL
MODEL 3
REMARK VINA RESULT:      -6.3      2.678      4.375
REMARK  Name = 
REMARK  12 active torsions:
REMARK  status: ('A' for Active; 'I' for Inactive)
REMARK    1  A    between atoms: C_1  and  O_2
REMARK    2  A    between atoms: O_2  and  C_3
REMARK    3  A    between atoms: C_6  and  C_7
REMARK    4  A    between atoms: C_8  and  C_9
REMARK    5  A    between atoms: C_11  and  O_12
REMARK    6  A    between atoms: O_12  and  C_13
REMARK    7  A    between atoms: C_14  and  O_15
REMARK    8  A    between atoms: O_15  and  C_16
REMARK    9  A    between atoms: C_17  and  O_18
REMARK   10  A    between atoms: O_18  and  C_19
REMARK   11  A    between atoms: C_22  and  C_23
REMARK   12  A    between atoms: C_23  and  O_25
REMARK                            x       y       z     vdW  Elec       q    Type
REMARK                         _______ _______ _______ _____ _____    ______ ____
ROOT
ATOM      1  C   UNL     1       2.566   8.729  17.676  0.00  0.00    +0.000 C 
ATOM      2  C   UNL     1       3.409   7.758  17.305  0.00  0.00    +0.000 C 
ENDROOT
BRANCH   1   6
ATOM      3  C   UNL     1       0.138   9.098  21.154  0.00  0.00    +0.000 A 
ATOM      4  C   UNL     1       1.130   8.112  21.084  0.00  0.00    +0.000 A 
ATOM      5  C   UNL     1       1.887   7.946  19.921  0.00  0.00    +0.000 A 
ATOM      6  C   UNL     1       1.641   8.746  18.806  0.00  0.00    +0.000 A 
ATOM      7  C   UNL     1       0.595   9.669  18.838  0.00  0.00    +0.000 A 
ATOM      8  C   UNL     1      -0.159   9.862  20.011  0.00  0.00    +0.000 A 
BRANCH   3  10
ATOM      9  C   UNL     1       0.198   9.487  23.493  0.00  0.00    +0.000 C 
ATOM     10  O   UNL     1      -0.580   9.337  22.302  0.00  0.00    +0.000 OA
ENDBRANCH   3  10
BRANCH   8  11
ATOM     11  C   UNL     1      -1.184  10.952  19.955  0.00  0.00    +0.000 C 
ATOM     12  O   UNL     1      -1.929  11.103  18.998  0.00  0.00    +0.000 OA
BRANCH  11  13
ATOM     13  O   UNL     1      -1.203  11.791  21.008  0.00  0.00    +0.000 OA
ATOM     14  H   UNL     1      -1.204  11.328  21.869  0.00  0.00    +0.000 HD
ENDBRANCH  11  13
ENDBRANCH   8  11
ENDBRANCH   1   6
BRANCH   2  15
ATOM     15  C   UNL     1       3.603   6.443  17.912  0.00  0.00    +0.000 A 
ATOM     16  C   UNL     1       2.603   5.479  17.812  0.00  0.00    +0.000 A 
ATOM     17  C   UNL     1       2.851   4.158  18.205  0.00  0.00    +0.000 A 
ATOM     18  C   UNL     1       4.111   3.807  18.741  0.00  0.00    +0.000 A 
ATOM     19  C   UNL     1       5.108   4.796  18.878  0.00  0.00    +0.000 A 
ATOM     20  C   UNL     1       4.837   6.109  18.471  0.00  0.00    +0.000 A 
BRANCH  17  21
ATOM     21  O   UNL     1       1.924   3.150  18.077  0.00  0.00    +0.000 OA
ATOM     22  C   UNL     1       0.857   3.154  19.019  0.00  0.00    +0.000 C 
ENDBRANCH  17  21
BRANCH  18  23
ATOM     23  O   UNL     1       4.248   2.492  19.126  0.00  0.00    +0.000 OA
ATOM     24  C   UNL     1       4.119   2.220  20.516  0.00  0.00    +0.000 C 
ENDBRANCH  18  23
BRANCH  19  25
ATOM     25  O   UNL     1       6.308   4.451  19.449  0.00  0.00    +0.000 OA
ATOM     26  C   UNL     1       7.305   5.470  19.464  0.00  0.00    +0.000 C 
ENDBRANCH  19  25
ENDBRANCH   2  15
TORSDOF 8
ENDMDL
MODEL 4
REMARK VINA RESULT:      -6.2      3.735      7.667
REMARK  Name = 
REMARK  12 active torsions:
REMARK  status: ('A' for Active; 'I' for Inactive)
REMARK    1  A    between atoms: C_1  and  O_2
REMARK    2  A    between atoms: O_2  and  C_3
REMARK    3  A    between atoms: C_6  and  C_7
REMARK    4  A    between atoms: C_8  and  C_9
REMARK    5  A    between atoms: C_11  and  O_12
REMARK    6  A    between atoms: O_12  and  C_13
REMARK    7  A    between atoms: C_14  and  O_15
REMARK    8  A    between atoms: O_15  and  C_16
REMARK    9  A    between atoms: C_17  and  O_18
REMARK   10  A    between atoms: O_18  and  C_19
REMARK   11  A    between atoms: C_22  and  C_23
REMARK   12  A    between atoms: C_23  and  O_25
REMARK                            x       y       z     vdW  Elec       q    Type
REMARK                         _______ _______ _______ _____ _____    ______ ____
ROOT
ATOM      1  C   UNL     1       3.032   7.912  17.896  0.00  0.00    +0.000 C 
ATOM      2  C   UNL     1       2.422   9.102  17.853  0.00  0.00    +0.000 C 
ENDROOT
BRANCH   1   6
ATOM      3  C   UNL     1       1.559   4.511  19.991  0.00  0.00    +0.000 A 
ATOM      4  C   UNL     1       1.547   5.774  20.594  0.00  0.00    +0.000 A 
ATOM      5  C   UNL     1       2.087   6.882  19.935  0.00  0.00    +0.000 A 
ATOM      6  C   UNL     1       2.669   6.733  18.678  0.00  0.00    +0.000 A 
ATOM      7  C   UNL     1       2.764   5.462  18.110  0.00  0.00    +0.000 A 
ATOM      8  C   UNL     1       2.204   4.342  18.752  0.00  0.00    +0.000 A 
BRANCH   3  10
ATOM      9  C   UNL     1       1.626   2.931  21.759  0.00  0.00    +0.000 C 
ATOM     10  O   UNL     1       0.977   3.410  20.577  0.00  0.00    +0.000 OA
ENDBRANCH   3  10
BRANCH   8  11
ATOM     11  C   UNL     1       2.279   3.052  17.997  0.00  0.00    +0.000 C 
ATOM     12  O   UNL     1       1.995   2.968  16.811  0.00  0.00    +0.000 OA
BRANCH  11  13
ATOM     13  O   UNL     1       2.633   1.971  18.719  0.00  0.00    +0.000 OA
ATOM     14  H   UNL     1       1.940   1.281  18.745  0.00  0.00    +0.000 HD
ENDBRANCH  11  13
ENDBRANCH   8  11
ENDBRANCH   1   6
BRANCH   2  15
ATOM     15  C   UNL     1       1.251   9.550  18.604  0.00  0.00    +0.000 A 
ATOM     16  C   UNL     1       1.354   9.785  19.974  0.00  0.00    +0.000 A 
ATOM     17  C   UNL     1       0.307  10.405  20.666  0.00  0.00    +0.000 A 
ATOM     18  C   UNL     1      -0.877  10.763  19.981  0.00  0.00    +0.000 A 
ATOM     19  C   UNL     1      -0.992  10.487  18.602  0.00  0.00    +0.000 A 
ATOM     20  C   UNL     1       0.073   9.871  17.931  0.00  0.00    +0.000 A 
BRANCH  17  21
ATOM     21  O   UNL     1       0.373  10.715  22.004  0.00  0.00    +0.000 OA
ATOM     22  C   UNL     1       0.221   9.627  22.910  0.00  0.00    +0.000 C 
ENDBRANCH  17  21
BRANCH  18  23
ATOM     23  O   UNL     1      -1.859  11.341  20.754  0.00  0.00    +0.000 OA
ATOM     24  C   UNL     1      -1.996  12.753  20.655  0.00  0.00    +0.000 C 
ENDBRANCH  18  23
BRANCH  19  25
ATOM     25  O   UNL     1      -2.168  10.793  17.963  0.00  0.00    +0.000 OA
ATOM     26  C   UNL     1      -2.973   9.682  17.577  0.00  0.00    +0.000 C 
ENDBRANCH  19  25
ENDBRANCH   2  15
TORSDOF 8
ENDMDL
MODEL 5
REMARK VINA RESULT:      -6.2      2.788      4.696
REMARK  Name = 
REMARK  12 active torsions:
REMARK  status: ('A' for Active; 'I' for Inactive)
REMARK    1  A    between atoms: C_1  and  O_2
REMARK    2  A    between atoms: O_2  and  C_3
REMARK    3  A    between atoms: C_6  and  C_7
REMARK    4  A    between atoms: C_8  and  C_9
REMARK    5  A    between atoms: C_11  and  O_12
REMARK    6  A    between atoms: O_12  and  C_13
REMARK    7  A    between atoms: C_14  and  O_15
REMARK    8  A    between atoms: O_15  and  C_16
REMARK    9  A    between atoms: C_17  and  O_18
REMARK   10  A    between atoms: O_18  and  C_19
REMARK   11  A    between atoms: C_22  and  C_23
REMARK   12  A    between atoms: C_23  and  O_25
REMARK                            x       y       z     vdW  Elec       q    Type
REMARK                         _______ _______ _______ _____ _____    ______ ____
ROOT
ATOM      1  C   UNL     1       2.132   8.678  17.775  0.00  0.00    +0.000 C 
ATOM      2  C   UNL     1       2.831   7.579  17.469  0.00  0.00    +0.000 C 
ENDROOT
BRANCH   1   6
ATOM      3  C   UNL     1       0.798   9.906  21.627  0.00  0.00    +0.000 A 
ATOM      4  C   UNL     1       1.205   8.584  21.406  0.00  0.00    +0.000 A 
ATOM      5  C   UNL     1       1.583   8.160  20.130  0.00  0.00    +0.000 A 
ATOM      6  C   UNL     1       1.533   9.046  19.055  0.00  0.00    +0.000 A 
ATOM      7  C   UNL     1       1.044  10.339  19.251  0.00  0.00    +0.000 A 
ATOM      8  C   UNL     1       0.682  10.785  20.535  0.00  0.00    +0.000 A 
BRANCH   3  10
ATOM      9  C   UNL     1      -0.883  10.217  23.271  0.00  0.00    +0.000 C 
ATOM     10  O   UNL     1       0.483  10.379  22.880  0.00  0.00    +0.000 OA
ENDBRANCH   3  10
BRANCH   8  11
ATOM     11  C   UNL     1       0.270  12.221  20.635  0.00  0.00    +0.000 C 
ATOM     12  O   UNL     1      -0.586  12.710  19.913  0.00  0.00    +0.000 OA
BRANCH  11  13
ATOM     13  O   UNL     1       0.941  12.959  21.540  0.00  0.00    +0.000 OA
ATOM     14  H   UNL     1       0.354  13.476  22.127  0.00  0.00    +0.000 HD
ENDBRANCH  11  13
ENDBRANCH   8  11
ENDBRANCH   1   6
BRANCH   2  15
ATOM     15  C   UNL     1       3.153   6.440  18.326  0.00  0.00    +0.000 A 
ATOM     16  C   UNL     1       2.157   5.528  18.669  0.00  0.00    +0.000 A 
ATOM     17  C   UNL     1       2.486   4.329  19.314  0.00  0.00    +0.000 A 
ATOM     18  C   UNL     1       3.831   4.057  19.652  0.00  0.00    +0.000 A 
ATOM     19  C   UNL     1       4.831   5.001  19.338  0.00  0.00    +0.000 A 
ATOM     20  C   UNL     1       4.477   6.191  18.686  0.00  0.00    +0.000 A 
BRANCH  17  21
ATOM     21  O   UNL     1       1.556   3.365  19.626  0.00  0.00    +0.000 OA
ATOM     22  C   UNL     1       1.014   2.636  18.529  0.00  0.00    +0.000 C 
ENDBRANCH  17  21
BRANCH  18  23
ATOM     23  O   UNL     1       4.050   2.866  20.309  0.00  0.00    +0.000 OA
ATOM     24  C   UNL     1       4.466   1.767  19.508  0.00  0.00    +0.000 C 
ENDBRANCH  18  23
BRANCH  19  25
ATOM     25  O   UNL     1       6.125   4.746  19.719  0.00  0.00    +0.000 OA
ATOM     26  C   UNL     1       7.120   5.593  19.150  0.00  0.00    +0.000 C 
ENDBRANCH  19  25
ENDBRANCH   2  15
TORSDOF 8
ENDMDL
MODEL 6
REMARK VINA RESULT:      -6.2      1.327      6.346
REMARK  Name = 
REMARK  12 active torsions:
REMARK  status: ('A' for Active; 'I' for Inactive)
REMARK    1  A    between atoms: C_1  and  O_2
REMARK    2  A    between atoms: O_2  and  C_3
REMARK    3  A    between atoms: C_6  and  C_7
REMARK    4  A    between atoms: C_8  and  C_9
REMARK    5  A    between atoms: C_11  and  O_12
REMARK    6  A    between atoms: O_12  and  C_13
REMARK    7  A    between atoms: C_14  and  O_15
REMARK    8  A    between atoms: O_15  and  C_16
REMARK    9  A    between atoms: C_17  and  O_18
REMARK   10  A    between atoms: O_18  and  C_19
REMARK   11  A    between atoms: C_22  and  C_23
REMARK   12  A    between atoms: C_23  and  O_25
REMARK                            x       y       z     vdW  Elec       q    Type
REMARK                         _______ _______ _______ _____ _____    ______ ____
ROOT
ATOM      1  C   UNL     1       2.867   3.654  20.387  0.00  0.00    +0.000 C 
ATOM      2  C   UNL     1       1.988   4.576  20.799  0.00  0.00    +0.000 C 
ENDROOT
BRANCH   1   6
ATOM      3  C   UNL     1       5.677   4.414  17.281  0.00  0.00    +0.000 A 
ATOM      4  C   UNL     1       4.524   3.661  17.024  0.00  0.00    +0.000 A 
ATOM      5  C   UNL     1       3.631   3.356  18.054  0.00  0.00    +0.000 A 
ATOM      6  C   UNL     1       3.894   3.776  19.357  0.00  0.00    +0.000 A 
ATOM      7  C   UNL     1       5.085   4.449  19.635  0.00  0.00    +0.000 A 
ATOM      8  C   UNL     1       5.982   4.783  18.603  0.00  0.00    +0.000 A 
BRANCH   3  10
ATOM      9  C   UNL     1       6.318   4.183  15.008  0.00  0.00    +0.000 C 
ATOM     10  O   UNL     1       6.545   4.793  16.282  0.00  0.00    +0.000 OA
ENDBRANCH   3  10
BRANCH   8  11
ATOM     11  C   UNL     1       7.172   5.595  19.011  0.00  0.00    +0.000 C 
ATOM     12  O   UNL     1       7.701   5.479  20.106  0.00  0.00    +0.000 OA
BRANCH  11  13
ATOM     13  O   UNL     1       7.596   6.503  18.111  0.00  0.00    +0.000 OA
ATOM     14  H   UNL     1       7.612   6.159  17.195  0.00  0.00    +0.000 HD
ENDBRANCH  11  13
ENDBRANCH   8  11
ENDBRANCH   1   6
BRANCH   2  15
ATOM     15  C   UNL     1       1.802   5.938  20.304  0.00  0.00    +0.000 A 
ATOM     16  C   UNL     1       1.225   6.902  21.128  0.00  0.00    +0.000 A 
ATOM     17  C   UNL     1       1.226   8.249  20.749  0.00  0.00    +0.000 A 
ATOM     18  C   UNL     1       1.783   8.632  19.507  0.00  0.00    +0.000 A 
ATOM     19  C   UNL     1       2.331   7.648  18.658  0.00  0.00    +0.000 A 
ATOM     20  C   UNL     1       2.323   6.306  19.064  0.00  0.00    +0.000 A 
BRANCH  17  21
ATOM     21  O   UNL     1       0.724   9.253  21.544  0.00  0.00    +0.000 OA
ATOM     22  C   UNL     1      -0.435   8.931  22.306  0.00  0.00    +0.000 C 
ENDBRANCH  17  21
BRANCH  18  23
ATOM     23  O   UNL     1       1.711   9.976  19.212  0.00  0.00    +0.000 OA
ATOM     24  C   UNL     1       0.560  10.406  18.495  0.00  0.00    +0.000 C 
ENDBRANCH  18  23
BRANCH  19  25
ATOM     25  O   UNL     1       2.820   8.027  17.434  0.00  0.00    +0.000 OA
ATOM     26  C   UNL     1       4.066   7.450  17.055  0.00  0.00    +0.000 C 
ENDBRANCH  19  25
ENDBRANCH   2  15
TORSDOF 8
ENDMDL
MODEL 7
REMARK VINA RESULT:      -6.1      3.871      7.094
REMARK  Name = 
REMARK  12 active torsions:
REMARK  status: ('A' for Active; 'I' for Inactive)
REMARK    1  A    between atoms: C_1  and  O_2
REMARK    2  A    between atoms: O_2  and  C_3
REMARK    3  A    between atoms: C_6  and  C_7
REMARK    4  A    between atoms: C_8  and  C_9
REMARK    5  A    between atoms: C_11  and  O_12
REMARK    6  A    between atoms: O_12  and  C_13
REMARK    7  A    between atoms: C_14  and  O_15
REMARK    8  A    between atoms: O_15  and  C_16
REMARK    9  A    between atoms: C_17  and  O_18
REMARK   10  A    between atoms: O_18  and  C_19
REMARK   11  A    between atoms: C_22  and  C_23
REMARK   12  A    between atoms: C_23  and  O_25
REMARK                            x       y       z     vdW  Elec       q    Type
REMARK                         _______ _______ _______ _____ _____    ______ ____
ROOT
ATOM      1  C   UNL     1       2.946   7.625  17.584  0.00  0.00    +0.000 C 
ATOM      2  C   UNL     1       2.464   8.872  17.525  0.00  0.00    +0.000 C 
ENDROOT
BRANCH   1   6
ATOM      3  C   UNL     1       1.437   4.596  20.168  0.00  0.00    +0.000 A 
ATOM      4  C   UNL     1       1.760   5.862  20.673  0.00  0.00    +0.000 A 
ATOM      5  C   UNL     1       2.314   6.839  19.842  0.00  0.00    +0.000 A 
ATOM      6  C   UNL     1       2.578   6.552  18.504  0.00  0.00    +0.000 A 
ATOM      7  C   UNL     1       2.342   5.265  18.016  0.00  0.00    +0.000 A 
ATOM      8  C   UNL     1       1.762   4.280  18.836  0.00  0.00    +0.000 A 
BRANCH   3  10
ATOM      9  C   UNL     1       1.712   2.816  21.712  0.00  0.00    +0.000 C 
ATOM     10  O   UNL     1       0.828   3.631  20.936  0.00  0.00    +0.000 OA
ENDBRANCH   3  10
BRANCH   8  11
ATOM     11  C   UNL     1       1.463   2.972  18.172  0.00  0.00    +0.000 C 
ATOM     12  O   UNL     1       2.218   2.461  17.358  0.00  0.00    +0.000 OA
BRANCH  11  13
ATOM     13  O   UNL     1       0.279   2.413  18.489  0.00  0.00    +0.000 OA
ATOM     14  H   UNL     1       0.360   1.676  19.127  0.00  0.00    +0.000 HD
ENDBRANCH  11  13
ENDBRANCH   8  11
ENDBRANCH   1   6
BRANCH   2  15
ATOM     15  C   UNL     1       1.464   9.500  18.385  0.00  0.00    +0.000 A 
ATOM     16  C   UNL     1       0.180   9.738  17.898  0.00  0.00    +0.000 A 
ATOM     17  C   UNL     1      -0.841  10.147  18.763  0.00  0.00    +0.000 A 
ATOM     18  C   UNL     1      -0.563  10.355  20.134  0.00  0.00    +0.000 A 
ATOM     19  C   UNL     1       0.747  10.152  20.615  0.00  0.00    +0.000 A 
ATOM     20  C   UNL     1       1.751   9.736  19.730  0.00  0.00    +0.000 A 
BRANCH  17  21
ATOM     21  O   UNL     1      -2.139  10.341  18.353  0.00  0.00    +0.000 OA
ATOM     22  C   UNL     1      -2.327  11.236  17.262  0.00  0.00    +0.000 C 
ENDBRANCH  17  21
BRANCH  18  23
ATOM     23  O   UNL     1      -1.626  10.784  20.898  0.00  0.00    +0.000 OA
ATOM     24  C   UNL     1      -1.724  12.186  21.118  0.00  0.00    +0.000 C 
ENDBRANCH  18  23
BRANCH  19  25
ATOM     25  O   UNL     1       1.014  10.410  21.937  0.00  0.00    +0.000 OA
ATOM     26  C   UNL     1       0.828   9.318  22.834  0.00  0.00    +0.000 C 
ENDBRANCH  19  25
ENDBRANCH   2  15
TORSDOF 8
ENDMDL
MODEL 8
REMARK VINA RESULT:      -6.1      2.768      4.818
REMARK  Name = 
REMARK  12 active torsions:
REMARK  status: ('A' for Active; 'I' for Inactive)
REMARK    1  A    between atoms: C_1  and  O_2
REMARK    2  A    between atoms: O_2  and  C_3
REMARK    3  A    between atoms: C_6  and  C_7
REMARK    4  A    between atoms: C_8  and  C_9
REMARK    5  A    between atoms: C_11  and  O_12
REMARK    6  A    between atoms: O_12  and  C_13
REMARK    7  A    between atoms: C_14  and  O_15
REMARK    8  A    between atoms: O_15  and  C_16
REMARK    9  A    between atoms: C_17  and  O_18
REMARK   10  A    between atoms: O_18  and  C_19
REMARK   11  A    between atoms: C_22  and  C_23
REMARK   12  A    between atoms: C_23  and  O_25
REMARK                            x       y       z     vdW  Elec       q    Type
REMARK                         _______ _______ _______ _____ _____    ______ ____
ROOT
ATOM      1  C   UNL     1       2.161   8.730  17.659  0.00  0.00    +0.000 C 
ATOM      2  C   UNL     1       2.810   7.644  17.222  0.00  0.00    +0.000 C 
ENDROOT
BRANCH   1   6
ATOM      3  C   UNL     1       0.944   9.663  21.630  0.00  0.00    +0.000 A 
ATOM      4  C   UNL     1       1.475   8.403  21.330  0.00  0.00    +0.000 A 
ATOM      5  C   UNL     1       1.818   8.070  20.017  0.00  0.00    +0.000 A 
ATOM      6  C   UNL     1       1.606   8.983  18.986  0.00  0.00    +0.000 A 
ATOM      7  C   UNL     1       0.994  10.206  19.264  0.00  0.00    +0.000 A 
ATOM      8  C   UNL     1       0.666  10.563  20.585  0.00  0.00    +0.000 A 
BRANCH   3  10
ATOM      9  C   UNL     1      -0.651   9.714  23.385  0.00  0.00    +0.000 C 
ATOM     10  O   UNL     1       0.658  10.053  22.918  0.00  0.00    +0.000 OA
ENDBRANCH   3  10
BRANCH   8  11
ATOM     11  C   UNL     1       0.110  11.941  20.770  0.00  0.00    +0.000 C 
ATOM     12  O   UNL     1      -0.840  12.357  20.123  0.00  0.00    +0.000 OA
BRANCH  11  13
ATOM     13  O   UNL     1       0.756  12.717  21.661  0.00  0.00    +0.000 OA
ATOM     14  H   UNL     1       0.178  13.037  22.383  0.00  0.00    +0.000 HD
ENDBRANCH  11  13
ENDBRANCH   8  11
ENDBRANCH   1   6
BRANCH   2  15
ATOM     15  C   UNL     1       3.107   6.411  17.948  0.00  0.00    +0.000 A 
ATOM     16  C   UNL     1       4.406   6.160  18.386  0.00  0.00    +0.000 A 
ATOM     17  C   UNL     1       4.667   5.093  19.254  0.00  0.00    +0.000 A 
ATOM     18  C   UNL     1       3.614   4.241  19.659  0.00  0.00    +0.000 A 
ATOM     19  C   UNL     1       2.308   4.475  19.182  0.00  0.00    +0.000 A 
ATOM     20  C   UNL     1       2.072   5.554  18.319  0.00  0.00    +0.000 A 
BRANCH  17  21
ATOM     21  O   UNL     1       5.916   4.830  19.766  0.00  0.00    +0.000 OA
ATOM     22  C   UNL     1       6.994   5.575  19.208  0.00  0.00    +0.000 C 
ENDBRANCH  17  21
BRANCH  18  23
ATOM     23  O   UNL     1       3.976   3.203  20.490  0.00  0.00    +0.000 OA
ATOM     24  C   UNL     1       4.364   1.990  19.857  0.00  0.00    +0.000 C 
ENDBRANCH  18  23
BRANCH  19  25
ATOM     25  O   UNL     1       1.306   3.608  19.542  0.00  0.00    +0.000 OA
ATOM     26  C   UNL     1       0.974   2.607  18.584  0.00  0.00    +0.000 C 
ENDBRANCH  19  25
ENDBRANCH   2  15
TORSDOF 8
ENDMDL
MODEL 9
REMARK VINA RESULT:      -6.0      2.748      4.738
REMARK  Name = 
REMARK  12 active torsions:
REMARK  status: ('A' for Active; 'I' for Inactive)
REMARK    1  A    between atoms: C_1  and  O_2
REMARK    2  A    between atoms: O_2  and  C_3
REMARK    3  A    between atoms: C_6  and  C_7
REMARK    4  A    between atoms: C_8  and  C_9
REMARK    5  A    between atoms: C_11  and  O_12
REMARK    6  A    between atoms: O_12  and  C_13
REMARK    7  A    between atoms: C_14  and  O_15
REMARK    8  A    between atoms: O_15  and  C_16
REMARK    9  A    between atoms: C_17  and  O_18
REMARK   10  A    between atoms: O_18  and  C_19
REMARK   11  A    between atoms: C_22  and  C_23
REMARK   12  A    between atoms: C_23  and  O_25
REMARK                            x       y       z     vdW  Elec       q    Type
REMARK                         _______ _______ _______ _____ _____    ______ ____
ROOT
ATOM      1  C   UNL     1       2.424   8.867  17.568  0.00  0.00    +0.000 C 
ATOM      2  C   UNL     1       3.240   7.871  17.202  0.00  0.00    +0.000 C 
ENDROOT
BRANCH   1   6
ATOM      3  C   UNL     1       0.098   9.421  21.091  0.00  0.00    +0.000 A 
ATOM      4  C   UNL     1       1.149   8.495  21.074  0.00  0.00    +0.000 A 
ATOM      5  C   UNL     1       1.875   8.264  19.902  0.00  0.00    +0.000 A 
ATOM      6  C   UNL     1       1.539   8.936  18.728  0.00  0.00    +0.000 A 
ATOM      7  C   UNL     1       0.437   9.793  18.716  0.00  0.00    +0.000 A 
ATOM      8  C   UNL     1      -0.287  10.051  19.894  0.00  0.00    +0.000 A 
BRANCH   3  10
ATOM      9  C   UNL     1       0.085   9.429  23.463  0.00  0.00    +0.000 C 
ATOM     10  O   UNL     1      -0.595   9.725  22.240  0.00  0.00    +0.000 OA
ENDBRANCH   3  10
BRANCH   8  11
ATOM     11  C   UNL     1      -1.383  11.066  19.777  0.00  0.00    +0.000 C 
ATOM     12  O   UNL     1      -2.102  11.143  18.792  0.00  0.00    +0.000 OA
BRANCH  11  13
ATOM     13  O   UNL     1      -1.495  11.925  20.808  0.00  0.00    +0.000 OA
ATOM     14  H   UNL     1      -1.228  12.838  20.579  0.00  0.00    +0.000 HD
ENDBRANCH  11  13
ENDBRANCH   8  11
ENDBRANCH   1   6
BRANCH   2  15
ATOM     15  C   UNL     1       3.437   6.576  17.848  0.00  0.00    +0.000 A 
ATOM     16  C   UNL     1       4.681   6.250  18.383  0.00  0.00    +0.000 A 
ATOM     17  C   UNL     1       4.833   5.109  19.179  0.00  0.00    +0.000 A 
ATOM     18  C   UNL     1       3.726   4.261  19.414  0.00  0.00    +0.000 A 
ATOM     19  C   UNL     1       2.477   4.573  18.837  0.00  0.00    +0.000 A 
ATOM     20  C   UNL     1       2.350   5.725  18.049  0.00  0.00    +0.000 A 
BRANCH  17  21
ATOM     21  O   UNL     1       6.021   4.767  19.782  0.00  0.00    +0.000 OA
ATOM     22  C   UNL     1       7.162   5.528  19.400  0.00  0.00    +0.000 C 
ENDBRANCH  17  21
BRANCH  18  23
ATOM     23  O   UNL     1       3.982   3.149  20.185  0.00  0.00    +0.000 OA
ATOM     24  C   UNL     1       4.152   1.920  19.490  0.00  0.00    +0.000 C 
ENDBRANCH  18  23
BRANCH  19  25
ATOM     25  O   UNL     1       1.426   3.712  19.030  0.00  0.00    +0.000 OA
ATOM     26  C   UNL     1       0.764   3.810  20.288  0.00  0.00    +0.000 C 
ENDBRANCH  19  25
ENDBRANCH   2  15
TORSDOF 8
ENDMDL
