MODEL 1
REMARK VINA RESULT:      -8.6      0.000      0.000
REMARK  Name = 
REMARK  15 active torsions:
REMARK  status: ('A' for Active; 'I' for Inactive)
REMARK    1  A    between atoms: C_1  and  C_2
REMARK    2  A    between atoms: C_2  and  C_3
REMARK    3  A    between atoms: C_4  and  C_5
REMARK    4  A    between atoms: C_5  and  C_6
REMARK    5  A    between atoms: C_6  and  C_7
REMARK    6  A    between atoms: C_7  and  C_8
REMARK    7  A    between atoms: C_9  and  C_10
REMARK    8  A    between atoms: C_10  and  C_11
REMARK    9  A    between atoms: C_11  and  C_12
REMARK   10  A    between atoms: C_12  and  C_13
REMARK   11  A    between atoms: C_14  and  C_15
REMARK   12  A    between atoms: C_14  and  C_16
REMARK   13  A    between atoms: C_19  and  O_20
REMARK   14  A    between atoms: C_26  and  O_27
REMARK   15  A    between atoms: C_29  and  O_30
REMARK                            x       y       z     vdW  Elec       q    Type
REMARK                         _______ _______ _______ _____ _____    ______ ____
ROOT
ATOM      1  C   UNL     1       5.927   5.043  16.694  0.00  0.00    +0.000 C 
ATOM      2  C   UNL     1       7.058   6.032  17.085  0.00  0.00    +0.000 C 
ATOM      3  O   UNL     1       7.775   6.629  16.274  0.00  0.00    +0.000 OA
ATOM      4  C   UNL     1       7.370   6.280  18.523  0.00  0.00    +0.000 C 
ATOM      5  C   UNL     1       6.677   5.663  19.481  0.00  0.00    +0.000 C 
ATOM      6  C   UNL     1       5.599   4.749  19.198  0.00  0.00    +0.000 A 
ATOM      7  O   UNL     1       4.954   4.287  20.329  0.00  0.00    +0.000 OA
ATOM      8  C   UNL     1       3.791   3.572  20.166  0.00  0.00    +0.000 A 
ATOM      9  C   UNL     1       3.053   3.295  21.319  0.00  0.00    +0.000 A 
ATOM     10  C   UNL     1       1.867   2.569  21.208  0.00  0.00    +0.000 A 
ATOM     11  C   UNL     1       1.409   2.124  19.975  0.00  0.00    +0.000 A 
ATOM     12  C   UNL     1       2.147   2.408  18.828  0.00  0.00    +0.000 A 
ATOM     13  C   UNL     1       3.345   3.129  18.920  0.00  0.00    +0.000 A 
ATOM     14  C   UNL     1       4.165   3.459  17.741  0.00  0.00    +0.000 A 
ATOM     15  O   UNL     1       3.938   2.981  16.638  0.00  0.00    +0.000 OA
ATOM     16  C   UNL     1       5.279   4.424  17.934  0.00  0.00    +0.000 A 
ENDROOT
BRANCH   4  17
ATOM     17  O   UNL     1       8.411   7.141  18.808  0.00  0.00    +0.000 OA
ATOM     18  H   UNL     1       8.499   7.696  18.000  0.00  0.00    +0.000 HD
ENDBRANCH   4  17
BRANCH  10  19
ATOM     19  O   UNL     1       1.106   2.275  22.296  0.00  0.00    +0.000 OA
ATOM     20  H   UNL     1       1.454   1.476  22.725  0.00  0.00    +0.000 HD
ENDBRANCH  10  19
BRANCH  12  21
ATOM     21  O   UNL     1       1.667   1.991  17.620  0.00  0.00    +0.000 OA
ATOM     22  H   UNL     1       2.189   2.371  16.897  0.00  0.00    +0.000 HD
ENDBRANCH  12  21
BRANCH   1  23
ATOM     23  C   UNL     1       6.569   4.004  15.739  0.00  0.00    +0.000 C 
BRANCH  23  26
ATOM     24  C   UNL     1       6.632   4.352  13.226  0.00  0.00    +0.000 C 
ATOM     25  C   UNL     1       7.383   4.877  12.028  0.00  0.00    +0.000 C 
ATOM     26  C   UNL     1       7.165   4.540  14.454  0.00  0.00    +0.000 C 
BRANCH  24  27
ATOM     27  C   UNL     1       5.339   3.568  13.047  0.00  0.00    +0.000 C 
BRANCH  27  28
ATOM     28  C   UNL     1       5.068   2.995  11.656  0.00  0.00    +0.000 C 
BRANCH  28  32
ATOM     29  C   UNL     1       2.537   4.672   9.225  0.00  0.00    +0.000 C 
ATOM     30  C   UNL     1       3.186   3.686  10.155  0.00  0.00    +0.000 C 
ATOM     31  C   UNL     1       2.460   2.396  10.416  0.00  0.00    +0.000 C 
ATOM     32  C   UNL     1       4.375   3.954  10.727  0.00  0.00    +0.000 C 
ENDBRANCH  28  32
ENDBRANCH  27  28
ENDBRANCH  24  27
ENDBRANCH  23  26
ENDBRANCH   1  23
BRANCH   1  33
ATOM     33  C   UNL     1       4.797   5.855  15.965  0.00  0.00    +0.000 C 
BRANCH  33  34
ATOM     34  C   UNL     1       4.321   7.096  16.667  0.00  0.00    +0.000 C 
ATOM     35  C   UNL     1       3.242   7.236  17.459  0.00  0.00    +0.000 C 
ATOM     36  C   UNL     1       2.208   6.181  17.730  0.00  0.00    +0.000 C 
ATOM     37  C   UNL     1       3.030   8.530  18.198  0.00  0.00    +0.000 C 
ENDBRANCH  33  34
ENDBRANCH   1  33
TORSDOF 10
ENDMDL
MODEL 2
REMARK VINA RESULT:      -8.5      1.011      1.681
REMARK  Name = 
REMARK  15 active torsions:
REMARK  status: ('A' for Active; 'I' for Inactive)
REMARK    1  A    between atoms: C_1  and  C_2
REMARK    2  A    between atoms: C_2  and  C_3
REMARK    3  A    between atoms: C_4  and  C_5
REMARK    4  A    between atoms: C_5  and  C_6
REMARK    5  A    between atoms: C_6  and  C_7
REMARK    6  A    between atoms: C_7  and  C_8
REMARK    7  A    between atoms: C_9  and  C_10
REMARK    8  A    between atoms: C_10  and  C_11
REMARK    9  A    between atoms: C_11  and  C_12
REMARK   10  A    between atoms: C_12  and  C_13
REMARK   11  A    between atoms: C_14  and  C_15
REMARK   12  A    between atoms: C_14  and  C_16
REMARK   13  A    between atoms: C_19  and  O_20
REMARK   14  A    between atoms: C_26  and  O_27
REMARK   15  A    between atoms: C_29  and  O_30
REMARK                            x       y       z     vdW  Elec       q    Type
REMARK                         _______ _______ _______ _____ _____    ______ ____
ROOT
ATOM      1  C   UNL     1       5.704   5.103  16.839  0.00  0.00    +0.000 C 
ATOM      2  C   UNL     1       6.933   5.955  17.255  0.00  0.00    +0.000 C 
ATOM      3  O   UNL     1       7.681   6.536  16.460  0.00  0.00    +0.000 OA
ATOM      4  C   UNL     1       7.304   6.078  18.694  0.00  0.00    +0.000 C 
ATOM      5  C   UNL     1       6.583   5.465  19.633  0.00  0.00    +0.000 C 
ATOM      6  C   UNL     1       5.416   4.676  19.328  0.00  0.00    +0.000 A 
ATOM      7  O   UNL     1       4.761   4.201  20.449  0.00  0.00    +0.000 OA
ATOM      8  C   UNL     1       3.532   3.609  20.279  0.00  0.00    +0.000 A 
ATOM      9  C   UNL     1       2.802   3.325  21.436  0.00  0.00    +0.000 A 
ATOM     10  C   UNL     1       1.550   2.721  21.319  0.00  0.00    +0.000 A 
ATOM     11  C   UNL     1       1.020   2.403  20.075  0.00  0.00    +0.000 A 
ATOM     12  C   UNL     1       1.750   2.692  18.925  0.00  0.00    +0.000 A 
ATOM     13  C   UNL     1       3.013   3.292  19.023  0.00  0.00    +0.000 A 
ATOM     14  C   UNL     1       3.829   3.623  17.841  0.00  0.00    +0.000 A 
ATOM     15  O   UNL     1       3.528   3.241  16.718  0.00  0.00    +0.000 OA
ATOM     16  C   UNL     1       5.033   4.465  18.058  0.00  0.00    +0.000 A 
ENDROOT
BRANCH   4  17
ATOM     17  O   UNL     1       8.430   6.818  18.999  0.00  0.00    +0.000 OA
ATOM     18  H   UNL     1       8.827   7.032  18.124  0.00  0.00    +0.000 HD
ENDBRANCH   4  17
BRANCH  10  19
ATOM     19  O   UNL     1       0.794   2.427  22.409  0.00  0.00    +0.000 OA
ATOM     20  H   UNL     1       1.156   1.639  22.847  0.00  0.00    +0.000 HD
ENDBRANCH  10  19
BRANCH  12  21
ATOM     21  O   UNL     1       1.201   2.402  17.709  0.00  0.00    +0.000 OA
ATOM     22  H   UNL     1       0.603   3.111  17.427  0.00  0.00    +0.000 HD
ENDBRANCH  12  21
BRANCH   1  23
ATOM     23  C   UNL     1       6.219   4.075  15.799  0.00  0.00    +0.000 C 
BRANCH  23  26
ATOM     24  C   UNL     1       6.618   4.589  13.346  0.00  0.00    +0.000 C 
ATOM     25  C   UNL     1       7.558   5.106  12.287  0.00  0.00    +0.000 C 
ATOM     26  C   UNL     1       7.017   4.626  14.637  0.00  0.00    +0.000 C 
BRANCH  24  27
ATOM     27  C   UNL     1       5.277   3.978  12.961  0.00  0.00    +0.000 C 
BRANCH  27  28
ATOM     28  C   UNL     1       5.164   3.398  11.552  0.00  0.00    +0.000 C 
BRANCH  28  32
ATOM     29  C   UNL     1       6.156  -0.347  11.217  0.00  0.00    +0.000 C 
ATOM     30  C   UNL     1       6.233   1.153  11.255  0.00  0.00    +0.000 C 
ATOM     31  C   UNL     1       7.570   1.788  10.991  0.00  0.00    +0.000 C 
ATOM     32  C   UNL     1       5.139   1.895  11.513  0.00  0.00    +0.000 C 
ENDBRANCH  28  32
ENDBRANCH  27  28
ENDBRANCH  24  27
ENDBRANCH  23  26
ENDBRANCH   1  23
BRANCH   1  33
ATOM     33  C   UNL     1       4.636   6.062  16.200  0.00  0.00    +0.000 C 
BRANCH  33  34
ATOM     34  C   UNL     1       4.085   7.129  17.105  0.00  0.00    +0.000 C 
ATOM     35  C   UNL     1       2.882   7.165  17.705  0.00  0.00    +0.000 C 
ATOM     36  C   UNL     1       1.772   6.172  17.510  0.00  0.00    +0.000 C 
ATOM     37  C   UNL     1       2.586   8.251  18.704  0.00  0.00    +0.000 C 
ENDBRANCH  33  34
ENDBRANCH   1  33
TORSDOF 10
ENDMDL
MODEL 3
REMARK VINA RESULT:      -7.7      6.843     10.020
REMARK  Name = 
REMARK  15 active torsions:
REMARK  status: ('A' for Active; 'I' for Inactive)
REMARK    1  A    between atoms: C_1  and  C_2
REMARK    2  A    between atoms: C_2  and  C_3
REMARK    3  A    between atoms: C_4  and  C_5
REMARK    4  A    between atoms: C_5  and  C_6
REMARK    5  A    between atoms: C_6  and  C_7
REMARK    6  A    between atoms: C_7  and  C_8
REMARK    7  A    between atoms: C_9  and  C_10
REMARK    8  A    between atoms: C_10  and  C_11
REMARK    9  A    between atoms: C_11  and  C_12
REMARK   10  A    between atoms: C_12  and  C_13
REMARK   11  A    between atoms: C_14  and  C_15
REMARK   12  A    between atoms: C_14  and  C_16
REMARK   13  A    between atoms: C_19  and  O_20
REMARK   14  A    between atoms: C_26  and  O_27
REMARK   15  A    between atoms: C_29  and  O_30
REMARK                            x       y       z     vdW  Elec       q    Type
REMARK                         _______ _______ _______ _____ _____    ______ ____
ROOT
ATOM      1  C   UNL     1      -0.002  11.313  19.758  0.00  0.00    +0.000 C 
ATOM      2  C   UNL     1       0.460  11.984  21.079  0.00  0.00    +0.000 C 
ATOM      3  O   UNL     1       1.618  11.953  21.511  0.00  0.00    +0.000 OA
ATOM      4  C   UNL     1      -0.529  12.689  21.945  0.00  0.00    +0.000 C 
ATOM      5  C   UNL     1      -1.813  12.755  21.589  0.00  0.00    +0.000 C 
ATOM      6  C   UNL     1      -2.314  12.177  20.368  0.00  0.00    +0.000 A 
ATOM      7  O   UNL     1      -3.653  12.433  20.142  0.00  0.00    +0.000 OA
ATOM      8  C   UNL     1      -4.179  12.100  18.917  0.00  0.00    +0.000 A 
ATOM      9  C   UNL     1      -5.472  12.553  18.641  0.00  0.00    +0.000 A 
ATOM     10  C   UNL     1      -6.054  12.239  17.413  0.00  0.00    +0.000 A 
ATOM     11  C   UNL     1      -5.370  11.492  16.464  0.00  0.00    +0.000 A 
ATOM     12  C   UNL     1      -4.080  11.048  16.742  0.00  0.00    +0.000 A 
ATOM     13  C   UNL     1      -3.481  11.346  17.974  0.00  0.00    +0.000 A 
ATOM     14  C   UNL     1      -2.119  10.904  18.322  0.00  0.00    +0.000 A 
ATOM     15  O   UNL     1      -1.497  10.111  17.629  0.00  0.00    +0.000 OA
ATOM     16  C   UNL     1      -1.509  11.479  19.550  0.00  0.00    +0.000 A 
ENDROOT
BRANCH   4  17
ATOM     17  O   UNL     1      -0.066  13.234  23.127  0.00  0.00    +0.000 OA
ATOM     18  H   UNL     1       0.666  13.832  22.850  0.00  0.00    +0.000 HD
ENDBRANCH   4  17
BRANCH  10  19
ATOM     19  O   UNL     1      -7.306  12.658  17.089  0.00  0.00    +0.000 OA
ATOM     20  H   UNL     1      -7.492  12.428  16.163  0.00  0.00    +0.000 HD
ENDBRANCH  10  19
BRANCH  12  21
ATOM     21  O   UNL     1      -3.408  10.341  15.786  0.00  0.00    +0.000 OA
ATOM     22  H   UNL     1      -2.953  10.941  15.176  0.00  0.00    +0.000 HD
ENDBRANCH  12  21
BRANCH   1  23
ATOM     23  C   UNL     1       0.460   9.835  19.836  0.00  0.00    +0.000 C 
BRANCH  23  26
ATOM     24  C   UNL     1       2.115   8.217  18.796  0.00  0.00    +0.000 C 
ATOM     25  C   UNL     1       3.055   7.909  17.657  0.00  0.00    +0.000 C 
ATOM     26  C   UNL     1       1.385   9.353  18.739  0.00  0.00    +0.000 C 
BRANCH  24  27
ATOM     27  C   UNL     1       2.044   7.303  20.011  0.00  0.00    +0.000 C 
BRANCH  27  28
ATOM     28  C   UNL     1       2.746   5.950  19.898  0.00  0.00    +0.000 C 
BRANCH  28  32
ATOM     29  C   UNL     1       0.544   2.804  19.282  0.00  0.00    +0.000 C 
ATOM     30  C   UNL     1       1.473   3.964  19.058  0.00  0.00    +0.000 C 
ATOM     31  C   UNL     1       1.984   4.186  17.662  0.00  0.00    +0.000 C 
ATOM     32  C   UNL     1       1.827   4.772  20.074  0.00  0.00    +0.000 C 
ENDBRANCH  28  32
ENDBRANCH  27  28
ENDBRANCH  24  27
ENDBRANCH  23  26
ENDBRANCH   1  23
BRANCH   1  33
ATOM     33  C   UNL     1       0.693  12.057  18.562  0.00  0.00    +0.000 C 
BRANCH  33  34
ATOM     34  C   UNL     1       0.697  13.558  18.634  0.00  0.00    +0.000 C 
ATOM     35  C   UNL     1       1.755  14.388  18.570  0.00  0.00    +0.000 C 
ATOM     36  C   UNL     1       3.196  13.971  18.514  0.00  0.00    +0.000 C 
ATOM     37  C   UNL     1       1.526  15.874  18.500  0.00  0.00    +0.000 C 
ENDBRANCH  33  34
ENDBRANCH   1  33
TORSDOF 10
ENDMDL
MODEL 4
REMARK VINA RESULT:      -7.6      7.446     10.734
REMARK  Name = 
REMARK  15 active torsions:
REMARK  status: ('A' for Active; 'I' for Inactive)
REMARK    1  A    between atoms: C_1  and  C_2
REMARK    2  A    between atoms: C_2  and  C_3
REMARK    3  A    between atoms: C_4  and  C_5
REMARK    4  A    between atoms: C_5  and  C_6
REMARK    5  A    between atoms: C_6  and  C_7
REMARK    6  A    between atoms: C_7  and  C_8
REMARK    7  A    between atoms: C_9  and  C_10
REMARK    8  A    between atoms: C_10  and  C_11
REMARK    9  A    between atoms: C_11  and  C_12
REMARK   10  A    between atoms: C_12  and  C_13
REMARK   11  A    between atoms: C_14  and  C_15
REMARK   12  A    between atoms: C_14  and  C_16
REMARK   13  A    between atoms: C_19  and  O_20
REMARK   14  A    between atoms: C_26  and  O_27
REMARK   15  A    between atoms: C_29  and  O_30
REMARK                            x       y       z     vdW  Elec       q    Type
REMARK                         _______ _______ _______ _____ _____    ______ ____
ROOT
ATOM      1  C   UNL     1      -0.062  13.237  20.358  0.00  0.00    +0.000 C 
ATOM      2  C   UNL     1       0.190  13.809  21.779  0.00  0.00    +0.000 C 
ATOM      3  O   UNL     1       1.277  14.245  22.174  0.00  0.00    +0.000 OA
ATOM      4  C   UNL     1      -0.910  13.817  22.787  0.00  0.00    +0.000 C 
ATOM      5  C   UNL     1      -2.116  13.341  22.475  0.00  0.00    +0.000 C 
ATOM      6  C   UNL     1      -2.433  12.814  21.172  0.00  0.00    +0.000 A 
ATOM      7  O   UNL     1      -3.760  12.455  21.028  0.00  0.00    +0.000 OA
ATOM      8  C   UNL     1      -4.210  12.131  19.770  0.00  0.00    +0.000 A 
ATOM      9  C   UNL     1      -5.590  11.973  19.615  0.00  0.00    +0.000 A 
ATOM     10  C   UNL     1      -6.099  11.640  18.360  0.00  0.00    +0.000 A 
ATOM     11  C   UNL     1      -5.259  11.469  17.267  0.00  0.00    +0.000 A 
ATOM     12  C   UNL     1      -3.886  11.632  17.426  0.00  0.00    +0.000 A 
ATOM     13  C   UNL     1      -3.354  11.959  18.682  0.00  0.00    +0.000 A 
ATOM     14  C   UNL     1      -1.910  12.146  18.908  0.00  0.00    +0.000 A 
ATOM     15  O   UNL     1      -1.078  11.863  18.058  0.00  0.00    +0.000 OA
ATOM     16  C   UNL     1      -1.495  12.719  20.215  0.00  0.00    +0.000 A 
ENDROOT
BRANCH   4  17
ATOM     17  O   UNL     1      -0.615  14.304  24.045  0.00  0.00    +0.000 OA
ATOM     18  H   UNL     1       0.193  13.810  24.316  0.00  0.00    +0.000 HD
ENDBRANCH   4  17
BRANCH  10  19
ATOM     19  O   UNL     1      -7.432  11.479  18.150  0.00  0.00    +0.000 OA
ATOM     20  H   UNL     1      -7.844  11.127  18.956  0.00  0.00    +0.000 HD
ENDBRANCH  10  19
BRANCH  12  21
ATOM     21  O   UNL     1      -3.077  11.491  16.335  0.00  0.00    +0.000 OA
ATOM     22  H   UNL     1      -3.606  11.352  15.535  0.00  0.00    +0.000 HD
ENDBRANCH  12  21
BRANCH   1  23
ATOM     23  C   UNL     1       1.022  12.152  20.128  0.00  0.00    +0.000 C 
BRANCH  23  26
ATOM     24  C   UNL     1       0.876   9.629  20.357  0.00  0.00    +0.000 C 
ATOM     25  C   UNL     1       0.633   8.440  21.253  0.00  0.00    +0.000 C 
ATOM     26  C   UNL     1       0.870  10.863  20.908  0.00  0.00    +0.000 C 
BRANCH  24  27
ATOM     27  C   UNL     1       1.056   9.445  18.856  0.00  0.00    +0.000 C 
BRANCH  27  28
ATOM     28  C   UNL     1       2.315   8.710  18.399  0.00  0.00    +0.000 C 
BRANCH  28  32
ATOM     29  C   UNL     1       2.911   4.911  17.815  0.00  0.00    +0.000 C 
ATOM     30  C   UNL     1       3.114   6.400  17.853  0.00  0.00    +0.000 C 
ATOM     31  C   UNL     1       4.410   6.939  17.316  0.00  0.00    +0.000 C 
ATOM     32  C   UNL     1       2.163   7.214  18.348  0.00  0.00    +0.000 C 
ENDBRANCH  28  32
ENDBRANCH  27  28
ENDBRANCH  24  27
ENDBRANCH  23  26
ENDBRANCH   1  23
BRANCH   1  33
ATOM     33  C   UNL     1       0.088  14.410  19.324  0.00  0.00    +0.000 C 
BRANCH  33  34
ATOM     34  C   UNL     1       1.378  14.446  18.553  0.00  0.00    +0.000 C 
ATOM     35  C   UNL     1       2.307  15.419  18.539  0.00  0.00    +0.000 C 
ATOM     36  C   UNL     1       2.198  16.748  19.229  0.00  0.00    +0.000 C 
ATOM     37  C   UNL     1       3.609  15.188  17.820  0.00  0.00    +0.000 C 
ENDBRANCH  33  34
ENDBRANCH   1  33
TORSDOF 10
ENDMDL
MODEL 5
REMARK VINA RESULT:      -7.5      8.228     11.590
REMARK  Name = 
REMARK  15 active torsions:
REMARK  status: ('A' for Active; 'I' for Inactive)
REMARK    1  A    between atoms: C_1  and  C_2
REMARK    2  A    between atoms: C_2  and  C_3
REMARK    3  A    between atoms: C_4  and  C_5
REMARK    4  A    between atoms: C_5  and  C_6
REMARK    5  A    between atoms: C_6  and  C_7
REMARK    6  A    between atoms: C_7  and  C_8
REMARK    7  A    between atoms: C_9  and  C_10
REMARK    8  A    between atoms: C_10  and  C_11
REMARK    9  A    between atoms: C_11  and  C_12
REMARK   10  A    between atoms: C_12  and  C_13
REMARK   11  A    between atoms: C_14  and  C_15
REMARK   12  A    between atoms: C_14  and  C_16
REMARK   13  A    between atoms: C_19  and  O_20
REMARK   14  A    between atoms: C_26  and  O_27
REMARK   15  A    between atoms: C_29  and  O_30
REMARK                            x       y       z     vdW  Elec       q    Type
REMARK                         _______ _______ _______ _____ _____    ______ ____
ROOT
ATOM      1  C   UNL     1      -0.537  10.714  19.796  0.00  0.00    +0.000 C 
ATOM      2  C   UNL     1       0.572   9.726  20.249  0.00  0.00    +0.000 C 
ATOM      3  O   UNL     1       1.238   9.023  19.480  0.00  0.00    +0.000 OA
ATOM      4  C   UNL     1       0.864   9.544  21.701  0.00  0.00    +0.000 C 
ATOM      5  C   UNL     1       0.182  10.231  22.618  0.00  0.00    +0.000 C 
ATOM      6  C   UNL     1      -0.846  11.181  22.275  0.00  0.00    +0.000 A 
ATOM      7  O   UNL     1      -1.367  11.850  23.367  0.00  0.00    +0.000 OA
ATOM      8  C   UNL     1      -2.206  12.914  23.135  0.00  0.00    +0.000 A 
ATOM      9  C   UNL     1      -2.553  13.697  24.239  0.00  0.00    +0.000 A 
ATOM     10  C   UNL     1      -3.405  14.786  24.059  0.00  0.00    +0.000 A 
ATOM     11  C   UNL     1      -3.906  15.106  22.804  0.00  0.00    +0.000 A 
ATOM     12  C   UNL     1      -3.552  14.326  21.706  0.00  0.00    +0.000 A 
ATOM     13  C   UNL     1      -2.704  13.221  21.868  0.00  0.00    +0.000 A 
ATOM     14  C   UNL     1      -2.295  12.362  20.743  0.00  0.00    +0.000 A 
ATOM     15  O   UNL     1      -2.803  12.459  19.635  0.00  0.00    +0.000 OA
ATOM     16  C   UNL     1      -1.214  11.375  20.998  0.00  0.00    +0.000 A 
ENDROOT
BRANCH   4  17
ATOM     17  O   UNL     1       1.835   8.624  22.043  0.00  0.00    +0.000 OA
ATOM     18  H   UNL     1       1.822   8.609  23.028  0.00  0.00    +0.000 HD
ENDBRANCH   4  17
BRANCH  10  19
ATOM     19  O   UNL     1      -3.772  15.585  25.095  0.00  0.00    +0.000 OA
ATOM     20  H   UNL     1      -4.503  15.166  25.580  0.00  0.00    +0.000 HD
ENDBRANCH  10  19
BRANCH  12  21
ATOM     21  O   UNL     1      -4.028  14.672  20.474  0.00  0.00    +0.000 OA
ATOM     22  H   UNL     1      -3.446  14.335  19.776  0.00  0.00    +0.000 HD
ENDBRANCH  12  21
BRANCH   1  23
ATOM     23  C   UNL     1      -1.506   9.898  18.902  0.00  0.00    +0.000 C 
BRANCH  23  26
ATOM     24  C   UNL     1      -2.784  10.412  16.771  0.00  0.00    +0.000 C 
ATOM     25  C   UNL     1      -2.734  10.779  15.309  0.00  0.00    +0.000 C 
ATOM     26  C   UNL     1      -1.622  10.329  17.456  0.00  0.00    +0.000 C 
BRANCH  24  27
ATOM     27  C   UNL     1      -4.110  10.075  17.440  0.00  0.00    +0.000 C 
BRANCH  27  28
ATOM     28  C   UNL     1      -5.148  11.194  17.514  0.00  0.00    +0.000 C 
BRANCH  28  32
ATOM     29  C   UNL     1      -7.431  12.226  20.489  0.00  0.00    +0.000 C 
ATOM     30  C   UNL     1      -6.651  12.268  19.205  0.00  0.00    +0.000 C 
ATOM     31  C   UNL     1      -6.684  13.546  18.413  0.00  0.00    +0.000 C 
ATOM     32  C   UNL     1      -5.950  11.198  18.786  0.00  0.00    +0.000 C 
ENDBRANCH  28  32
ENDBRANCH  27  28
ENDBRANCH  24  27
ENDBRANCH  23  26
ENDBRANCH   1  23
BRANCH   1  33
ATOM     33  C   UNL     1       0.142  11.871  18.979  0.00  0.00    +0.000 C 
BRANCH  33  34
ATOM     34  C   UNL     1       1.414  12.427  19.558  0.00  0.00    +0.000 C 
ATOM     35  C   UNL     1       1.583  13.581  20.228  0.00  0.00    +0.000 C 
ATOM     36  C   UNL     1       0.530  14.628  20.455  0.00  0.00    +0.000 C 
ATOM     37  C   UNL     1       2.914  13.877  20.866  0.00  0.00    +0.000 C 
ENDBRANCH  33  34
ENDBRANCH   1  33
TORSDOF 10
ENDMDL
MODEL 6
REMARK VINA RESULT:      -7.4      7.062     10.355
REMARK  Name = 
REMARK  15 active torsions:
REMARK  status: ('A' for Active; 'I' for Inactive)
REMARK    1  A    between atoms: C_1  and  C_2
REMARK    2  A    between atoms: C_2  and  C_3
REMARK    3  A    between atoms: C_4  and  C_5
REMARK    4  A    between atoms: C_5  and  C_6
REMARK    5  A    between atoms: C_6  and  C_7
REMARK    6  A    between atoms: C_7  and  C_8
REMARK    7  A    between atoms: C_9  and  C_10
REMARK    8  A    between atoms: C_10  and  C_11
REMARK    9  A    between atoms: C_11  and  C_12
REMARK   10  A    between atoms: C_12  and  C_13
REMARK   11  A    between atoms: C_14  and  C_15
REMARK   12  A    between atoms: C_14  and  C_16
REMARK   13  A    between atoms: C_19  and  O_20
REMARK   14  A    between atoms: C_26  and  O_27
REMARK   15  A    between atoms: C_29  and  O_30
REMARK                            x       y       z     vdW  Elec       q    Type
REMARK                         _______ _______ _______ _____ _____    ______ ____
ROOT
ATOM      1  C   UNL     1       0.321  12.584  19.813  0.00  0.00    +0.000 C 
ATOM      2  C   UNL     1       0.671  13.278  21.156  0.00  0.00    +0.000 C 
ATOM      3  O   UNL     1       1.819  13.558  21.521  0.00  0.00    +0.000 OA
ATOM      4  C   UNL     1      -0.410  13.612  22.128  0.00  0.00    +0.000 C 
ATOM      5  C   UNL     1      -1.682  13.325  21.849  0.00  0.00    +0.000 C 
ATOM      6  C   UNL     1      -2.088  12.703  20.614  0.00  0.00    +0.000 A 
ATOM      7  O   UNL     1      -3.458  12.573  20.483  0.00  0.00    +0.000 OA
ATOM      8  C   UNL     1      -3.958  12.178  19.265  0.00  0.00    +0.000 A 
ATOM      9  C   UNL     1      -5.343  12.253  19.097  0.00  0.00    +0.000 A 
ATOM     10  C   UNL     1      -5.902  11.860  17.881  0.00  0.00    +0.000 A 
ATOM     11  C   UNL     1      -5.106  11.403  16.839  0.00  0.00    +0.000 A 
ATOM     12  C   UNL     1      -3.726  11.335  17.011  0.00  0.00    +0.000 A 
ATOM     13  C   UNL     1      -3.146  11.718  18.228  0.00  0.00    +0.000 A 
ATOM     14  C   UNL     1      -1.692  11.669  18.465  0.00  0.00    +0.000 A 
ATOM     15  O   UNL     1      -0.924  11.135  17.678  0.00  0.00    +0.000 OA
ATOM     16  C   UNL     1      -1.181  12.319  19.700  0.00  0.00    +0.000 A 
ENDROOT
BRANCH   4  17
ATOM     17  O   UNL     1      -0.034  14.194  23.323  0.00  0.00    +0.000 OA
ATOM     18  H   UNL     1      -0.625  14.976  23.412  0.00  0.00    +0.000 HD
ENDBRANCH   4  17
BRANCH  10  19
ATOM     19  O   UNL     1      -7.242  11.916  17.660  0.00  0.00    +0.000 OA
ATOM     20  H   UNL     1      -7.589  12.756  18.006  0.00  0.00    +0.000 HD
ENDBRANCH  10  19
BRANCH  12  21
ATOM     21  O   UNL     1      -2.955  10.913  15.966  0.00  0.00    +0.000 OA
ATOM     22  H   UNL     1      -2.506  10.083  16.187  0.00  0.00    +0.000 HD
ENDBRANCH  12  21
BRANCH   1  23
ATOM     23  C   UNL     1       1.190  11.302  19.746  0.00  0.00    +0.000 C 
BRANCH  23  26
ATOM     24  C   UNL     1       1.068   8.858  20.420  0.00  0.00    +0.000 C 
ATOM     25  C   UNL     1       0.528   7.822  21.374  0.00  0.00    +0.000 C 
ATOM     26  C   UNL     1       0.786  10.159  20.654  0.00  0.00    +0.000 C 
BRANCH  24  27
ATOM     27  C   UNL     1       1.854   8.440  19.185  0.00  0.00    +0.000 C 
BRANCH  27  28
ATOM     28  C   UNL     1       2.747   7.207  19.322  0.00  0.00    +0.000 C 
BRANCH  28  32
ATOM     29  C   UNL     1       1.691   3.862  17.642  0.00  0.00    +0.000 C 
ATOM     30  C   UNL     1       1.968   4.916  18.677  0.00  0.00    +0.000 C 
ATOM     31  C   UNL     1       1.694   4.568  20.113  0.00  0.00    +0.000 C 
ATOM     32  C   UNL     1       2.446   6.123  18.322  0.00  0.00    +0.000 C 
ENDBRANCH  28  32
ENDBRANCH  27  28
ENDBRANCH  24  27
ENDBRANCH  23  26
ENDBRANCH   1  23
BRANCH   1  33
ATOM     33  C   UNL     1       0.684  13.570  18.644  0.00  0.00    +0.000 C 
BRANCH  33  34
ATOM     34  C   UNL     1       2.137  13.634  18.265  0.00  0.00    +0.000 C 
ATOM     35  C   UNL     1       2.954  14.703  18.294  0.00  0.00    +0.000 C 
ATOM     36  C   UNL     1       2.548  16.111  18.624  0.00  0.00    +0.000 C 
ATOM     37  C   UNL     1       4.423  14.518  18.025  0.00  0.00    +0.000 C 
ENDBRANCH  33  34
ENDBRANCH   1  33
TORSDOF 10
ENDMDL
MODEL 7
REMARK VINA RESULT:      -7.4      9.699     13.033
REMARK  Name = 
REMARK  15 active torsions:
REMARK  status: ('A' for Active; 'I' for Inactive)
REMARK    1  A    between atoms: C_1  and  C_2
REMARK    2  A    between atoms: C_2  and  C_3
REMARK    3  A    between atoms: C_4  and  C_5
REMARK    4  A    between atoms: C_5  and  C_6
REMARK    5  A    between atoms: C_6  and  C_7
REMARK    6  A    between atoms: C_7  and  C_8
REMARK    7  A    between atoms: C_9  and  C_10
REMARK    8  A    between atoms: C_10  and  C_11
REMARK    9  A    between atoms: C_11  and  C_12
REMARK   10  A    between atoms: C_12  and  C_13
REMARK   11  A    between atoms: C_14  and  C_15
REMARK   12  A    between atoms: C_14  and  C_16
REMARK   13  A    between atoms: C_19  and  O_20
REMARK   14  A    between atoms: C_26  and  O_27
REMARK   15  A    between atoms: C_29  and  O_30
REMARK                            x       y       z     vdW  Elec       q    Type
REMARK                         _______ _______ _______ _____ _____    ______ ____
ROOT
ATOM      1  C   UNL     1      -1.059  13.113  21.099  0.00  0.00    +0.000 C 
ATOM      2  C   UNL     1      -0.013  12.067  21.569  0.00  0.00    +0.000 C 
ATOM      3  O   UNL     1       1.139  11.982  21.128  0.00  0.00    +0.000 OA
ATOM      4  C   UNL     1      -0.387  11.044  22.589  0.00  0.00    +0.000 C 
ATOM      5  C   UNL     1      -1.615  11.024  23.108  0.00  0.00    +0.000 C 
ATOM      6  C   UNL     1      -2.632  11.976  22.740  0.00  0.00    +0.000 A 
ATOM      7  O   UNL     1      -3.805  11.839  23.458  0.00  0.00    +0.000 OA
ATOM      8  C   UNL     1      -4.763  12.816  23.327  0.00  0.00    +0.000 A 
ATOM      9  C   UNL     1      -5.843  12.763  24.211  0.00  0.00    +0.000 A 
ATOM     10  C   UNL     1      -6.846  13.729  24.118  0.00  0.00    +0.000 A 
ATOM     11  C   UNL     1      -6.783  14.740  23.168  0.00  0.00    +0.000 A 
ATOM     12  C   UNL     1      -5.701  14.790  22.292  0.00  0.00    +0.000 A 
ATOM     13  C   UNL     1      -4.688  13.823  22.365  0.00  0.00    +0.000 A 
ATOM     14  C   UNL     1      -3.521  13.829  21.466  0.00  0.00    +0.000 A 
ATOM     15  O   UNL     1      -3.450  14.573  20.498  0.00  0.00    +0.000 OA
ATOM     16  C   UNL     1      -2.406  12.902  21.793  0.00  0.00    +0.000 A 
ENDROOT
BRANCH   4  17
ATOM     17  O   UNL     1       0.574  10.115  22.940  0.00  0.00    +0.000 OA
ATOM     18  H   UNL     1       1.400  10.642  23.036  0.00  0.00    +0.000 HD
ENDBRANCH   4  17
BRANCH  10  19
ATOM     19  O   UNL     1      -7.917  13.730  24.955  0.00  0.00    +0.000 OA
ATOM     20  H   UNL     1      -8.183  14.647  25.134  0.00  0.00    +0.000 HD
ENDBRANCH  10  19
BRANCH  12  21
ATOM     21  O   UNL     1      -5.639  15.808  21.385  0.00  0.00    +0.000 OA
ATOM     22  H   UNL     1      -5.571  15.457  20.483  0.00  0.00    +0.000 HD
ENDBRANCH  12  21
BRANCH   1  23
ATOM     23  C   UNL     1      -1.125  12.997  19.554  0.00  0.00    +0.000 C 
BRANCH  23  26
ATOM     24  C   UNL     1      -2.237  11.086  18.309  0.00  0.00    +0.000 C 
ATOM     25  C   UNL     1      -2.178   9.646  17.864  0.00  0.00    +0.000 C 
ATOM     26  C   UNL     1      -1.181  11.598  18.979  0.00  0.00    +0.000 C 
BRANCH  24  27
ATOM     27  C   UNL     1      -3.486  11.922  18.066  0.00  0.00    +0.000 C 
BRANCH  27  28
ATOM     28  C   UNL     1      -4.831  11.217  18.241  0.00  0.00    +0.000 C 
BRANCH  28  32
ATOM     29  C   UNL     1      -7.521  11.710  21.006  0.00  0.00    +0.000 C 
ATOM     30  C   UNL     1      -6.707  11.106  19.896  0.00  0.00    +0.000 C 
ATOM     31  C   UNL     1      -7.096   9.737  19.413  0.00  0.00    +0.000 C 
ATOM     32  C   UNL     1      -5.669  11.775  19.358  0.00  0.00    +0.000 C 
ENDBRANCH  28  32
ENDBRANCH  27  28
ENDBRANCH  24  27
ENDBRANCH  23  26
ENDBRANCH   1  23
BRANCH   1  33
ATOM     33  C   UNL     1      -0.556  14.537  21.535  0.00  0.00    +0.000 C 
BRANCH  33  34
ATOM     34  C   UNL     1      -0.593  14.824  23.010  0.00  0.00    +0.000 C 
ATOM     35  C   UNL     1      -1.070  15.920  23.628  0.00  0.00    +0.000 C 
ATOM     36  C   UNL     1      -1.584  17.158  22.949  0.00  0.00    +0.000 C 
ATOM     37  C   UNL     1      -1.161  15.942  25.130  0.00  0.00    +0.000 C 
ENDBRANCH  33  34
ENDBRANCH   1  33
TORSDOF 10
ENDMDL
MODEL 8
REMARK VINA RESULT:      -7.4      7.467     10.662
REMARK  Name = 
REMARK  15 active torsions:
REMARK  status: ('A' for Active; 'I' for Inactive)
REMARK    1  A    between atoms: C_1  and  C_2
REMARK    2  A    between atoms: C_2  and  C_3
REMARK    3  A    between atoms: C_4  and  C_5
REMARK    4  A    between atoms: C_5  and  C_6
REMARK    5  A    between atoms: C_6  and  C_7
REMARK    6  A    between atoms: C_7  and  C_8
REMARK    7  A    between atoms: C_9  and  C_10
REMARK    8  A    between atoms: C_10  and  C_11
REMARK    9  A    between atoms: C_11  and  C_12
REMARK   10  A    between atoms: C_12  and  C_13
REMARK   11  A    between atoms: C_14  and  C_15
REMARK   12  A    between atoms: C_14  and  C_16
REMARK   13  A    between atoms: C_19  and  O_20
REMARK   14  A    between atoms: C_26  and  O_27
REMARK   15  A    between atoms: C_29  and  O_30
REMARK                            x       y       z     vdW  Elec       q    Type
REMARK                         _______ _______ _______ _____ _____    ______ ____
ROOT
ATOM      1  C   UNL     1      -0.027  12.473  19.583  0.00  0.00    +0.000 C 
ATOM      2  C   UNL     1       0.507  13.008  20.939  0.00  0.00    +0.000 C 
ATOM      3  O   UNL     1       1.702  13.194  21.195  0.00  0.00    +0.000 OA
ATOM      4  C   UNL     1      -0.441  13.289  22.056  0.00  0.00    +0.000 C 
ATOM      5  C   UNL     1      -1.750  13.092  21.897  0.00  0.00    +0.000 C 
ATOM      6  C   UNL     1      -2.323  12.620  20.662  0.00  0.00    +0.000 A 
ATOM      7  O   UNL     1      -3.704  12.569  20.676  0.00  0.00    +0.000 OA
ATOM      8  C   UNL     1      -4.356  12.325  19.491  0.00  0.00    +0.000 A 
ATOM      9  C   UNL     1      -5.744  12.481  19.490  0.00  0.00    +0.000 A 
ATOM     10  C   UNL     1      -6.455  12.242  18.314  0.00  0.00    +0.000 A 
ATOM     11  C   UNL     1      -5.805  11.859  17.148  0.00  0.00    +0.000 A 
ATOM     12  C   UNL     1      -4.420  11.709  17.154  0.00  0.00    +0.000 A 
ATOM     13  C   UNL     1      -3.690  11.937  18.328  0.00  0.00    +0.000 A 
ATOM     14  C   UNL     1      -2.225  11.796  18.392  0.00  0.00    +0.000 A 
ATOM     15  O   UNL     1      -1.579  11.311  17.473  0.00  0.00    +0.000 OA
ATOM     16  C   UNL     1      -1.545  12.291  19.617  0.00  0.00    +0.000 A 
ENDROOT
BRANCH   4  17
ATOM     17  O   UNL     1       0.097  13.727  23.251  0.00  0.00    +0.000 OA
ATOM     18  H   UNL     1       1.071  13.695  23.108  0.00  0.00    +0.000 HD
ENDBRANCH   4  17
BRANCH  10  19
ATOM     19  O   UNL     1      -7.805  12.384  18.254  0.00  0.00    +0.000 OA
ATOM     20  H   UNL     1      -8.034  13.323  18.350  0.00  0.00    +0.000 HD
ENDBRANCH  10  19
BRANCH  12  21
ATOM     21  O   UNL     1      -3.793  11.362  15.992  0.00  0.00    +0.000 OA
ATOM     22  H   UNL     1      -2.870  11.656  16.002  0.00  0.00    +0.000 HD
ENDBRANCH  12  21
BRANCH   1  23
ATOM     23  C   UNL     1       0.754  11.165  19.293  0.00  0.00    +0.000 C 
BRANCH  23  26
ATOM     24  C   UNL     1       1.188   8.839  20.210  0.00  0.00    +0.000 C 
ATOM     25  C   UNL     1       0.986   7.850  21.330  0.00  0.00    +0.000 C 
ATOM     26  C   UNL     1       0.698  10.090  20.357  0.00  0.00    +0.000 C 
BRANCH  24  27
ATOM     27  C   UNL     1       1.870   8.416  18.916  0.00  0.00    +0.000 C 
BRANCH  27  28
ATOM     28  C   UNL     1       2.787   7.195  18.988  0.00  0.00    +0.000 C 
BRANCH  28  32
ATOM     29  C   UNL     1       1.531   3.657  17.972  0.00  0.00    +0.000 C 
ATOM     30  C   UNL     1       2.026   4.817  18.789  0.00  0.00    +0.000 C 
ATOM     31  C   UNL     1       2.225   4.595  20.262  0.00  0.00    +0.000 C 
ATOM     32  C   UNL     1       2.282   6.008  18.215  0.00  0.00    +0.000 C 
ENDBRANCH  28  32
ENDBRANCH  27  28
ENDBRANCH  24  27
ENDBRANCH  23  26
ENDBRANCH   1  23
BRANCH   1  33
ATOM     33  C   UNL     1       0.263  13.557  18.482  0.00  0.00    +0.000 C 
BRANCH  33  34
ATOM     34  C   UNL     1      -0.285  14.930  18.751  0.00  0.00    +0.000 C 
ATOM     35  C   UNL     1       0.400  16.079  18.905  0.00  0.00    +0.000 C 
ATOM     36  C   UNL     1       1.895  16.212  18.942  0.00  0.00    +0.000 C 
ATOM     37  C   UNL     1      -0.352  17.379  19.008  0.00  0.00    +0.000 C 
ENDBRANCH  33  34
ENDBRANCH   1  33
TORSDOF 10
ENDMDL
MODEL 9
REMARK VINA RESULT:      -7.3      5.817      9.572
REMARK  Name = 
REMARK  15 active torsions:
REMARK  status: ('A' for Active; 'I' for Inactive)
REMARK    1  A    between atoms: C_1  and  C_2
REMARK    2  A    between atoms: C_2  and  C_3
REMARK    3  A    between atoms: C_4  and  C_5
REMARK    4  A    between atoms: C_5  and  C_6
REMARK    5  A    between atoms: C_6  and  C_7
REMARK    6  A    between atoms: C_7  and  C_8
REMARK    7  A    between atoms: C_9  and  C_10
REMARK    8  A    between atoms: C_10  and  C_11
REMARK    9  A    between atoms: C_11  and  C_12
REMARK   10  A    between atoms: C_12  and  C_13
REMARK   11  A    between atoms: C_14  and  C_15
REMARK   12  A    between atoms: C_14  and  C_16
REMARK   13  A    between atoms: C_19  and  O_20
REMARK   14  A    between atoms: C_26  and  O_27
REMARK   15  A    between atoms: C_29  and  O_30
REMARK                            x       y       z     vdW  Elec       q    Type
REMARK                         _______ _______ _______ _____ _____    ______ ____
ROOT
ATOM      1  C   UNL     1       0.272  10.935  19.097  0.00  0.00    +0.000 C 
ATOM      2  C   UNL     1      -0.658  11.538  20.183  0.00  0.00    +0.000 C 
ATOM      3  O   UNL     1      -1.292  12.592  20.054  0.00  0.00    +0.000 OA
ATOM      4  C   UNL     1      -0.799  10.862  21.506  0.00  0.00    +0.000 C 
ATOM      5  C   UNL     1      -0.135   9.735  21.762  0.00  0.00    +0.000 C 
ATOM      6  C   UNL     1       0.729   9.103  20.798  0.00  0.00    +0.000 A 
ATOM      7  O   UNL     1       1.252   7.898  21.228  0.00  0.00    +0.000 OA
ATOM      8  C   UNL     1       1.924   7.120  20.316  0.00  0.00    +0.000 A 
ATOM      9  C   UNL     1       2.261   5.825  20.718  0.00  0.00    +0.000 A 
ATOM     10  C   UNL     1       2.948   4.995  19.831  0.00  0.00    +0.000 A 
ATOM     11  C   UNL     1       3.294   5.433  18.560  0.00  0.00    +0.000 A 
ATOM     12  C   UNL     1       2.951   6.724  18.163  0.00  0.00    +0.000 A 
ATOM     13  C   UNL     1       2.269   7.575  19.043  0.00  0.00    +0.000 A 
ATOM     14  C   UNL     1       1.879   8.948  18.677  0.00  0.00    +0.000 A 
ATOM     15  O   UNL     1       2.274   9.483  17.650  0.00  0.00    +0.000 OA
ATOM     16  C   UNL     1       0.959   9.664  19.599  0.00  0.00    +0.000 A 
ENDROOT
BRANCH   4  17
ATOM     17  O   UNL     1      -1.611  11.466  22.445  0.00  0.00    +0.000 OA
ATOM     18  H   UNL     1      -1.035  12.145  22.867  0.00  0.00    +0.000 HD
ENDBRANCH   4  17
BRANCH  10  19
ATOM     19  O   UNL     1       3.297   3.725  20.166  0.00  0.00    +0.000 OA
ATOM     20  H   UNL     1       3.991   3.751  20.845  0.00  0.00    +0.000 HD
ENDBRANCH  10  19
BRANCH  12  21
ATOM     21  O   UNL     1       3.272   7.128  16.899  0.00  0.00    +0.000 OA
ATOM     22  H   UNL     1       3.845   6.477  16.467  0.00  0.00    +0.000 HD
ENDBRANCH  12  21
BRANCH   1  23
ATOM     23  C   UNL     1       1.258  12.062  18.695  0.00  0.00    +0.000 C 
BRANCH  23  26
ATOM     24  C   UNL     1       2.846  13.793  19.656  0.00  0.00    +0.000 C 
ATOM     25  C   UNL     1       3.538  14.354  20.873  0.00  0.00    +0.000 C 
ATOM     26  C   UNL     1       1.970  12.778  19.824  0.00  0.00    +0.000 C 
BRANCH  24  27
ATOM     27  C   UNL     1       3.180  14.314  18.265  0.00  0.00    +0.000 C 
BRANCH  27  28
ATOM     28  C   UNL     1       3.737  15.735  18.177  0.00  0.00    +0.000 C 
BRANCH  28  32
ATOM     29  C   UNL     1       1.139  18.276  16.790  0.00  0.00    +0.000 C 
ATOM     30  C   UNL     1       1.910  17.387  17.726  0.00  0.00    +0.000 C 
ATOM     31  C   UNL     1       1.482  17.357  19.166  0.00  0.00    +0.000 C 
ATOM     32  C   UNL     1       2.942  16.645  17.282  0.00  0.00    +0.000 C 
ENDBRANCH  28  32
ENDBRANCH  27  28
ENDBRANCH  24  27
ENDBRANCH  23  26
ENDBRANCH   1  23
BRANCH   1  33
ATOM     33  C   UNL     1      -0.617  10.504  17.876  0.00  0.00    +0.000 C 
BRANCH  33  34
ATOM     34  C   UNL     1      -2.101  10.487  18.116  0.00  0.00    +0.000 C 
ATOM     35  C   UNL     1      -3.088  10.598  17.208  0.00  0.00    +0.000 C 
ATOM     36  C   UNL     1      -2.906  10.870  15.742  0.00  0.00    +0.000 C 
ATOM     37  C   UNL     1      -4.515  10.394  17.638  0.00  0.00    +0.000 C 
ENDBRANCH  33  34
ENDBRANCH   1  33
TORSDOF 10
ENDMDL
