MODEL 1
REMARK VINA RESULT:      -7.7      0.000      0.000
REMARK  Name = 
REMARK  9 active torsions:
REMARK  status: ('A' for Active; 'I' for Inactive)
REMARK    1  A    between atoms: C_1  and  C_2
REMARK    2  A    between atoms: C_2  and  C_3
REMARK    3  A    between atoms: C_2  and  N_4
REMARK    4  A    between atoms: C_2  and  C_21
REMARK    5  A    between atoms: C_5  and  C_7
REMARK    6  A    between atoms: C_10  and  C_11
REMARK    7  A    between atoms: C_14  and  O_15
REMARK    8  A    between atoms: O_15  and  C_16
REMARK    9  A    between atoms: C_16  and  C_17
REMARK                            x       y       z     vdW  Elec       q    Type
REMARK                         _______ _______ _______ _____ _____    ______ ____
ROOT
ATOM      1  N   UNL     1       1.212   9.245  19.591  0.00  0.00    +0.000 N 
ATOM      2  C   UNL     1       1.860   8.695  18.507  0.00  0.00    +0.000 C 
ATOM      3  O   UNL     1       1.898   9.218  17.396  0.00  0.00    +0.000 OA
ATOM      4  H   UNL     1       1.262   8.746  20.478  0.00  0.00    +0.000 HD
ENDROOT
BRANCH   2   5
ATOM      5  C   UNL     1       2.544   7.387  18.728  0.00  0.00    +0.000 A 
ATOM      6  C   UNL     1       2.180   6.615  19.818  0.00  0.00    +0.000 A 
ATOM      7  C   UNL     1       2.817   5.396  19.995  0.00  0.00    +0.000 A 
ATOM      8  C   UNL     1       3.821   4.959  19.113  0.00  0.00    +0.000 A 
ATOM      9  C   UNL     1       4.115   5.831  18.050  0.00  0.00    +0.000 A 
ATOM     10  N   UNL     1       3.497   7.025  17.837  0.00  0.00    +0.000 NA
BRANCH   8  11
ATOM     11  C   UNL     1       4.456   3.605  19.352  0.00  0.00    +0.000 C 
ATOM     12  C   UNL     1       3.834   2.530  20.207  0.00  0.00    +0.000 C 
ATOM     13  C   UNL     1       3.780   2.396  18.717  0.00  0.00    +0.000 C 
ENDBRANCH   8  11
BRANCH   9  14
ATOM     14  O   UNL     1       5.073   5.437  17.127  0.00  0.00    +0.000 OA
BRANCH  14  15
ATOM     15  C   UNL     1       5.810   6.555  16.614  0.00  0.00    +0.000 C 
BRANCH  15  16
ATOM     16  C   UNL     1       7.236   6.479  17.078  0.00  0.00    +0.000 C 
ATOM     17  C   UNL     1       7.805   7.615  17.896  0.00  0.00    +0.000 C 
ATOM     18  C   UNL     1       7.576   6.274  18.532  0.00  0.00    +0.000 C 
ENDBRANCH  15  16
ENDBRANCH  14  15
ENDBRANCH   9  14
ENDBRANCH   2   5
BRANCH   1  20
ATOM     19  C   UNL     1       1.411  11.649  19.038  0.00  0.00    +0.000 C 
ATOM     20  C   UNL     1       0.483  10.529  19.553  0.00  0.00    +0.000 C 
ATOM     21  C   UNL     1      -0.758  10.405  18.646  0.00  0.00    +0.000 C 
BRANCH  20  22
ATOM     22  C   UNL     1       0.049  10.878  20.969  0.00  0.00    +0.000 A 
ATOM     23  N   UNL     1       0.533  10.232  22.045  0.00  0.00    +0.000 NA
ATOM     24  O   UNL     1      -0.174  10.799  23.102  0.00  0.00    +0.000 OA
ATOM     25  C   UNL     1      -1.012  11.727  22.558  0.00  0.00    +0.000 A 
ATOM     26  N   UNL     1      -1.828  12.381  23.391  0.00  0.00    +0.000 N 
ATOM     27  N   UNL     1      -0.919  11.820  21.258  0.00  0.00    +0.000 NA
ATOM     28  H   UNL     1      -2.020  11.942  24.284  0.00  0.00    +0.000 HD
ATOM     29  H   UNL     1      -2.634  12.822  22.966  0.00  0.00    +0.000 HD
ENDBRANCH  20  22
ENDBRANCH   1  20
TORSDOF 7
ENDMDL
MODEL 2
REMARK VINA RESULT:      -7.6      1.113      1.428
REMARK  Name = 
REMARK  9 active torsions:
REMARK  status: ('A' for Active; 'I' for Inactive)
REMARK    1  A    between atoms: C_1  and  C_2
REMARK    2  A    between atoms: C_2  and  C_3
REMARK    3  A    between atoms: C_2  and  N_4
REMARK    4  A    between atoms: C_2  and  C_21
REMARK    5  A    between atoms: C_5  and  C_7
REMARK    6  A    between atoms: C_10  and  C_11
REMARK    7  A    between atoms: C_14  and  O_15
REMARK    8  A    between atoms: O_15  and  C_16
REMARK    9  A    between atoms: C_16  and  C_17
REMARK                            x       y       z     vdW  Elec       q    Type
REMARK                         _______ _______ _______ _____ _____    ______ ____
ROOT
ATOM      1  N   UNL     1       1.194   9.237  19.495  0.00  0.00    +0.000 N 
ATOM      2  C   UNL     1       1.938   8.775  18.431  0.00  0.00    +0.000 C 
ATOM      3  O   UNL     1       2.038   9.369  17.359  0.00  0.00    +0.000 OA
ATOM      4  H   UNL     1       1.197   8.683  20.350  0.00  0.00    +0.000 HD
ENDROOT
BRANCH   2   5
ATOM      5  C   UNL     1       2.648   7.477  18.622  0.00  0.00    +0.000 A 
ATOM      6  C   UNL     1       2.176   6.587  19.571  0.00  0.00    +0.000 A 
ATOM      7  C   UNL     1       2.842   5.379  19.721  0.00  0.00    +0.000 A 
ATOM      8  C   UNL     1       3.978   5.070  18.953  0.00  0.00    +0.000 A 
ATOM      9  C   UNL     1       4.372   6.054  18.029  0.00  0.00    +0.000 A 
ATOM     10  N   UNL     1       3.732   7.240  17.845  0.00  0.00    +0.000 NA
BRANCH   8  11
ATOM     11  C   UNL     1       4.639   3.721  19.151  0.00  0.00    +0.000 C 
ATOM     12  C   UNL     1       4.023   2.597  19.944  0.00  0.00    +0.000 C 
ATOM     13  C   UNL     1       4.009   2.526  18.449  0.00  0.00    +0.000 C 
ENDBRANCH   8  11
BRANCH   9  14
ATOM     14  O   UNL     1       5.467   5.789  17.219  0.00  0.00    +0.000 OA
BRANCH  14  15
ATOM     15  C   UNL     1       5.226   6.170  15.858  0.00  0.00    +0.000 C 
BRANCH  15  16
ATOM     16  C   UNL     1       5.411   4.983  14.957  0.00  0.00    +0.000 C 
ATOM     17  C   UNL     1       6.801   4.626  14.487  0.00  0.00    +0.000 C 
ATOM     18  C   UNL     1       6.080   3.725  15.448  0.00  0.00    +0.000 C 
ENDBRANCH  15  16
ENDBRANCH  14  15
ENDBRANCH   9  14
ENDBRANCH   2   5
BRANCH   1  20
ATOM     19  C   UNL     1       1.327  11.661  19.015  0.00  0.00    +0.000 C 
ATOM     20  C   UNL     1       0.426  10.498  19.480  0.00  0.00    +0.000 C 
ATOM     21  C   UNL     1      -0.795  10.362  18.548  0.00  0.00    +0.000 C 
BRANCH  20  22
ATOM     22  C   UNL     1      -0.043  10.792  20.898  0.00  0.00    +0.000 A 
ATOM     23  N   UNL     1       0.639  10.370  21.978  0.00  0.00    +0.000 NA
ATOM     24  O   UNL     1      -0.165  10.776  23.040  0.00  0.00    +0.000 OA
ATOM     25  C   UNL     1      -1.249  11.397  22.495  0.00  0.00    +0.000 A 
ATOM     26  N   UNL     1      -2.189  11.842  23.334  0.00  0.00    +0.000 N 
ATOM     27  N   UNL     1      -1.228  11.438  21.189  0.00  0.00    +0.000 NA
ATOM     28  H   UNL     1      -2.220  11.419  24.255  0.00  0.00    +0.000 HD
ATOM     29  H   UNL     1      -3.101  12.013  22.929  0.00  0.00    +0.000 HD
ENDBRANCH  20  22
ENDBRANCH   1  20
TORSDOF 7
ENDMDL
MODEL 3
REMARK VINA RESULT:      -7.3      2.891      4.740
REMARK  Name = 
REMARK  9 active torsions:
REMARK  status: ('A' for Active; 'I' for Inactive)
REMARK    1  A    between atoms: C_1  and  C_2
REMARK    2  A    between atoms: C_2  and  C_3
REMARK    3  A    between atoms: C_2  and  N_4
REMARK    4  A    between atoms: C_2  and  C_21
REMARK    5  A    between atoms: C_5  and  C_7
REMARK    6  A    between atoms: C_10  and  C_11
REMARK    7  A    between atoms: C_14  and  O_15
REMARK    8  A    between atoms: O_15  and  C_16
REMARK    9  A    between atoms: C_16  and  C_17
REMARK                            x       y       z     vdW  Elec       q    Type
REMARK                         _______ _______ _______ _____ _____    ______ ____
ROOT
ATOM      1  N   UNL     1      -0.403  10.518  18.603  0.00  0.00    +0.000 N 
ATOM      2  C   UNL     1       0.794  10.369  19.269  0.00  0.00    +0.000 C 
ATOM      3  O   UNL     1       1.255  11.207  20.042  0.00  0.00    +0.000 OA
ATOM      4  H   UNL     1      -0.710   9.754  18.004  0.00  0.00    +0.000 HD
ENDROOT
BRANCH   2   5
ATOM      5  C   UNL     1       1.550   9.108  19.016  0.00  0.00    +0.000 A 
ATOM      6  C   UNL     1       2.234   8.965  17.821  0.00  0.00    +0.000 A 
ATOM      7  C   UNL     1       2.944   7.791  17.612  0.00  0.00    +0.000 A 
ATOM      8  C   UNL     1       2.955   6.763  18.570  0.00  0.00    +0.000 A 
ATOM      9  C   UNL     1       2.216   7.015  19.739  0.00  0.00    +0.000 A 
ATOM     10  N   UNL     1       1.524   8.161  19.983  0.00  0.00    +0.000 NA
BRANCH   8  11
ATOM     11  C   UNL     1       3.773   5.519  18.287  0.00  0.00    +0.000 C 
ATOM     12  C   UNL     1       5.027   5.517  17.449  0.00  0.00    +0.000 C 
ATOM     13  C   UNL     1       5.147   5.426  18.938  0.00  0.00    +0.000 C 
ENDBRANCH   8  11
BRANCH   9  14
ATOM     14  O   UNL     1       2.219   6.049  20.736  0.00  0.00    +0.000 OA
BRANCH  14  15
ATOM     15  C   UNL     1       1.254   5.020  20.482  0.00  0.00    +0.000 C 
BRANCH  15  16
ATOM     16  C   UNL     1       1.660   3.757  21.186  0.00  0.00    +0.000 C 
ATOM     17  C   UNL     1       1.463   2.431  20.491  0.00  0.00    +0.000 C 
ATOM     18  C   UNL     1       2.851   2.954  20.729  0.00  0.00    +0.000 C 
ENDBRANCH  15  16
ENDBRANCH  14  15
ENDBRANCH   9  14
ENDBRANCH   2   5
BRANCH   1  20
ATOM     19  C   UNL     1      -1.735  11.862  20.198  0.00  0.00    +0.000 C 
ATOM     20  C   UNL     1      -1.278  11.701  18.733  0.00  0.00    +0.000 C 
ATOM     21  C   UNL     1      -0.531  12.965  18.263  0.00  0.00    +0.000 C 
BRANCH  20  22
ATOM     22  C   UNL     1      -2.511  11.484  17.866  0.00  0.00    +0.000 A 
ATOM     23  N   UNL     1      -2.421  11.160  16.564  0.00  0.00    +0.000 NA
ATOM     24  O   UNL     1      -3.750  11.138  16.149  0.00  0.00    +0.000 OA
ATOM     25  C   UNL     1      -4.505  11.452  17.240  0.00  0.00    +0.000 A 
ATOM     26  N   UNL     1      -5.829  11.530  17.070  0.00  0.00    +0.000 N 
ATOM     27  N   UNL     1      -3.801  11.673  18.319  0.00  0.00    +0.000 NA
ATOM     28  H   UNL     1      -6.161  11.683  16.125  0.00  0.00    +0.000 HD
ATOM     29  H   UNL     1      -6.336  12.050  17.775  0.00  0.00    +0.000 HD
ENDBRANCH  20  22
ENDBRANCH   1  20
TORSDOF 7
ENDMDL
MODEL 4
REMARK VINA RESULT:      -7.2      2.376      4.379
REMARK  Name = 
REMARK  9 active torsions:
REMARK  status: ('A' for Active; 'I' for Inactive)
REMARK    1  A    between atoms: C_1  and  C_2
REMARK    2  A    between atoms: C_2  and  C_3
REMARK    3  A    between atoms: C_2  and  N_4
REMARK    4  A    between atoms: C_2  and  C_21
REMARK    5  A    between atoms: C_5  and  C_7
REMARK    6  A    between atoms: C_10  and  C_11
REMARK    7  A    between atoms: C_14  and  O_15
REMARK    8  A    between atoms: O_15  and  C_16
REMARK    9  A    between atoms: C_16  and  C_17
REMARK                            x       y       z     vdW  Elec       q    Type
REMARK                         _______ _______ _______ _____ _____    ______ ____
ROOT
ATOM      1  N   UNL     1       1.079   9.195  18.853  0.00  0.00    +0.000 N 
ATOM      2  C   UNL     1       1.755   8.209  19.538  0.00  0.00    +0.000 C 
ATOM      3  O   UNL     1       1.727   8.086  20.761  0.00  0.00    +0.000 OA
ATOM      4  H   UNL     1       1.145   9.195  17.836  0.00  0.00    +0.000 HD
ENDROOT
BRANCH   2   5
ATOM      5  C   UNL     1       2.559   7.253  18.721  0.00  0.00    +0.000 A 
ATOM      6  C   UNL     1       3.413   7.753  17.753  0.00  0.00    +0.000 A 
ATOM      7  C   UNL     1       4.163   6.848  17.016  0.00  0.00    +0.000 A 
ATOM      8  C   UNL     1       4.048   5.462  17.223  0.00  0.00    +0.000 A 
ATOM      9  C   UNL     1       3.142   5.072  18.225  0.00  0.00    +0.000 A 
ATOM     10  N   UNL     1       2.404   5.933  18.977  0.00  0.00    +0.000 NA
BRANCH   8  11
ATOM     11  C   UNL     1       4.917   4.533  16.400  0.00  0.00    +0.000 C 
ATOM     12  C   UNL     1       6.006   5.011  15.473  0.00  0.00    +0.000 C 
ATOM     13  C   UNL     1       6.383   4.418  16.795  0.00  0.00    +0.000 C 
ENDBRANCH   8  11
BRANCH   9  14
ATOM     14  O   UNL     1       3.012   3.717  18.497  0.00  0.00    +0.000 OA
BRANCH  14  15
ATOM     15  C   UNL     1       3.627   3.364  19.743  0.00  0.00    +0.000 C 
BRANCH  15  16
ATOM     16  C   UNL     1       2.651   2.605  20.595  0.00  0.00    +0.000 C 
ATOM     17  C   UNL     1       2.062   3.275  21.814  0.00  0.00    +0.000 C 
ATOM     18  C   UNL     1       1.190   2.973  20.628  0.00  0.00    +0.000 C 
ENDBRANCH  15  16
ENDBRANCH  14  15
ENDBRANCH   9  14
ENDBRANCH   2   5
BRANCH   1  20
ATOM     19  C   UNL     1      -0.402   9.653  20.781  0.00  0.00    +0.000 C 
ATOM     20  C   UNL     1       0.240  10.224  19.499  0.00  0.00    +0.000 C 
ATOM     21  C   UNL     1       1.092  11.465  19.834  0.00  0.00    +0.000 C 
BRANCH  20  22
ATOM     22  C   UNL     1      -0.873  10.612  18.536  0.00  0.00    +0.000 A 
ATOM     23  N   UNL     1      -1.679  11.664  18.762  0.00  0.00    +0.000 NA
ATOM     24  O   UNL     1      -2.580  11.608  17.702  0.00  0.00    +0.000 OA
ATOM     25  C   UNL     1      -2.229  10.529  16.947  0.00  0.00    +0.000 A 
ATOM     26  N   UNL     1      -2.987  10.251  15.882  0.00  0.00    +0.000 N 
ATOM     27  N   UNL     1      -1.191   9.881  17.408  0.00  0.00    +0.000 NA
ATOM     28  H   UNL     1      -3.929  10.623  15.880  0.00  0.00    +0.000 HD
ATOM     29  H   UNL     1      -2.915   9.307  15.521  0.00  0.00    +0.000 HD
ENDBRANCH  20  22
ENDBRANCH   1  20
TORSDOF 7
ENDMDL
MODEL 5
REMARK VINA RESULT:      -7.2      1.618      2.132
REMARK  Name = 
REMARK  9 active torsions:
REMARK  status: ('A' for Active; 'I' for Inactive)
REMARK    1  A    between atoms: C_1  and  C_2
REMARK    2  A    between atoms: C_2  and  C_3
REMARK    3  A    between atoms: C_2  and  N_4
REMARK    4  A    between atoms: C_2  and  C_21
REMARK    5  A    between atoms: C_5  and  C_7
REMARK    6  A    between atoms: C_10  and  C_11
REMARK    7  A    between atoms: C_14  and  O_15
REMARK    8  A    between atoms: O_15  and  C_16
REMARK    9  A    between atoms: C_16  and  C_17
REMARK                            x       y       z     vdW  Elec       q    Type
REMARK                         _______ _______ _______ _____ _____    ______ ____
ROOT
ATOM      1  N   UNL     1       1.000   9.274  19.663  0.00  0.00    +0.000 N 
ATOM      2  C   UNL     1       1.772   8.853  18.602  0.00  0.00    +0.000 C 
ATOM      3  O   UNL     1       1.906   9.489  17.559  0.00  0.00    +0.000 OA
ATOM      4  H   UNL     1       0.976   8.687  20.495  0.00  0.00    +0.000 HD
ENDROOT
BRANCH   2   5
ATOM      5  C   UNL     1       2.472   7.544  18.760  0.00  0.00    +0.000 A 
ATOM      6  C   UNL     1       2.153   6.739  19.840  0.00  0.00    +0.000 A 
ATOM      7  C   UNL     1       2.803   5.520  19.959  0.00  0.00    +0.000 A 
ATOM      8  C   UNL     1       3.776   5.115  19.028  0.00  0.00    +0.000 A 
ATOM      9  C   UNL     1       4.024   6.019  17.979  0.00  0.00    +0.000 A 
ATOM     10  N   UNL     1       3.393   7.214  17.824  0.00  0.00    +0.000 NA
BRANCH   8  11
ATOM     11  C   UNL     1       4.427   3.759  19.205  0.00  0.00    +0.000 C 
ATOM     12  C   UNL     1       3.819   2.639  20.009  0.00  0.00    +0.000 C 
ATOM     13  C   UNL     1       3.766   2.573  18.515  0.00  0.00    +0.000 C 
ENDBRANCH   8  11
BRANCH   9  14
ATOM     14  O   UNL     1       4.950   5.658  17.011  0.00  0.00    +0.000 OA
BRANCH  14  15
ATOM     15  C   UNL     1       5.831   6.741  16.686  0.00  0.00    +0.000 C 
BRANCH  15  16
ATOM     16  C   UNL     1       7.235   6.393  17.087  0.00  0.00    +0.000 C 
ATOM     17  C   UNL     1       7.887   7.153  18.219  0.00  0.00    +0.000 C 
ATOM     18  C   UNL     1       7.527   5.705  18.396  0.00  0.00    +0.000 C 
ENDBRANCH  15  16
ENDBRANCH  14  15
ENDBRANCH   9  14
ENDBRANCH   2   5
BRANCH   1  20
ATOM     19  C   UNL     1      -0.426  10.773  18.305  0.00  0.00    +0.000 C 
ATOM     20  C   UNL     1       0.238  10.539  19.678  0.00  0.00    +0.000 C 
ATOM     21  C   UNL     1      -0.831  10.499  20.789  0.00  0.00    +0.000 C 
BRANCH  20  22
ATOM     22  C   UNL     1       1.208  11.682  19.944  0.00  0.00    +0.000 A 
ATOM     23  N   UNL     1       1.537  12.065  21.190  0.00  0.00    +0.000 NA
ATOM     24  O   UNL     1       2.364  13.165  20.977  0.00  0.00    +0.000 OA
ATOM     25  C   UNL     1       2.448  13.335  19.627  0.00  0.00    +0.000 A 
ATOM     26  N   UNL     1       3.168  14.369  19.181  0.00  0.00    +0.000 N 
ATOM     27  N   UNL     1       1.762  12.456  18.944  0.00  0.00    +0.000 NA
ATOM     28  H   UNL     1       3.324  15.133  19.829  0.00  0.00    +0.000 HD
ATOM     29  H   UNL     1       2.978  14.666  18.232  0.00  0.00    +0.000 HD
ENDBRANCH  20  22
ENDBRANCH   1  20
TORSDOF 7
ENDMDL
MODEL 6
REMARK VINA RESULT:      -7.1      2.612      7.713
REMARK  Name = 
REMARK  9 active torsions:
REMARK  status: ('A' for Active; 'I' for Inactive)
REMARK    1  A    between atoms: C_1  and  C_2
REMARK    2  A    between atoms: C_2  and  C_3
REMARK    3  A    between atoms: C_2  and  N_4
REMARK    4  A    between atoms: C_2  and  C_21
REMARK    5  A    between atoms: C_5  and  C_7
REMARK    6  A    between atoms: C_10  and  C_11
REMARK    7  A    between atoms: C_14  and  O_15
REMARK    8  A    between atoms: O_15  and  C_16
REMARK    9  A    between atoms: C_16  and  C_17
REMARK                            x       y       z     vdW  Elec       q    Type
REMARK                         _______ _______ _______ _____ _____    ______ ____
ROOT
ATOM      1  N   UNL     1       3.165   5.215  19.058  0.00  0.00    +0.000 N 
ATOM      2  C   UNL     1       3.182   6.503  18.569  0.00  0.00    +0.000 C 
ATOM      3  O   UNL     1       3.910   6.876  17.651  0.00  0.00    +0.000 OA
ATOM      4  H   UNL     1       2.505   5.001  19.804  0.00  0.00    +0.000 HD
ENDROOT
BRANCH   2   5
ATOM      5  C   UNL     1       2.255   7.478  19.214  0.00  0.00    +0.000 A 
ATOM      6  C   UNL     1       1.737   7.186  20.464  0.00  0.00    +0.000 A 
ATOM      7  C   UNL     1       0.889   8.113  21.052  0.00  0.00    +0.000 A 
ATOM      8  C   UNL     1       0.543   9.307  20.396  0.00  0.00    +0.000 A 
ATOM      9  C   UNL     1       1.120   9.491  19.127  0.00  0.00    +0.000 A 
ATOM     10  N   UNL     1       1.968   8.610  18.529  0.00  0.00    +0.000 NA
BRANCH   8  11
ATOM     11  C   UNL     1      -0.367  10.286  21.109  0.00  0.00    +0.000 C 
ATOM     12  C   UNL     1      -0.402  10.456  22.606  0.00  0.00    +0.000 C 
ATOM     13  C   UNL     1       0.288  11.490  21.773  0.00  0.00    +0.000 C 
ENDBRANCH   8  11
BRANCH   9  14
ATOM     14  O   UNL     1       0.840  10.667  18.447  0.00  0.00    +0.000 OA
BRANCH  14  15
ATOM     15  C   UNL     1       2.021  11.453  18.235  0.00  0.00    +0.000 C 
BRANCH  15  16
ATOM     16  C   UNL     1       1.742  12.890  18.570  0.00  0.00    +0.000 C 
ATOM     17  C   UNL     1       2.602  13.586  19.598  0.00  0.00    +0.000 C 
ATOM     18  C   UNL     1       2.687  13.988  18.153  0.00  0.00    +0.000 C 
ENDBRANCH  15  16
ENDBRANCH  14  15
ENDBRANCH   9  14
ENDBRANCH   2   5
BRANCH   1  20
ATOM     19  C   UNL     1       3.900   2.886  19.455  0.00  0.00    +0.000 C 
ATOM     20  C   UNL     1       4.016   4.124  18.542  0.00  0.00    +0.000 C 
ATOM     21  C   UNL     1       3.600   3.766  17.101  0.00  0.00    +0.000 C 
BRANCH  20  22
ATOM     22  C   UNL     1       5.463   4.597  18.554  0.00  0.00    +0.000 A 
ATOM     23  N   UNL     1       6.242   4.543  17.459  0.00  0.00    +0.000 NA
ATOM     24  O   UNL     1       7.477   4.985  17.925  0.00  0.00    +0.000 OA
ATOM     25  C   UNL     1       7.320   5.259  19.251  0.00  0.00    +0.000 A 
ATOM     26  N   UNL     1       8.398   5.669  19.927  0.00  0.00    +0.000 N 
ATOM     27  N   UNL     1       6.108   5.041  19.691  0.00  0.00    +0.000 NA
ATOM     28  H   UNL     1       9.301   5.440  19.530  0.00  0.00    +0.000 HD
ATOM     29  H   UNL     1       8.353   5.572  20.934  0.00  0.00    +0.000 HD
ENDBRANCH  20  22
ENDBRANCH   1  20
TORSDOF 7
ENDMDL
MODEL 7
REMARK VINA RESULT:      -7.1      2.125      3.018
REMARK  Name = 
REMARK  9 active torsions:
REMARK  status: ('A' for Active; 'I' for Inactive)
REMARK    1  A    between atoms: C_1  and  C_2
REMARK    2  A    between atoms: C_2  and  C_3
REMARK    3  A    between atoms: C_2  and  N_4
REMARK    4  A    between atoms: C_2  and  C_21
REMARK    5  A    between atoms: C_5  and  C_7
REMARK    6  A    between atoms: C_10  and  C_11
REMARK    7  A    between atoms: C_14  and  O_15
REMARK    8  A    between atoms: O_15  and  C_16
REMARK    9  A    between atoms: C_16  and  C_17
REMARK                            x       y       z     vdW  Elec       q    Type
REMARK                         _______ _______ _______ _____ _____    ______ ____
ROOT
ATOM      1  N   UNL     1       0.663   9.381  19.992  0.00  0.00    +0.000 N 
ATOM      2  C   UNL     1       1.386   8.520  20.788  0.00  0.00    +0.000 C 
ATOM      3  O   UNL     1       1.625   8.726  21.976  0.00  0.00    +0.000 OA
ATOM      4  H   UNL     1       0.497   9.106  19.026  0.00  0.00    +0.000 HD
ENDROOT
BRANCH   2   5
ATOM      5  C   UNL     1       1.896   7.276  20.141  0.00  0.00    +0.000 A 
ATOM      6  C   UNL     1       1.642   6.055  20.742  0.00  0.00    +0.000 A 
ATOM      7  C   UNL     1       2.111   4.910  20.115  0.00  0.00    +0.000 A 
ATOM      8  C   UNL     1       2.843   4.979  18.916  0.00  0.00    +0.000 A 
ATOM      9  C   UNL     1       3.048   6.273  18.405  0.00  0.00    +0.000 A 
ATOM     10  N   UNL     1       2.588   7.414  18.985  0.00  0.00    +0.000 NA
BRANCH   8  11
ATOM     11  C   UNL     1       3.302   3.686  18.273  0.00  0.00    +0.000 C 
ATOM     12  C   UNL     1       2.601   2.365  18.463  0.00  0.00    +0.000 C 
ATOM     13  C   UNL     1       2.422   3.104  17.174  0.00  0.00    +0.000 C 
ENDBRANCH   8  11
BRANCH   9  14
ATOM     14  O   UNL     1       3.735   6.400  17.206  0.00  0.00    +0.000 OA
BRANCH  14  15
ATOM     15  C   UNL     1       5.136   6.619  17.416  0.00  0.00    +0.000 C 
BRANCH  15  16
ATOM     16  C   UNL     1       5.915   6.081  16.250  0.00  0.00    +0.000 C 
ATOM     17  C   UNL     1       6.861   4.924  16.468  0.00  0.00    +0.000 C 
ATOM     18  C   UNL     1       5.608   4.728  15.662  0.00  0.00    +0.000 C 
ENDBRANCH  15  16
ENDBRANCH  14  15
ENDBRANCH   9  14
ENDBRANCH   2   5
BRANCH   1  20
ATOM     19  C   UNL     1      -0.662  10.436  21.797  0.00  0.00    +0.000 C 
ATOM     20  C   UNL     1       0.087  10.656  20.466  0.00  0.00    +0.000 C 
ATOM     21  C   UNL     1       1.203  11.705  20.647  0.00  0.00    +0.000 C 
BRANCH  20  22
ATOM     22  C   UNL     1      -0.912  11.147  19.428  0.00  0.00    +0.000 A 
ATOM     23  N   UNL     1      -2.043  11.790  19.772  0.00  0.00    +0.000 NA
ATOM     24  O   UNL     1      -2.684  11.981  18.551  0.00  0.00    +0.000 OA
ATOM     25  C   UNL     1      -1.880  11.434  17.596  0.00  0.00    +0.000 A 
ATOM     26  N   UNL     1      -2.315  11.465  16.333  0.00  0.00    +0.000 N 
ATOM     27  N   UNL     1      -0.781  10.910  18.074  0.00  0.00    +0.000 NA
ATOM     28  H   UNL     1      -3.313  11.576  16.195  0.00  0.00    +0.000 HD
ATOM     29  H   UNL     1      -1.881  10.807  15.698  0.00  0.00    +0.000 HD
ENDBRANCH  20  22
ENDBRANCH   1  20
TORSDOF 7
ENDMDL
MODEL 8
REMARK VINA RESULT:      -7.1      2.305      4.335
REMARK  Name = 
REMARK  9 active torsions:
REMARK  status: ('A' for Active; 'I' for Inactive)
REMARK    1  A    between atoms: C_1  and  C_2
REMARK    2  A    between atoms: C_2  and  C_3
REMARK    3  A    between atoms: C_2  and  N_4
REMARK    4  A    between atoms: C_2  and  C_21
REMARK    5  A    between atoms: C_5  and  C_7
REMARK    6  A    between atoms: C_10  and  C_11
REMARK    7  A    between atoms: C_14  and  O_15
REMARK    8  A    between atoms: O_15  and  C_16
REMARK    9  A    between atoms: C_16  and  C_17
REMARK                            x       y       z     vdW  Elec       q    Type
REMARK                         _______ _______ _______ _____ _____    ______ ____
ROOT
ATOM      1  N   UNL     1       1.530   9.249  18.986  0.00  0.00    +0.000 N 
ATOM      2  C   UNL     1       1.845   8.018  19.519  0.00  0.00    +0.000 C 
ATOM      3  O   UNL     1       1.485   7.643  20.633  0.00  0.00    +0.000 OA
ATOM      4  H   UNL     1       1.855   9.454  18.043  0.00  0.00    +0.000 HD
ENDROOT
BRANCH   2   5
ATOM      5  C   UNL     1       2.673   7.112  18.671  0.00  0.00    +0.000 A 
ATOM      6  C   UNL     1       3.482   7.663  17.692  0.00  0.00    +0.000 A 
ATOM      7  C   UNL     1       4.255   6.804  16.925  0.00  0.00    +0.000 A 
ATOM      8  C   UNL     1       4.209   5.412  17.114  0.00  0.00    +0.000 A 
ATOM      9  C   UNL     1       3.343   4.966  18.129  0.00  0.00    +0.000 A 
ATOM     10  N   UNL     1       2.585   5.782  18.910  0.00  0.00    +0.000 NA
BRANCH   8  11
ATOM     11  C   UNL     1       5.100   4.535  16.258  0.00  0.00    +0.000 C 
ATOM     12  C   UNL     1       6.163   5.074  15.334  0.00  0.00    +0.000 C 
ATOM     13  C   UNL     1       6.574   4.461  16.636  0.00  0.00    +0.000 C 
ENDBRANCH   8  11
BRANCH   9  14
ATOM     14  O   UNL     1       3.282   3.604  18.384  0.00  0.00    +0.000 OA
BRANCH  14  15
ATOM     15  C   UNL     1       3.577   3.305  19.754  0.00  0.00    +0.000 C 
BRANCH  15  16
ATOM     16  C   UNL     1       2.463   2.494  20.350  0.00  0.00    +0.000 C 
ATOM     17  C   UNL     1       1.815   2.963  21.631  0.00  0.00    +0.000 C 
ATOM     18  C   UNL     1       1.041   2.994  20.344  0.00  0.00    +0.000 C 
ENDBRANCH  15  16
ENDBRANCH  14  15
ENDBRANCH   9  14
ENDBRANCH   2   5
BRANCH   1  20
ATOM     19  C   UNL     1      -0.749  10.182  19.233  0.00  0.00    +0.000 C 
ATOM     20  C   UNL     1       0.724  10.270  19.686  0.00  0.00    +0.000 C 
ATOM     21  C   UNL     1       0.826  10.069  21.211  0.00  0.00    +0.000 C 
BRANCH  20  22
ATOM     22  C   UNL     1       1.260  11.644  19.313  0.00  0.00    +0.000 A 
ATOM     23  N   UNL     1       0.765  12.774  19.850  0.00  0.00    +0.000 NA
ATOM     24  O   UNL     1       1.469  13.776  19.187  0.00  0.00    +0.000 OA
ATOM     25  C   UNL     1       2.314  13.151  18.318  0.00  0.00    +0.000 A 
ATOM     26  N   UNL     1       3.073  13.924  17.536  0.00  0.00    +0.000 N 
ATOM     27  N   UNL     1       2.230  11.847  18.352  0.00  0.00    +0.000 NA
ATOM     28  H   UNL     1       2.758  14.876  17.387  0.00  0.00    +0.000 HD
ATOM     29  H   UNL     1       3.451  13.481  16.708  0.00  0.00    +0.000 HD
ENDBRANCH  20  22
ENDBRANCH   1  20
TORSDOF 7
ENDMDL
MODEL 9
REMARK VINA RESULT:      -7.1      2.612      8.133
REMARK  Name = 
REMARK  9 active torsions:
REMARK  status: ('A' for Active; 'I' for Inactive)
REMARK    1  A    between atoms: C_1  and  C_2
REMARK    2  A    between atoms: C_2  and  C_3
REMARK    3  A    between atoms: C_2  and  N_4
REMARK    4  A    between atoms: C_2  and  C_21
REMARK    5  A    between atoms: C_5  and  C_7
REMARK    6  A    between atoms: C_10  and  C_11
REMARK    7  A    between atoms: C_14  and  O_15
REMARK    8  A    between atoms: O_15  and  C_16
REMARK    9  A    between atoms: C_16  and  C_17
REMARK                            x       y       z     vdW  Elec       q    Type
REMARK                         _______ _______ _______ _____ _____    ______ ____
ROOT
ATOM      1  N   UNL     1       2.854   4.994  19.177  0.00  0.00    +0.000 N 
ATOM      2  C   UNL     1       2.796   6.244  18.601  0.00  0.00    +0.000 C 
ATOM      3  O   UNL     1       3.235   6.501  17.481  0.00  0.00    +0.000 OA
ATOM      4  H   UNL     1       2.437   4.878  20.099  0.00  0.00    +0.000 HD
ENDROOT
BRANCH   2   5
ATOM      5  C   UNL     1       2.161   7.327  19.407  0.00  0.00    +0.000 A 
ATOM      6  C   UNL     1       2.038   7.159  20.776  0.00  0.00    +0.000 A 
ATOM      7  C   UNL     1       1.458   8.184  21.509  0.00  0.00    +0.000 A 
ATOM      8  C   UNL     1       0.985   9.352  20.886  0.00  0.00    +0.000 A 
ATOM      9  C   UNL     1       1.153   9.406  19.491  0.00  0.00    +0.000 A 
ATOM     10  N   UNL     1       1.732   8.427  18.745  0.00  0.00    +0.000 NA
BRANCH   8  11
ATOM     11  C   UNL     1       0.387  10.442  21.752  0.00  0.00    +0.000 C 
ATOM     12  C   UNL     1      -1.092  10.718  21.844  0.00  0.00    +0.000 C 
ATOM     13  C   UNL     1      -0.413  10.004  22.971  0.00  0.00    +0.000 C 
ENDBRANCH   8  11
BRANCH   9  14
ATOM     14  O   UNL     1       0.736  10.551  18.826  0.00  0.00    +0.000 OA
BRANCH  14  15
ATOM     15  C   UNL     1      -0.216  10.251  17.797  0.00  0.00    +0.000 C 
BRANCH  15  16
ATOM     16  C   UNL     1      -1.609  10.334  18.353  0.00  0.00    +0.000 C 
ATOM     17  C   UNL     1      -2.597  11.287  17.722  0.00  0.00    +0.000 C 
ATOM     18  C   UNL     1      -2.791   9.804  17.584  0.00  0.00    +0.000 C 
ENDBRANCH  15  16
ENDBRANCH  14  15
ENDBRANCH   9  14
ENDBRANCH   2   5
BRANCH   1  20
ATOM     19  C   UNL     1       3.322   2.579  19.446  0.00  0.00    +0.000 C 
ATOM     20  C   UNL     1       3.449   3.810  18.524  0.00  0.00    +0.000 C 
ATOM     21  C   UNL     1       2.750   3.543  17.176  0.00  0.00    +0.000 C 
BRANCH  20  22
ATOM     22  C   UNL     1       4.928   4.084  18.289  0.00  0.00    +0.000 A 
ATOM     23  N   UNL     1       5.767   4.389  19.295  0.00  0.00    +0.000 NA
ATOM     24  O   UNL     1       6.971   4.634  18.641  0.00  0.00    +0.000 OA
ATOM     25  C   UNL     1       6.737   4.455  17.310  0.00  0.00    +0.000 A 
ATOM     26  N   UNL     1       7.755   4.676  16.472  0.00  0.00    +0.000 N 
ATOM     27  N   UNL     1       5.505   4.116  17.035  0.00  0.00    +0.000 NA
ATOM     28  H   UNL     1       8.508   5.264  16.810  0.00  0.00    +0.000 HD
ATOM     29  H   UNL     1       7.504   4.842  15.505  0.00  0.00    +0.000 HD
ENDBRANCH  20  22
ENDBRANCH   1  20
TORSDOF 7
ENDMDL
