MODEL 1
REMARK VINA RESULT:      -7.1      0.000      0.000
REMARK  Name = 
REMARK  6 active torsions:
REMARK  status: ('A' for Active; 'I' for Inactive)
REMARK    1  A    between atoms: C_1  and  O_2
REMARK    2  A    between atoms: O_2  and  C_3
REMARK    3  A    between atoms: C_5  and  O_6
REMARK    4  A    between atoms: C_13  and  O_14
REMARK    5  A    between atoms: C_15  and  O_16
REMARK    6  A    between atoms: C_22  and  C_23
REMARK                            x       y       z     vdW  Elec       q    Type
REMARK                         _______ _______ _______ _____ _____    ______ ____
ROOT
ATOM      1  C   UNL     1      -3.053  10.148  15.399  0.00  0.00    +0.000 A 
ATOM      2  C   UNL     1      -4.262  10.833  15.534  0.00  0.00    +0.000 A 
ATOM      3  C   UNL     1      -4.584  11.475  16.731  0.00  0.00    +0.000 A 
ATOM      4  C   UNL     1      -3.698  11.435  17.812  0.00  0.00    +0.000 A 
ATOM      5  C   UNL     1      -2.506  10.672  17.714  0.00  0.00    +0.000 A 
ATOM      6  C   UNL     1      -2.199  10.041  16.496  0.00  0.00    +0.000 A 
ATOM      7  C   UNL     1      -1.633  10.473  18.889  0.00  0.00    +0.000 C 
ATOM      8  C   UNL     1      -0.320  10.187  18.894  0.00  0.00    +0.000 C 
ATOM      9  C   UNL     1       0.508  10.114  20.152  0.00  0.00    +0.000 C 
ATOM     10  C   UNL     1       0.367  11.342  21.089  0.00  0.00    +0.000 C 
ATOM     11  C   UNL     1      -0.618  11.082  22.249  0.00  0.00    +0.000 C 
ATOM     12  C   UNL     1      -1.094  12.373  22.932  0.00  0.00    +0.000 C 
ATOM     13  O   UNL     1      -0.341  13.331  23.123  0.00  0.00    +0.000 OA
ATOM     14  C   UNL     1      -2.514  12.401  23.464  0.00  0.00    +0.000 C 
ATOM     15  C   UNL     1      -3.437  13.206  22.549  0.00  0.00    +0.000 C 
ATOM     16  C   UNL     1      -4.531  12.326  21.931  0.00  0.00    +0.000 C 
ATOM     17  C   UNL     1      -5.257  13.023  20.763  0.00  0.00    +0.000 C 
ATOM     18  C   UNL     1      -6.748  13.172  21.052  0.00  0.00    +0.000 C 
ATOM     19  O   UNL     1      -5.107  12.221  19.564  0.00  0.00    +0.000 OA
ATOM     20  C   UNL     1      -3.884  12.337  18.978  0.00  0.00    +0.000 C 
ATOM     21  O   UNL     1      -2.965  13.026  19.395  0.00  0.00    +0.000 OA
ENDROOT
BRANCH   1  23
ATOM     22  C   UNL     1      -3.789   9.896  13.150  0.00  0.00    +0.000 C 
ATOM     23  O   UNL     1      -2.814   9.632  14.154  0.00  0.00    +0.000 OA
ENDBRANCH   1  23
BRANCH   3  24
ATOM     24  O   UNL     1      -5.756  12.175  16.821  0.00  0.00    +0.000 OA
ATOM     25  H   UNL     1      -6.366  11.871  16.127  0.00  0.00    +0.000 HD
ENDBRANCH   3  24
BRANCH  10  26
ATOM     26  O   UNL     1       1.672  11.645  21.611  0.00  0.00    +0.000 OA
ATOM     27  H   UNL     1       2.167  12.105  20.906  0.00  0.00    +0.000 HD
ENDBRANCH  10  26
BRANCH  11  28
ATOM     28  O   UNL     1       0.005  10.253  23.237  0.00  0.00    +0.000 OA
ATOM     29  H   UNL     1       0.947  10.223  22.977  0.00  0.00    +0.000 HD
ENDBRANCH  11  28
TORSDOF 4
ENDMDL
MODEL 2
REMARK VINA RESULT:      -6.6      2.435      4.732
REMARK  Name = 
REMARK  6 active torsions:
REMARK  status: ('A' for Active; 'I' for Inactive)
REMARK    1  A    between atoms: C_1  and  O_2
REMARK    2  A    between atoms: O_2  and  C_3
REMARK    3  A    between atoms: C_5  and  O_6
REMARK    4  A    between atoms: C_13  and  O_14
REMARK    5  A    between atoms: C_15  and  O_16
REMARK    6  A    between atoms: C_22  and  C_23
REMARK                            x       y       z     vdW  Elec       q    Type
REMARK                         _______ _______ _______ _____ _____    ______ ____
ROOT
ATOM      1  C   UNL     1      -3.617  11.186  16.855  0.00  0.00    +0.000 A 
ATOM      2  C   UNL     1      -2.226  11.314  16.865  0.00  0.00    +0.000 A 
ATOM      3  C   UNL     1      -1.566  11.794  17.998  0.00  0.00    +0.000 A 
ATOM      4  C   UNL     1      -2.294  12.155  19.137  0.00  0.00    +0.000 A 
ATOM      5  C   UNL     1      -3.711  12.107  19.107  0.00  0.00    +0.000 A 
ATOM      6  C   UNL     1      -4.353  11.613  17.959  0.00  0.00    +0.000 A 
ATOM      7  C   UNL     1      -4.511  12.637  20.230  0.00  0.00    +0.000 C 
ATOM      8  C   UNL     1      -5.764  12.296  20.575  0.00  0.00    +0.000 C 
ATOM      9  C   UNL     1      -6.456  12.815  21.810  0.00  0.00    +0.000 C 
ATOM     10  C   UNL     1      -5.633  12.673  23.118  0.00  0.00    +0.000 C 
ATOM     11  C   UNL     1      -4.915  13.984  23.503  0.00  0.00    +0.000 C 
ATOM     12  C   UNL     1      -3.787  13.773  24.523  0.00  0.00    +0.000 C 
ATOM     13  O   UNL     1      -3.883  12.966  25.451  0.00  0.00    +0.000 OA
ATOM     14  C   UNL     1      -2.569  14.670  24.416  0.00  0.00    +0.000 C 
ATOM     15  C   UNL     1      -1.385  13.931  23.790  0.00  0.00    +0.000 C 
ATOM     16  C   UNL     1      -0.976  14.552  22.449  0.00  0.00    +0.000 C 
ATOM     17  C   UNL     1      -0.024  13.642  21.646  0.00  0.00    +0.000 C 
ATOM     18  C   UNL     1       1.312  14.333  21.389  0.00  0.00    +0.000 C 
ATOM     19  O   UNL     1      -0.629  13.336  20.364  0.00  0.00    +0.000 OA
ATOM     20  C   UNL     1      -1.604  12.389  20.432  0.00  0.00    +0.000 C 
ATOM     21  O   UNL     1      -1.980  11.836  21.454  0.00  0.00    +0.000 OA
ENDROOT
BRANCH   1  23
ATOM     22  C   UNL     1      -3.215  10.243  14.707  0.00  0.00    +0.000 C 
ATOM     23  O   UNL     1      -4.140  10.627  15.721  0.00  0.00    +0.000 OA
ENDBRANCH   1  23
BRANCH   3  24
ATOM     24  O   UNL     1      -0.201  11.869  17.994  0.00  0.00    +0.000 OA
ATOM     25  H   UNL     1       0.164  11.125  18.504  0.00  0.00    +0.000 HD
ENDBRANCH   3  24
BRANCH  10  26
ATOM     26  O   UNL     1      -6.539  12.282  24.163  0.00  0.00    +0.000 OA
ATOM     27  H   UNL     1      -6.786  13.091  24.651  0.00  0.00    +0.000 HD
ENDBRANCH  10  26
BRANCH  11  28
ATOM     28  O   UNL     1      -5.859  14.907  24.061  0.00  0.00    +0.000 OA
ATOM     29  H   UNL     1      -6.336  15.271  23.288  0.00  0.00    +0.000 HD
ENDBRANCH  11  28
TORSDOF 4
ENDMDL
MODEL 3
REMARK VINA RESULT:      -6.5      2.143      3.698
REMARK  Name = 
REMARK  6 active torsions:
REMARK  status: ('A' for Active; 'I' for Inactive)
REMARK    1  A    between atoms: C_1  and  O_2
REMARK    2  A    between atoms: O_2  and  C_3
REMARK    3  A    between atoms: C_5  and  O_6
REMARK    4  A    between atoms: C_13  and  O_14
REMARK    5  A    between atoms: C_15  and  O_16
REMARK    6  A    between atoms: C_22  and  C_23
REMARK                            x       y       z     vdW  Elec       q    Type
REMARK                         _______ _______ _______ _____ _____    ______ ____
ROOT
ATOM      1  C   UNL     1      -6.666  12.978  17.712  0.00  0.00    +0.000 A 
ATOM      2  C   UNL     1      -7.124  13.466  18.937  0.00  0.00    +0.000 A 
ATOM      3  C   UNL     1      -6.320  13.392  20.077  0.00  0.00    +0.000 A 
ATOM      4  C   UNL     1      -5.044  12.822  20.001  0.00  0.00    +0.000 A 
ATOM      5  C   UNL     1      -4.604  12.248  18.782  0.00  0.00    +0.000 A 
ATOM      6  C   UNL     1      -5.427  12.342  17.647  0.00  0.00    +0.000 A 
ATOM      7  C   UNL     1      -3.335  11.494  18.713  0.00  0.00    +0.000 C 
ATOM      8  C   UNL     1      -2.569  11.278  17.631  0.00  0.00    +0.000 C 
ATOM      9  C   UNL     1      -1.230  10.587  17.686  0.00  0.00    +0.000 C 
ATOM     10  C   UNL     1      -0.256  11.153  18.753  0.00  0.00    +0.000 C 
ATOM     11  C   UNL     1      -0.251  10.310  20.046  0.00  0.00    +0.000 C 
ATOM     12  C   UNL     1       0.358  11.052  21.244  0.00  0.00    +0.000 C 
ATOM     13  O   UNL     1       1.338  11.793  21.129  0.00  0.00    +0.000 OA
ATOM     14  C   UNL     1      -0.225  10.767  22.615  0.00  0.00    +0.000 C 
ATOM     15  C   UNL     1      -1.132  11.907  23.082  0.00  0.00    +0.000 C 
ATOM     16  C   UNL     1      -2.585  11.444  23.243  0.00  0.00    +0.000 C 
ATOM     17  C   UNL     1      -3.567  12.625  23.383  0.00  0.00    +0.000 C 
ATOM     18  C   UNL     1      -4.310  12.568  24.714  0.00  0.00    +0.000 C 
ATOM     19  O   UNL     1      -4.545  12.559  22.315  0.00  0.00    +0.000 OA
ATOM     20  C   UNL     1      -4.074  12.990  21.114  0.00  0.00    +0.000 C 
ATOM     21  O   UNL     1      -2.938  13.388  20.904  0.00  0.00    +0.000 OA
ENDROOT
BRANCH   1  23
ATOM     22  C   UNL     1      -7.619  14.517  16.167  0.00  0.00    +0.000 C 
ATOM     23  O   UNL     1      -7.509  13.182  16.654  0.00  0.00    +0.000 OA
ENDBRANCH   1  23
BRANCH   3  24
ATOM     24  O   UNL     1      -6.777  13.916  21.253  0.00  0.00    +0.000 OA
ATOM     25  H   UNL     1      -7.618  14.377  21.095  0.00  0.00    +0.000 HD
ENDBRANCH   3  24
BRANCH  10  26
ATOM     26  O   UNL     1       1.060  11.176  18.175  0.00  0.00    +0.000 OA
ATOM     27  H   UNL     1       1.700  11.086  18.907  0.00  0.00    +0.000 HD
ENDBRANCH  10  26
BRANCH  11  28
ATOM     28  O   UNL     1       0.496   9.106  19.836  0.00  0.00    +0.000 OA
ATOM     29  H   UNL     1       0.833   9.180  18.920  0.00  0.00    +0.000 HD
ENDBRANCH  11  28
TORSDOF 4
ENDMDL
MODEL 4
REMARK VINA RESULT:      -6.4      2.521      6.712
REMARK  Name = 
REMARK  6 active torsions:
REMARK  status: ('A' for Active; 'I' for Inactive)
REMARK    1  A    between atoms: C_1  and  O_2
REMARK    2  A    between atoms: O_2  and  C_3
REMARK    3  A    between atoms: C_5  and  O_6
REMARK    4  A    between atoms: C_13  and  O_14
REMARK    5  A    between atoms: C_15  and  O_16
REMARK    6  A    between atoms: C_22  and  C_23
REMARK                            x       y       z     vdW  Elec       q    Type
REMARK                         _______ _______ _______ _____ _____    ______ ____
ROOT
ATOM      1  C   UNL     1      -1.542  14.908  24.598  0.00  0.00    +0.000 A 
ATOM      2  C   UNL     1      -2.892  15.110  24.888  0.00  0.00    +0.000 A 
ATOM      3  C   UNL     1      -3.881  14.662  24.010  0.00  0.00    +0.000 A 
ATOM      4  C   UNL     1      -3.526  14.008  22.825  0.00  0.00    +0.000 A 
ATOM      5  C   UNL     1      -2.157  13.873  22.482  0.00  0.00    +0.000 A 
ATOM      6  C   UNL     1      -1.180  14.324  23.385  0.00  0.00    +0.000 A 
ATOM      7  C   UNL     1      -1.755  13.338  21.165  0.00  0.00    +0.000 C 
ATOM      8  C   UNL     1      -0.593  12.745  20.843  0.00  0.00    +0.000 C 
ATOM      9  C   UNL     1      -0.320  12.130  19.493  0.00  0.00    +0.000 C 
ATOM     10  C   UNL     1      -1.415  11.149  19.000  0.00  0.00    +0.000 C 
ATOM     11  C   UNL     1      -2.395  11.815  18.009  0.00  0.00    +0.000 C 
ATOM     12  C   UNL     1      -3.699  11.025  17.832  0.00  0.00    +0.000 C 
ATOM     13  O   UNL     1      -3.721   9.792  17.801  0.00  0.00    +0.000 OA
ATOM     14  C   UNL     1      -4.970  11.816  17.592  0.00  0.00    +0.000 C 
ATOM     15  C   UNL     1      -5.834  11.879  18.853  0.00  0.00    +0.000 C 
ATOM     16  C   UNL     1      -5.980  13.317  19.368  0.00  0.00    +0.000 C 
ATOM     17  C   UNL     1      -6.551  13.374  20.799  0.00  0.00    +0.000 C 
ATOM     18  C   UNL     1      -7.867  14.146  20.836  0.00  0.00    +0.000 C 
ATOM     19  O   UNL     1      -5.604  14.053  21.661  0.00  0.00    +0.000 OA
ATOM     20  C   UNL     1      -4.547  13.278  22.030  0.00  0.00    +0.000 C 
ATOM     21  O   UNL     1      -4.363  12.123  21.678  0.00  0.00    +0.000 OA
ENDROOT
BRANCH   1  23
ATOM     22  C   UNL     1      -0.297  16.691  25.568  0.00  0.00    +0.000 C 
ATOM     23  O   UNL     1      -0.671  15.316  25.573  0.00  0.00    +0.000 OA
ENDBRANCH   1  23
BRANCH   3  24
ATOM     24  O   UNL     1      -5.197  14.835  24.339  0.00  0.00    +0.000 OA
ATOM     25  H   UNL     1      -5.339  15.754  24.625  0.00  0.00    +0.000 HD
ENDBRANCH   3  24
BRANCH  10  26
ATOM     26  O   UNL     1      -0.755  10.040  18.367  0.00  0.00    +0.000 OA
ATOM     27  H   UNL     1      -0.675   9.330  19.034  0.00  0.00    +0.000 HD
ENDBRANCH  10  26
BRANCH  11  28
ATOM     28  O   UNL     1      -1.771  11.947  16.726  0.00  0.00    +0.000 OA
ATOM     29  H   UNL     1      -2.342  11.434  16.119  0.00  0.00    +0.000 HD
ENDBRANCH  11  28
TORSDOF 4
ENDMDL
MODEL 5
REMARK VINA RESULT:      -6.2      2.269      4.745
REMARK  Name = 
REMARK  6 active torsions:
REMARK  status: ('A' for Active; 'I' for Inactive)
REMARK    1  A    between atoms: C_1  and  O_2
REMARK    2  A    between atoms: O_2  and  C_3
REMARK    3  A    between atoms: C_5  and  O_6
REMARK    4  A    between atoms: C_13  and  O_14
REMARK    5  A    between atoms: C_15  and  O_16
REMARK    6  A    between atoms: C_22  and  C_23
REMARK                            x       y       z     vdW  Elec       q    Type
REMARK                         _______ _______ _______ _____ _____    ______ ____
ROOT
ATOM      1  C   UNL     1      -3.796  10.808  16.106  0.00  0.00    +0.000 A 
ATOM      2  C   UNL     1      -2.456  11.151  16.298  0.00  0.00    +0.000 A 
ATOM      3  C   UNL     1      -2.035  11.715  17.504  0.00  0.00    +0.000 A 
ATOM      4  C   UNL     1      -2.954  11.947  18.532  0.00  0.00    +0.000 A 
ATOM      5  C   UNL     1      -4.330  11.681  18.315  0.00  0.00    +0.000 A 
ATOM      6  C   UNL     1      -4.730  11.106  17.098  0.00  0.00    +0.000 A 
ATOM      7  C   UNL     1      -5.345  12.069  19.317  0.00  0.00    +0.000 C 
ATOM      8  C   UNL     1      -6.565  11.535  19.496  0.00  0.00    +0.000 C 
ATOM      9  C   UNL     1      -7.486  11.928  20.622  0.00  0.00    +0.000 C 
ATOM     10  C   UNL     1      -6.832  11.901  22.029  0.00  0.00    +0.000 C 
ATOM     11  C   UNL     1      -6.384  13.304  22.492  0.00  0.00    +0.000 C 
ATOM     12  C   UNL     1      -5.383  13.260  23.656  0.00  0.00    +0.000 C 
ATOM     13  O   UNL     1      -5.475  12.438  24.571  0.00  0.00    +0.000 OA
ATOM     14  C   UNL     1      -4.315  14.336  23.701  0.00  0.00    +0.000 C 
ATOM     15  C   UNL     1      -2.959  13.795  23.246  0.00  0.00    +0.000 C 
ATOM     16  C   UNL     1      -2.475  14.485  21.965  0.00  0.00    +0.000 C 
ATOM     17  C   UNL     1      -1.296  13.742  21.305  0.00  0.00    +0.000 C 
ATOM     18  C   UNL     1      -0.061  14.634  21.220  0.00  0.00    +0.000 C 
ATOM     19  O   UNL     1      -1.671  13.359  19.958  0.00  0.00    +0.000 OA
ATOM     20  C   UNL     1      -2.488  12.272  19.905  0.00  0.00    +0.000 C 
ATOM     21  O   UNL     1      -2.906  11.657  20.874  0.00  0.00    +0.000 OA
ENDROOT
BRANCH   1  23
ATOM     22  C   UNL     1      -2.984  10.018  14.013  0.00  0.00    +0.000 C 
ATOM     23  O   UNL     1      -4.072  10.187  14.917  0.00  0.00    +0.000 OA
ENDBRANCH   1  23
BRANCH   3  24
ATOM     24  O   UNL     1      -0.709  12.001  17.681  0.00  0.00    +0.000 OA
ATOM     25  H   UNL     1      -0.607  12.949  17.872  0.00  0.00    +0.000 HD
ENDBRANCH   3  24
BRANCH  10  26
ATOM     26  O   UNL     1      -7.798  11.364  22.948  0.00  0.00    +0.000 OA
ATOM     27  H   UNL     1      -7.362  11.294  23.820  0.00  0.00    +0.000 HD
ENDBRANCH  10  26
BRANCH  11  28
ATOM     28  O   UNL     1      -7.525  14.063  22.910  0.00  0.00    +0.000 OA
ATOM     29  H   UNL     1      -8.223  13.396  23.067  0.00  0.00    +0.000 HD
ENDBRANCH  11  28
TORSDOF 4
ENDMDL
MODEL 6
REMARK VINA RESULT:      -6.2      2.657      4.676
REMARK  Name = 
REMARK  6 active torsions:
REMARK  status: ('A' for Active; 'I' for Inactive)
REMARK    1  A    between atoms: C_1  and  O_2
REMARK    2  A    between atoms: O_2  and  C_3
REMARK    3  A    between atoms: C_5  and  O_6
REMARK    4  A    between atoms: C_13  and  O_14
REMARK    5  A    between atoms: C_15  and  O_16
REMARK    6  A    between atoms: C_22  and  C_23
REMARK                            x       y       z     vdW  Elec       q    Type
REMARK                         _______ _______ _______ _____ _____    ______ ____
ROOT
ATOM      1  C   UNL     1       0.317  12.004  19.043  0.00  0.00    +0.000 A 
ATOM      2  C   UNL     1      -0.541  11.836  17.954  0.00  0.00    +0.000 A 
ATOM      3  C   UNL     1      -1.924  11.930  18.121  0.00  0.00    +0.000 A 
ATOM      4  C   UNL     1      -2.465  12.190  19.384  0.00  0.00    +0.000 A 
ATOM      5  C   UNL     1      -1.607  12.279  20.510  0.00  0.00    +0.000 A 
ATOM      6  C   UNL     1      -0.218  12.189  20.316  0.00  0.00    +0.000 A 
ATOM      7  C   UNL     1      -2.157  12.386  21.876  0.00  0.00    +0.000 C 
ATOM      8  C   UNL     1      -1.558  12.905  22.962  0.00  0.00    +0.000 C 
ATOM      9  C   UNL     1      -2.248  13.071  24.292  0.00  0.00    +0.000 C 
ATOM     10  C   UNL     1      -3.622  13.787  24.219  0.00  0.00    +0.000 C 
ATOM     11  C   UNL     1      -4.802  12.791  24.228  0.00  0.00    +0.000 C 
ATOM     12  C   UNL     1      -6.118  13.416  23.745  0.00  0.00    +0.000 C 
ATOM     13  O   UNL     1      -6.440  14.572  24.031  0.00  0.00    +0.000 OA
ATOM     14  C   UNL     1      -7.076  12.526  22.977  0.00  0.00    +0.000 C 
ATOM     15  C   UNL     1      -7.032  12.823  21.477  0.00  0.00    +0.000 C 
ATOM     16  C   UNL     1      -6.522  11.619  20.676  0.00  0.00    +0.000 C 
ATOM     17  C   UNL     1      -6.152  11.991  19.226  0.00  0.00    +0.000 C 
ATOM     18  C   UNL     1      -6.993  11.205  18.224  0.00  0.00    +0.000 C 
ATOM     19  O   UNL     1      -4.757  11.672  18.995  0.00  0.00    +0.000 OA
ATOM     20  C   UNL     1      -3.893  12.576  19.531  0.00  0.00    +0.000 C 
ATOM     21  O   UNL     1      -4.215  13.567  20.168  0.00  0.00    +0.000 OA
ENDROOT
BRANCH   1  23
ATOM     22  C   UNL     1       2.241  13.193  18.302  0.00  0.00    +0.000 C 
ATOM     23  O   UNL     1       1.652  11.972  18.740  0.00  0.00    +0.000 OA
ENDBRANCH   1  23
BRANCH   3  24
ATOM     24  O   UNL     1      -2.739  11.804  17.030  0.00  0.00    +0.000 OA
ATOM     25  H   UNL     1      -2.412  12.379  16.316  0.00  0.00    +0.000 HD
ENDBRANCH   3  24
BRANCH  10  26
ATOM     26  O   UNL     1      -3.714  14.669  25.350  0.00  0.00    +0.000 OA
ATOM     27  H   UNL     1      -3.759  14.112  26.151  0.00  0.00    +0.000 HD
ENDBRANCH  10  26
BRANCH  11  28
ATOM     28  O   UNL     1      -5.002  12.290  25.556  0.00  0.00    +0.000 OA
ATOM     29  H   UNL     1      -4.101  12.202  25.926  0.00  0.00    +0.000 HD
ENDBRANCH  11  28
TORSDOF 4
ENDMDL
MODEL 7
REMARK VINA RESULT:      -6.2      1.968      7.648
REMARK  Name = 
REMARK  6 active torsions:
REMARK  status: ('A' for Active; 'I' for Inactive)
REMARK    1  A    between atoms: C_1  and  O_2
REMARK    2  A    between atoms: O_2  and  C_3
REMARK    3  A    between atoms: C_5  and  O_6
REMARK    4  A    between atoms: C_13  and  O_14
REMARK    5  A    between atoms: C_15  and  O_16
REMARK    6  A    between atoms: C_22  and  C_23
REMARK                            x       y       z     vdW  Elec       q    Type
REMARK                         _______ _______ _______ _____ _____    ______ ____
ROOT
ATOM      1  C   UNL     1      -2.599  14.688  24.410  0.00  0.00    +0.000 A 
ATOM      2  C   UNL     1      -1.258  14.501  24.069  0.00  0.00    +0.000 A 
ATOM      3  C   UNL     1      -0.913  13.835  22.891  0.00  0.00    +0.000 A 
ATOM      4  C   UNL     1      -1.910  13.344  22.041  0.00  0.00    +0.000 A 
ATOM      5  C   UNL     1      -3.271  13.455  22.421  0.00  0.00    +0.000 A 
ATOM      6  C   UNL     1      -3.595  14.136  23.606  0.00  0.00    +0.000 A 
ATOM      7  C   UNL     1      -4.335  12.802  21.630  0.00  0.00    +0.000 C 
ATOM      8  C   UNL     1      -5.633  13.142  21.566  0.00  0.00    +0.000 C 
ATOM      9  C   UNL     1      -6.621  12.479  20.640  0.00  0.00    +0.000 C 
ATOM     10  C   UNL     1      -6.161  12.396  19.161  0.00  0.00    +0.000 C 
ATOM     11  C   UNL     1      -5.570  11.013  18.808  0.00  0.00    +0.000 C 
ATOM     12  C   UNL     1      -4.741  11.026  17.516  0.00  0.00    +0.000 C 
ATOM     13  O   UNL     1      -5.069  11.694  16.532  0.00  0.00    +0.000 OA
ATOM     14  C   UNL     1      -3.540  10.104  17.446  0.00  0.00    +0.000 C 
ATOM     15  C   UNL     1      -2.232  10.875  17.632  0.00  0.00    +0.000 C 
ATOM     16  C   UNL     1      -1.494  10.439  18.904  0.00  0.00    +0.000 C 
ATOM     17  C   UNL     1      -0.365  11.415  19.293  0.00  0.00    +0.000 C 
ATOM     18  C   UNL     1       0.989  10.713  19.305  0.00  0.00    +0.000 C 
ATOM     19  O   UNL     1      -0.620  11.929  20.625  0.00  0.00    +0.000 OA
ATOM     20  C   UNL     1      -1.576  12.896  20.664  0.00  0.00    +0.000 C 
ATOM     21  O   UNL     1      -2.200  13.310  19.699  0.00  0.00    +0.000 OA
ENDROOT
BRANCH   1  23
ATOM     22  C   UNL     1      -1.955  16.545  25.752  0.00  0.00    +0.000 C 
ATOM     23  O   UNL     1      -2.812  15.427  25.543  0.00  0.00    +0.000 OA
ENDBRANCH   1  23
BRANCH   3  24
ATOM     24  O   UNL     1       0.408  13.704  22.560  0.00  0.00    +0.000 OA
ATOM     25  H   UNL     1       0.633  12.759  22.506  0.00  0.00    +0.000 HD
ENDBRANCH   3  24
BRANCH  10  26
ATOM     26  O   UNL     1      -7.303  12.669  18.332  0.00  0.00    +0.000 OA
ATOM     27  H   UNL     1      -7.537  13.608  18.460  0.00  0.00    +0.000 HD
ENDBRANCH  10  26
BRANCH  11  28
ATOM     28  O   UNL     1      -6.629  10.060  18.653  0.00  0.00    +0.000 OA
ATOM     29  H   UNL     1      -6.727   9.653  19.538  0.00  0.00    +0.000 HD
ENDBRANCH  11  28
TORSDOF 4
ENDMDL
MODEL 8
REMARK VINA RESULT:      -6.1      2.116      2.662
REMARK  Name = 
REMARK  6 active torsions:
REMARK  status: ('A' for Active; 'I' for Inactive)
REMARK    1  A    between atoms: C_1  and  O_2
REMARK    2  A    between atoms: O_2  and  C_3
REMARK    3  A    between atoms: C_5  and  O_6
REMARK    4  A    between atoms: C_13  and  O_14
REMARK    5  A    between atoms: C_15  and  O_16
REMARK    6  A    between atoms: C_22  and  C_23
REMARK                            x       y       z     vdW  Elec       q    Type
REMARK                         _______ _______ _______ _____ _____    ______ ____
ROOT
ATOM      1  C   UNL     1      -2.978  10.938  16.729  0.00  0.00    +0.000 A 
ATOM      2  C   UNL     1      -4.353  10.752  16.884  0.00  0.00    +0.000 A 
ATOM      3  C   UNL     1      -5.017  11.261  18.002  0.00  0.00    +0.000 A 
ATOM      4  C   UNL     1      -4.307  11.962  18.983  0.00  0.00    +0.000 A 
ATOM      5  C   UNL     1      -2.898  12.083  18.877  0.00  0.00    +0.000 A 
ATOM      6  C   UNL     1      -2.254  11.570  17.739  0.00  0.00    +0.000 A 
ATOM      7  C   UNL     1      -2.103  12.670  19.975  0.00  0.00    +0.000 C 
ATOM      8  C   UNL     1      -0.895  13.252  19.890  0.00  0.00    +0.000 C 
ATOM      9  C   UNL     1      -0.212  13.922  21.056  0.00  0.00    +0.000 C 
ATOM     10  C   UNL     1      -1.094  14.949  21.814  0.00  0.00    +0.000 C 
ATOM     11  C   UNL     1      -1.720  14.350  23.092  0.00  0.00    +0.000 C 
ATOM     12  C   UNL     1      -2.900  15.176  23.626  0.00  0.00    +0.000 C 
ATOM     13  O   UNL     1      -2.903  16.409  23.599  0.00  0.00    +0.000 OA
ATOM     14  C   UNL     1      -4.038  14.424  24.288  0.00  0.00    +0.000 C 
ATOM     15  C   UNL     1      -5.251  14.321  23.363  0.00  0.00    +0.000 C 
ATOM     16  C   UNL     1      -5.559  12.865  22.992  0.00  0.00    +0.000 C 
ATOM     17  C   UNL     1      -6.547  12.754  21.813  0.00  0.00    +0.000 C 
ATOM     18  C   UNL     1      -7.814  12.009  22.226  0.00  0.00    +0.000 C 
ATOM     19  O   UNL     1      -5.920  12.016  20.735  0.00  0.00    +0.000 OA
ATOM     20  C   UNL     1      -5.026  12.749  20.018  0.00  0.00    +0.000 C 
ATOM     21  O   UNL     1      -4.734  13.915  20.237  0.00  0.00    +0.000 OA
ENDROOT
BRANCH   1  23
ATOM     22  C   UNL     1      -3.382  10.178  14.510  0.00  0.00    +0.000 C 
ATOM     23  O   UNL     1      -2.457  10.467  15.555  0.00  0.00    +0.000 OA
ENDBRANCH   1  23
BRANCH   3  24
ATOM     24  O   UNL     1      -6.371  11.101  18.106  0.00  0.00    +0.000 OA
ATOM     25  H   UNL     1      -6.763  11.096  17.216  0.00  0.00    +0.000 HD
ENDBRANCH   3  24
BRANCH  10  26
ATOM     26  O   UNL     1      -0.262  16.071  22.153  0.00  0.00    +0.000 OA
ATOM     27  H   UNL     1      -0.800  16.878  22.035  0.00  0.00    +0.000 HD
ENDBRANCH  10  26
BRANCH  11  28
ATOM     28  O   UNL     1      -0.729  14.265  24.123  0.00  0.00    +0.000 OA
ATOM     29  H   UNL     1      -1.142  13.715  24.819  0.00  0.00    +0.000 HD
ENDBRANCH  11  28
TORSDOF 4
ENDMDL
MODEL 9
REMARK VINA RESULT:      -6.1      1.657      5.225
REMARK  Name = 
REMARK  6 active torsions:
REMARK  status: ('A' for Active; 'I' for Inactive)
REMARK    1  A    between atoms: C_1  and  O_2
REMARK    2  A    between atoms: O_2  and  C_3
REMARK    3  A    between atoms: C_5  and  O_6
REMARK    4  A    between atoms: C_13  and  O_14
REMARK    5  A    between atoms: C_15  and  O_16
REMARK    6  A    between atoms: C_22  and  C_23
REMARK                            x       y       z     vdW  Elec       q    Type
REMARK                         _______ _______ _______ _____ _____    ______ ____
ROOT
ATOM      1  C   UNL     1      -6.925  14.260  20.127  0.00  0.00    +0.000 A 
ATOM      2  C   UNL     1      -7.243  13.707  18.885  0.00  0.00    +0.000 A 
ATOM      3  C   UNL     1      -6.347  12.854  18.238  0.00  0.00    +0.000 A 
ATOM      4  C   UNL     1      -5.116  12.547  18.828  0.00  0.00    +0.000 A 
ATOM      5  C   UNL     1      -4.750  13.169  20.049  0.00  0.00    +0.000 A 
ATOM      6  C   UNL     1      -5.672  14.017  20.686  0.00  0.00    +0.000 A 
ATOM      7  C   UNL     1      -3.395  12.995  20.612  0.00  0.00    +0.000 C 
ATOM      8  C   UNL     1      -3.020  13.118  21.897  0.00  0.00    +0.000 C 
ATOM      9  C   UNL     1      -1.629  12.811  22.389  0.00  0.00    +0.000 C 
ATOM     10  C   UNL     1      -1.081  11.428  21.948  0.00  0.00    +0.000 C 
ATOM     11  C   UNL     1      -0.149  11.532  20.721  0.00  0.00    +0.000 C 
ATOM     12  C   UNL     1       0.068  10.186  20.016  0.00  0.00    +0.000 C 
ATOM     13  O   UNL     1       0.183   9.128  20.641  0.00  0.00    +0.000 OA
ATOM     14  C   UNL     1       0.239  10.204  18.509  0.00  0.00    +0.000 C 
ATOM     15  C   UNL     1      -1.032   9.737  17.798  0.00  0.00    +0.000 C 
ATOM     16  C   UNL     1      -1.646  10.855  16.946  0.00  0.00    +0.000 C 
ATOM     17  C   UNL     1      -3.084  10.528  16.494  0.00  0.00    +0.000 C 
ATOM     18  C   UNL     1      -3.188  10.492  14.972  0.00  0.00    +0.000 C 
ATOM     19  O   UNL     1      -3.981  11.556  16.984  0.00  0.00    +0.000 OA
ATOM     20  C   UNL     1      -4.284  11.433  18.305  0.00  0.00    +0.000 C 
ATOM     21  O   UNL     1      -3.851  10.567  19.050  0.00  0.00    +0.000 OA
ENDROOT
BRANCH   1  23
ATOM     22  C   UNL     1      -7.702  15.449  22.038  0.00  0.00    +0.000 C 
ATOM     23  O   UNL     1      -7.917  15.012  20.699  0.00  0.00    +0.000 OA
ENDBRANCH   1  23
BRANCH   3  24
ATOM     24  O   UNL     1      -6.702  12.293  17.042  0.00  0.00    +0.000 OA
ATOM     25  H   UNL     1      -6.859  11.342  17.168  0.00  0.00    +0.000 HD
ENDBRANCH   3  24
BRANCH  10  26
ATOM     26  O   UNL     1      -0.367  10.866  23.062  0.00  0.00    +0.000 OA
ATOM     27  H   UNL     1       0.215  11.565  23.416  0.00  0.00    +0.000 HD
ENDBRANCH  10  26
BRANCH  11  28
ATOM     28  O   UNL     1       1.128  12.039  21.126  0.00  0.00    +0.000 OA
ATOM     29  H   UNL     1       1.645  12.099  20.297  0.00  0.00    +0.000 HD
ENDBRANCH  11  28
TORSDOF 4
ENDMDL
