MODEL 1
REMARK VINA RESULT:      -9.3      0.000      0.000
REMARK  Name = 
REMARK  7 active torsions:
REMARK  status: ('A' for Active; 'I' for Inactive)
REMARK    1  A    between atoms: C_1  and  C_2
REMARK    2  A    between atoms: C_2  and  C_3
REMARK    3  A    between atoms: C_3  and  N_4
REMARK    4  A    between atoms: C_6  and  C_7
REMARK    5  A    between atoms: C_8  and  C_9
REMARK    6  A    between atoms: N_15  and  C_16
REMARK    7  A    between atoms: C_20  and  C_21
REMARK                            x       y       z     vdW  Elec       q    Type
REMARK                         _______ _______ _______ _____ _____    ______ ____
ROOT
ATOM      1  C   UNL     1       0.823   9.026  20.978  0.00  0.00    +0.000 A 
ATOM      2  C   UNL     1       0.785   8.767  22.353  0.00  0.00    +0.000 A 
ATOM      3  C   UNL     1       0.002   9.551  23.194  0.00  0.00    +0.000 A 
ATOM      4  C   UNL     1      -0.738  10.613  22.671  0.00  0.00    +0.000 A 
ATOM      5  C   UNL     1      -0.722  10.913  21.289  0.00  0.00    +0.000 A 
ATOM      6  C   UNL     1      -1.492  11.955  20.704  0.00  0.00    +0.000 A 
ATOM      7  N   UNL     1      -2.226  12.854  21.524  0.00  0.00    +0.000 N 
ATOM      8  N   UNL     1      -1.520  12.178  19.372  0.00  0.00    +0.000 NA
ATOM      9  C   UNL     1      -0.775  11.391  18.581  0.00  0.00    +0.000 A 
ATOM     10  C   UNL     1       0.035  10.377  19.054  0.00  0.00    +0.000 A 
ATOM     11  C   UNL     1       0.064  10.098  20.429  0.00  0.00    +0.000 A 
ATOM     12  H   UNL     1      -1.564  13.499  21.944  0.00  0.00    +0.000 HD
ENDROOT
BRANCH   7  13
ATOM     13  C   UNL     1      -3.427  13.499  21.133  0.00  0.00    +0.000 A 
ATOM     14  C   UNL     1      -3.487  14.894  21.021  0.00  0.00    +0.000 A 
ATOM     15  C   UNL     1      -4.698  15.537  20.742  0.00  0.00    +0.000 A 
ATOM     16  C   UNL     1      -5.874  14.798  20.619  0.00  0.00    +0.000 A 
ATOM     17  C   UNL     1      -5.851  13.406  20.765  0.00  0.00    +0.000 A 
ATOM     18  C   UNL     1      -4.621  12.771  21.006  0.00  0.00    +0.000 A 
BRANCH  17  19
ATOM     19  C   UNL     1      -7.120  12.596  20.717  0.00  0.00    +0.000 C 
ATOM     20  F   UNL     1      -7.914  12.772  21.813  0.00  0.00    +0.000 F 
ATOM     21  F   UNL     1      -7.903  12.889  19.643  0.00  0.00    +0.000 F 
ATOM     22  F   UNL     1      -6.880  11.255  20.653  0.00  0.00    +0.000 F 
ENDBRANCH  17  19
ENDBRANCH   7  13
BRANCH   1  24
ATOM     23  C   UNL     1       2.283   7.420  19.468  0.00  0.00    +0.000 C 
ATOM     24  C   UNL     1       1.640   8.161  20.160  0.00  0.00    +0.000 C 
BRANCH  23  27
ATOM     25  N   UNL     1       4.299   5.718  17.194  0.00  0.00    +0.000 N 
ATOM     26  N   UNL     1       3.874   6.878  17.763  0.00  0.00    +0.000 NA
ATOM     27  C   UNL     1       2.959   6.460  18.649  0.00  0.00    +0.000 A 
ATOM     28  C   UNL     1       2.773   5.062  18.636  0.00  0.00    +0.000 A 
ATOM     29  C   UNL     1       2.006   4.101  19.299  0.00  0.00    +0.000 A 
ATOM     30  N   UNL     1       1.123   4.380  20.325  0.00  0.00    +0.000 N 
ATOM     31  N   UNL     1       2.143   2.808  18.936  0.00  0.00    +0.000 NA
ATOM     32  C   UNL     1       3.032   2.497  17.970  0.00  0.00    +0.000 A 
ATOM     33  N   UNL     1       3.834   3.330  17.285  0.00  0.00    +0.000 NA
ATOM     34  C   UNL     1       3.648   4.608  17.666  0.00  0.00    +0.000 A 
ATOM     35  H   UNL     1       0.781   5.325  20.421  0.00  0.00    +0.000 HD
ATOM     36  H   UNL     1       0.481   3.622  20.517  0.00  0.00    +0.000 HD
BRANCH  25  37
ATOM     37  C   UNL     1       5.373   5.727  16.219  0.00  0.00    +0.000 C 
BRANCH  37  39
ATOM     38  C   UNL     1       7.390   4.569  17.244  0.00  0.00    +0.000 C 
ATOM     39  C   UNL     1       6.761   5.895  16.839  0.00  0.00    +0.000 C 
ENDBRANCH  37  39
ENDBRANCH  25  37
ENDBRANCH  23  27
ENDBRANCH   1  24
TORSDOF 6
ENDMDL
MODEL 2
REMARK VINA RESULT:      -9.1      0.851      1.056
REMARK  Name = 
REMARK  7 active torsions:
REMARK  status: ('A' for Active; 'I' for Inactive)
REMARK    1  A    between atoms: C_1  and  C_2
REMARK    2  A    between atoms: C_2  and  C_3
REMARK    3  A    between atoms: C_3  and  N_4
REMARK    4  A    between atoms: C_6  and  C_7
REMARK    5  A    between atoms: C_8  and  C_9
REMARK    6  A    between atoms: N_15  and  C_16
REMARK    7  A    between atoms: C_20  and  C_21
REMARK                            x       y       z     vdW  Elec       q    Type
REMARK                         _______ _______ _______ _____ _____    ______ ____
ROOT
ATOM      1  C   UNL     1       0.787   8.903  20.939  0.00  0.00    +0.000 A 
ATOM      2  C   UNL     1       0.789   8.829  22.337  0.00  0.00    +0.000 A 
ATOM      3  C   UNL     1       0.007   9.702  23.087  0.00  0.00    +0.000 A 
ATOM      4  C   UNL     1      -0.771  10.669  22.447  0.00  0.00    +0.000 A 
ATOM      5  C   UNL     1      -0.795  10.782  21.038  0.00  0.00    +0.000 A 
ATOM      6  C   UNL     1      -1.605  11.720  20.341  0.00  0.00    +0.000 A 
ATOM      7  N   UNL     1      -2.341  12.705  21.054  0.00  0.00    +0.000 N 
ATOM      8  N   UNL     1      -1.670  11.762  18.992  0.00  0.00    +0.000 NA
ATOM      9  C   UNL     1      -0.925  10.892  18.293  0.00  0.00    +0.000 A 
ATOM     10  C   UNL     1      -0.080   9.968  18.874  0.00  0.00    +0.000 A 
ATOM     11  C   UNL     1      -0.010   9.875  20.274  0.00  0.00    +0.000 A 
ATOM     12  H   UNL     1      -1.685  13.414  21.366  0.00  0.00    +0.000 HD
ENDROOT
BRANCH   7  13
ATOM     13  C   UNL     1      -3.566  13.265  20.612  0.00  0.00    +0.000 A 
ATOM     14  C   UNL     1      -3.894  14.594  20.910  0.00  0.00    +0.000 A 
ATOM     15  C   UNL     1      -5.147  15.115  20.571  0.00  0.00    +0.000 A 
ATOM     16  C   UNL     1      -6.108  14.300  19.973  0.00  0.00    +0.000 A 
ATOM     17  C   UNL     1      -5.823  12.957  19.700  0.00  0.00    +0.000 A 
ATOM     18  C   UNL     1      -4.546  12.460  20.011  0.00  0.00    +0.000 A 
BRANCH  17  19
ATOM     19  C   UNL     1      -6.872  12.037  19.130  0.00  0.00    +0.000 C 
ATOM     20  F   UNL     1      -7.858  12.697  18.457  0.00  0.00    +0.000 F 
ATOM     21  F   UNL     1      -6.368  11.129  18.251  0.00  0.00    +0.000 F 
ATOM     22  F   UNL     1      -7.509  11.314  20.095  0.00  0.00    +0.000 F 
ENDBRANCH  17  19
ENDBRANCH   7  13
BRANCH   1  24
ATOM     23  C   UNL     1       2.261   7.132  19.641  0.00  0.00    +0.000 C 
ATOM     24  C   UNL     1       1.606   7.954  20.222  0.00  0.00    +0.000 C 
BRANCH  23  27
ATOM     25  N   UNL     1       4.531   5.139  17.909  0.00  0.00    +0.000 N 
ATOM     26  N   UNL     1       4.101   6.363  18.319  0.00  0.00    +0.000 NA
ATOM     27  C   UNL     1       3.001   6.072  19.026  0.00  0.00    +0.000 A 
ATOM     28  C   UNL     1       2.706   4.693  19.053  0.00  0.00    +0.000 A 
ATOM     29  C   UNL     1       1.749   3.837  19.601  0.00  0.00    +0.000 A 
ATOM     30  N   UNL     1       0.709   4.248  20.415  0.00  0.00    +0.000 N 
ATOM     31  N   UNL     1       1.846   2.516  19.342  0.00  0.00    +0.000 NA
ATOM     32  C   UNL     1       2.876   2.077  18.591  0.00  0.00    +0.000 A 
ATOM     33  N   UNL     1       3.863   2.802  18.034  0.00  0.00    +0.000 NA
ATOM     34  C   UNL     1       3.712   4.113  18.302  0.00  0.00    +0.000 A 
ATOM     35  H   UNL     1       0.434   5.219  20.389  0.00  0.00    +0.000 HD
ATOM     36  H   UNL     1      -0.018   3.552  20.516  0.00  0.00    +0.000 HD
BRANCH  25  37
ATOM     37  C   UNL     1       5.771   5.005  17.168  0.00  0.00    +0.000 C 
BRANCH  37  39
ATOM     38  C   UNL     1       7.533   6.747  17.734  0.00  0.00    +0.000 C 
ATOM     39  C   UNL     1       6.408   6.344  16.792  0.00  0.00    +0.000 C 
ENDBRANCH  37  39
ENDBRANCH  25  37
ENDBRANCH  23  27
ENDBRANCH   1  24
TORSDOF 6
ENDMDL
MODEL 3
REMARK VINA RESULT:      -9.0      3.311      4.133
REMARK  Name = 
REMARK  7 active torsions:
REMARK  status: ('A' for Active; 'I' for Inactive)
REMARK    1  A    between atoms: C_1  and  C_2
REMARK    2  A    between atoms: C_2  and  C_3
REMARK    3  A    between atoms: C_3  and  N_4
REMARK    4  A    between atoms: C_6  and  C_7
REMARK    5  A    between atoms: C_8  and  C_9
REMARK    6  A    between atoms: N_15  and  C_16
REMARK    7  A    between atoms: C_20  and  C_21
REMARK                            x       y       z     vdW  Elec       q    Type
REMARK                         _______ _______ _______ _____ _____    ______ ____
ROOT
ATOM      1  C   UNL     1       1.031   9.086  19.248  0.00  0.00    +0.000 A 
ATOM      2  C   UNL     1       0.523   9.633  18.065  0.00  0.00    +0.000 A 
ATOM      3  C   UNL     1      -0.449  10.628  18.111  0.00  0.00    +0.000 A 
ATOM      4  C   UNL     1      -0.935  11.073  19.342  0.00  0.00    +0.000 A 
ATOM      5  C   UNL     1      -0.453  10.541  20.561  0.00  0.00    +0.000 A 
ATOM      6  C   UNL     1      -0.885  10.993  21.838  0.00  0.00    +0.000 A 
ATOM      7  N   UNL     1      -1.949  11.929  21.948  0.00  0.00    +0.000 N 
ATOM      8  N   UNL     1      -0.358  10.524  22.991  0.00  0.00    +0.000 NA
ATOM      9  C   UNL     1       0.595   9.583  22.916  0.00  0.00    +0.000 A 
ATOM     10  C   UNL     1       1.057   9.053  21.727  0.00  0.00    +0.000 A 
ATOM     11  C   UNL     1       0.554   9.538  20.510  0.00  0.00    +0.000 A 
ATOM     12  H   UNL     1      -2.816  11.432  21.766  0.00  0.00    +0.000 HD
ENDROOT
BRANCH   7  13
ATOM     13  C   UNL     1      -2.082  12.871  22.999  0.00  0.00    +0.000 A 
ATOM     14  C   UNL     1      -3.201  12.849  23.842  0.00  0.00    +0.000 A 
ATOM     15  C   UNL     1      -3.387  13.844  24.808  0.00  0.00    +0.000 A 
ATOM     16  C   UNL     1      -2.483  14.901  24.911  0.00  0.00    +0.000 A 
ATOM     17  C   UNL     1      -1.378  14.971  24.055  0.00  0.00    +0.000 A 
ATOM     18  C   UNL     1      -1.184  13.943  23.117  0.00  0.00    +0.000 A 
BRANCH  17  19
ATOM     19  C   UNL     1      -0.434  16.144  24.094  0.00  0.00    +0.000 C 
ATOM     20  F   UNL     1      -1.023  17.321  23.733  0.00  0.00    +0.000 F 
ATOM     21  F   UNL     1       0.102  16.361  25.325  0.00  0.00    +0.000 F 
ATOM     22  F   UNL     1       0.623  15.991  23.245  0.00  0.00    +0.000 F 
ENDBRANCH  17  19
ENDBRANCH   7  13
BRANCH   1  24
ATOM     23  C   UNL     1       2.869   7.198  19.028  0.00  0.00    +0.000 C 
ATOM     24  C   UNL     1       2.052   8.072  19.128  0.00  0.00    +0.000 C 
BRANCH  23  27
ATOM     25  N   UNL     1       5.476   4.972  18.414  0.00  0.00    +0.000 N 
ATOM     26  N   UNL     1       4.895   6.191  18.248  0.00  0.00    +0.000 NA
ATOM     27  C   UNL     1       3.763   6.082  18.955  0.00  0.00    +0.000 A 
ATOM     28  C   UNL     1       3.597   4.811  19.545  0.00  0.00    +0.000 A 
ATOM     29  C   UNL     1       2.674   4.144  20.354  0.00  0.00    +0.000 A 
ATOM     30  N   UNL     1       1.526   4.718  20.865  0.00  0.00    +0.000 N 
ATOM     31  N   UNL     1       2.920   2.857  20.680  0.00  0.00    +0.000 NA
ATOM     32  C   UNL     1       4.056   2.282  20.237  0.00  0.00    +0.000 A 
ATOM     33  N   UNL     1       5.020   2.831  19.477  0.00  0.00    +0.000 NA
ATOM     34  C   UNL     1       4.722   4.106  19.160  0.00  0.00    +0.000 A 
ATOM     35  H   UNL     1       1.165   5.549  20.419  0.00  0.00    +0.000 HD
ATOM     36  H   UNL     1       0.860   4.040  21.213  0.00  0.00    +0.000 HD
BRANCH  25  37
ATOM     37  C   UNL     1       6.790   4.702  17.862  0.00  0.00    +0.000 C 
BRANCH  37  39
ATOM     38  C   UNL     1       5.950   3.808  15.635  0.00  0.00    +0.000 C 
ATOM     39  C   UNL     1       6.849   4.816  16.337  0.00  0.00    +0.000 C 
ENDBRANCH  37  39
ENDBRANCH  25  37
ENDBRANCH  23  27
ENDBRANCH   1  24
TORSDOF 6
ENDMDL
MODEL 4
REMARK VINA RESULT:      -9.0      3.334      4.148
REMARK  Name = 
REMARK  7 active torsions:
REMARK  status: ('A' for Active; 'I' for Inactive)
REMARK    1  A    between atoms: C_1  and  C_2
REMARK    2  A    between atoms: C_2  and  C_3
REMARK    3  A    between atoms: C_3  and  N_4
REMARK    4  A    between atoms: C_6  and  C_7
REMARK    5  A    between atoms: C_8  and  C_9
REMARK    6  A    between atoms: N_15  and  C_16
REMARK    7  A    between atoms: C_20  and  C_21
REMARK                            x       y       z     vdW  Elec       q    Type
REMARK                         _______ _______ _______ _____ _____    ______ ____
ROOT
ATOM      1  C   UNL     1       0.814   9.281  19.225  0.00  0.00    +0.000 A 
ATOM      2  C   UNL     1       0.290   9.866  18.066  0.00  0.00    +0.000 A 
ATOM      3  C   UNL     1      -0.664  10.875  18.158  0.00  0.00    +0.000 A 
ATOM      4  C   UNL     1      -1.116  11.297  19.409  0.00  0.00    +0.000 A 
ATOM      5  C   UNL     1      -0.617  10.728  20.604  0.00  0.00    +0.000 A 
ATOM      6  C   UNL     1      -1.013  11.156  21.901  0.00  0.00    +0.000 A 
ATOM      7  N   UNL     1      -2.059  12.107  22.057  0.00  0.00    +0.000 N 
ATOM      8  N   UNL     1      -0.470  10.651  23.030  0.00  0.00    +0.000 NA
ATOM      9  C   UNL     1       0.465   9.697  22.912  0.00  0.00    +0.000 A 
ATOM     10  C   UNL     1       0.892   9.188  21.702  0.00  0.00    +0.000 A 
ATOM     11  C   UNL     1       0.372   9.711  20.507  0.00  0.00    +0.000 A 
ATOM     12  H   UNL     1      -2.938  11.629  21.881  0.00  0.00    +0.000 HD
ENDROOT
BRANCH   7  13
ATOM     13  C   UNL     1      -2.154  13.025  23.132  0.00  0.00    +0.000 A 
ATOM     14  C   UNL     1      -3.254  13.001  23.999  0.00  0.00    +0.000 A 
ATOM     15  C   UNL     1      -3.403  13.976  24.992  0.00  0.00    +0.000 A 
ATOM     16  C   UNL     1      -2.479  15.015  25.100  0.00  0.00    +0.000 A 
ATOM     17  C   UNL     1      -1.392  15.087  24.222  0.00  0.00    +0.000 A 
ATOM     18  C   UNL     1      -1.235  14.079  23.256  0.00  0.00    +0.000 A 
BRANCH  17  19
ATOM     19  C   UNL     1      -0.428  16.244  24.267  0.00  0.00    +0.000 C 
ATOM     20  F   UNL     1       0.156  16.411  25.489  0.00  0.00    +0.000 F 
ATOM     21  F   UNL     1       0.597  16.124  23.381  0.00  0.00    +0.000 F 
ATOM     22  F   UNL     1      -1.031  17.435  23.986  0.00  0.00    +0.000 F 
ENDBRANCH  17  19
ENDBRANCH   7  13
BRANCH   1  24
ATOM     23  C   UNL     1       2.615   7.370  18.925  0.00  0.00    +0.000 C 
ATOM     24  C   UNL     1       1.815   8.254  19.059  0.00  0.00    +0.000 C 
BRANCH  23  27
ATOM     25  N   UNL     1       5.152   5.100  18.188  0.00  0.00    +0.000 N 
ATOM     26  N   UNL     1       4.567   6.317  18.024  0.00  0.00    +0.000 NA
ATOM     27  C   UNL     1       3.494   6.243  18.822  0.00  0.00    +0.000 A 
ATOM     28  C   UNL     1       3.367   4.996  19.469  0.00  0.00    +0.000 A 
ATOM     29  C   UNL     1       2.508   4.367  20.372  0.00  0.00    +0.000 A 
ATOM     30  N   UNL     1       1.407   4.970  20.951  0.00  0.00    +0.000 N 
ATOM     31  N   UNL     1       2.770   3.090  20.725  0.00  0.00    +0.000 NA
ATOM     32  C   UNL     1       3.865   2.490  20.215  0.00  0.00    +0.000 A 
ATOM     33  N   UNL     1       4.769   3.002  19.362  0.00  0.00    +0.000 NA
ATOM     34  C   UNL     1       4.454   4.267  19.023  0.00  0.00    +0.000 A 
ATOM     35  H   UNL     1       1.017   5.787  20.505  0.00  0.00    +0.000 HD
ATOM     36  H   UNL     1       0.767   4.311  21.375  0.00  0.00    +0.000 HD
BRANCH  25  37
ATOM     37  C   UNL     1       6.416   4.798  17.544  0.00  0.00    +0.000 C 
BRANCH  37  39
ATOM     38  C   UNL     1       7.964   5.855  19.262  0.00  0.00    +0.000 C 
ATOM     39  C   UNL     1       7.504   5.840  17.810  0.00  0.00    +0.000 C 
ENDBRANCH  37  39
ENDBRANCH  25  37
ENDBRANCH  23  27
ENDBRANCH   1  24
TORSDOF 6
ENDMDL
MODEL 5
REMARK VINA RESULT:      -8.6      1.784      2.284
REMARK  Name = 
REMARK  7 active torsions:
REMARK  status: ('A' for Active; 'I' for Inactive)
REMARK    1  A    between atoms: C_1  and  C_2
REMARK    2  A    between atoms: C_2  and  C_3
REMARK    3  A    between atoms: C_3  and  N_4
REMARK    4  A    between atoms: C_6  and  C_7
REMARK    5  A    between atoms: C_8  and  C_9
REMARK    6  A    between atoms: N_15  and  C_16
REMARK    7  A    between atoms: C_20  and  C_21
REMARK                            x       y       z     vdW  Elec       q    Type
REMARK                         _______ _______ _______ _____ _____    ______ ____
ROOT
ATOM      1  C   UNL     1       0.850   8.885  21.007  0.00  0.00    +0.000 A 
ATOM      2  C   UNL     1       0.866   8.688  22.393  0.00  0.00    +0.000 A 
ATOM      3  C   UNL     1       0.129   9.520  23.229  0.00  0.00    +0.000 A 
ATOM      4  C   UNL     1      -0.619  10.569  22.690  0.00  0.00    +0.000 A 
ATOM      5  C   UNL     1      -0.657  10.806  21.296  0.00  0.00    +0.000 A 
ATOM      6  C   UNL     1      -1.438  11.832  20.697  0.00  0.00    +0.000 A 
ATOM      7  N   UNL     1      -2.126  12.777  21.505  0.00  0.00    +0.000 N 
ATOM      8  N   UNL     1      -1.519  11.995  19.358  0.00  0.00    +0.000 NA
ATOM      9  C   UNL     1      -0.818  11.163  18.574  0.00  0.00    +0.000 A 
ATOM     10  C   UNL     1      -0.002  10.159  19.058  0.00  0.00    +0.000 A 
ATOM     11  C   UNL     1       0.082   9.942  20.443  0.00  0.00    +0.000 A 
ATOM     12  H   UNL     1      -1.438  13.431  21.868  0.00  0.00    +0.000 HD
ENDROOT
BRANCH   7  13
ATOM     13  C   UNL     1      -3.334  13.420  21.135  0.00  0.00    +0.000 A 
ATOM     14  C   UNL     1      -4.429  12.677  20.676  0.00  0.00    +0.000 A 
ATOM     15  C   UNL     1      -5.582  13.317  20.208  0.00  0.00    +0.000 A 
ATOM     16  C   UNL     1      -5.636  14.709  20.146  0.00  0.00    +0.000 A 
ATOM     17  C   UNL     1      -4.541  15.477  20.559  0.00  0.00    +0.000 A 
ATOM     18  C   UNL     1      -3.407  14.821  21.064  0.00  0.00    +0.000 A 
BRANCH  17  19
ATOM     19  C   UNL     1      -4.546  16.978  20.425  0.00  0.00    +0.000 C 
ATOM     20  F   UNL     1      -5.799  17.504  20.307  0.00  0.00    +0.000 F 
ATOM     21  F   UNL     1      -3.977  17.613  21.485  0.00  0.00    +0.000 F 
ATOM     22  F   UNL     1      -3.866  17.404  19.322  0.00  0.00    +0.000 F 
ENDBRANCH  17  19
ENDBRANCH   7  13
BRANCH   1  24
ATOM     23  C   UNL     1       2.238   7.181  19.538  0.00  0.00    +0.000 C 
ATOM     24  C   UNL     1       1.621   7.973  20.196  0.00  0.00    +0.000 C 
BRANCH  23  27
ATOM     25  N   UNL     1       4.401   5.275  17.583  0.00  0.00    +0.000 N 
ATOM     26  N   UNL     1       4.001   6.477  18.080  0.00  0.00    +0.000 NA
ATOM     27  C   UNL     1       2.938   6.153  18.828  0.00  0.00    +0.000 A 
ATOM     28  C   UNL     1       2.635   4.775  18.796  0.00  0.00    +0.000 A 
ATOM     29  C   UNL     1       1.702   3.895  19.348  0.00  0.00    +0.000 A 
ATOM     30  N   UNL     1       0.710   4.265  20.236  0.00  0.00    +0.000 N 
ATOM     31  N   UNL     1       1.776   2.589  19.013  0.00  0.00    +0.000 NA
ATOM     32  C   UNL     1       2.763   2.187  18.186  0.00  0.00    +0.000 A 
ATOM     33  N   UNL     1       3.724   2.937  17.618  0.00  0.00    +0.000 NA
ATOM     34  C   UNL     1       3.596   4.233  17.963  0.00  0.00    +0.000 A 
ATOM     35  H   UNL     1       0.441   5.237  20.277  0.00  0.00    +0.000 HD
ATOM     36  H   UNL     1      -0.016   3.568  20.338  0.00  0.00    +0.000 HD
BRANCH  25  37
ATOM     37  C   UNL     1       5.598   5.176  16.771  0.00  0.00    +0.000 C 
BRANCH  37  39
ATOM     38  C   UNL     1       5.638   4.320  14.378  0.00  0.00    +0.000 C 
ATOM     39  C   UNL     1       5.367   5.504  15.295  0.00  0.00    +0.000 C 
ENDBRANCH  37  39
ENDBRANCH  25  37
ENDBRANCH  23  27
ENDBRANCH   1  24
TORSDOF 6
ENDMDL
MODEL 6
REMARK VINA RESULT:      -8.5      1.724      2.196
REMARK  Name = 
REMARK  7 active torsions:
REMARK  status: ('A' for Active; 'I' for Inactive)
REMARK    1  A    between atoms: C_1  and  C_2
REMARK    2  A    between atoms: C_2  and  C_3
REMARK    3  A    between atoms: C_3  and  N_4
REMARK    4  A    between atoms: C_6  and  C_7
REMARK    5  A    between atoms: C_8  and  C_9
REMARK    6  A    between atoms: N_15  and  C_16
REMARK    7  A    between atoms: C_20  and  C_21
REMARK                            x       y       z     vdW  Elec       q    Type
REMARK                         _______ _______ _______ _____ _____    ______ ____
ROOT
ATOM      1  C   UNL     1       0.711   9.063  21.105  0.00  0.00    +0.000 A 
ATOM      2  C   UNL     1       0.714   8.894  22.494  0.00  0.00    +0.000 A 
ATOM      3  C   UNL     1      -0.045   9.733  23.305  0.00  0.00    +0.000 A 
ATOM      4  C   UNL     1      -0.800  10.760  22.736  0.00  0.00    +0.000 A 
ATOM      5  C   UNL     1      -0.824  10.969  21.337  0.00  0.00    +0.000 A 
ATOM      6  C   UNL     1      -1.612  11.972  20.708  0.00  0.00    +0.000 A 
ATOM      7  N   UNL     1      -2.323  12.924  21.490  0.00  0.00    +0.000 N 
ATOM      8  N   UNL     1      -1.679  12.107  19.366  0.00  0.00    +0.000 NA
ATOM      9  C   UNL     1      -0.958  11.269  18.607  0.00  0.00    +0.000 A 
ATOM     10  C   UNL     1      -0.134  10.287  19.121  0.00  0.00    +0.000 A 
ATOM     11  C   UNL     1      -0.064  10.098  20.510  0.00  0.00    +0.000 A 
ATOM     12  H   UNL     1      -1.648  13.594  21.847  0.00  0.00    +0.000 HD
ENDROOT
BRANCH   7  13
ATOM     13  C   UNL     1      -3.534  13.543  21.092  0.00  0.00    +0.000 A 
ATOM     14  C   UNL     1      -4.628  12.773  20.675  0.00  0.00    +0.000 A 
ATOM     15  C   UNL     1      -5.785  13.385  20.179  0.00  0.00    +0.000 A 
ATOM     16  C   UNL     1      -5.845  14.772  20.048  0.00  0.00    +0.000 A 
ATOM     17  C   UNL     1      -4.752  15.564  20.419  0.00  0.00    +0.000 A 
ATOM     18  C   UNL     1      -3.613  14.938  20.952  0.00  0.00    +0.000 A 
BRANCH  17  19
ATOM     19  C   UNL     1      -4.763  17.056  20.210  0.00  0.00    +0.000 C 
ATOM     20  F   UNL     1      -4.617  17.763  21.367  0.00  0.00    +0.000 F 
ATOM     21  F   UNL     1      -3.773  17.489  19.384  0.00  0.00    +0.000 F 
ATOM     22  F   UNL     1      -5.931  17.495  19.659  0.00  0.00    +0.000 F 
ENDBRANCH  17  19
ENDBRANCH   7  13
BRANCH   1  24
ATOM     23  C   UNL     1       2.154   7.407  19.634  0.00  0.00    +0.000 C 
ATOM     24  C   UNL     1       1.504   8.146  20.321  0.00  0.00    +0.000 C 
BRANCH  23  27
ATOM     25  N   UNL     1       4.254   6.028  17.222  0.00  0.00    +0.000 N 
ATOM     26  N   UNL     1       3.796   7.102  17.919  0.00  0.00    +0.000 NA
ATOM     27  C   UNL     1       2.867   6.565  18.721  0.00  0.00    +0.000 A 
ATOM     28  C   UNL     1       2.705   5.176  18.531  0.00  0.00    +0.000 A 
ATOM     29  C   UNL     1       1.938   4.130  19.049  0.00  0.00    +0.000 A 
ATOM     30  N   UNL     1       1.025   4.268  20.078  0.00  0.00    +0.000 N 
ATOM     31  N   UNL     1       2.106   2.895  18.532  0.00  0.00    +0.000 NA
ATOM     32  C   UNL     1       3.024   2.719  17.560  0.00  0.00    +0.000 A 
ATOM     33  N   UNL     1       3.829   3.641  17.004  0.00  0.00    +0.000 NA
ATOM     34  C   UNL     1       3.611   4.859  17.536  0.00  0.00    +0.000 A 
ATOM     35  H   UNL     1       0.665   5.189  20.280  0.00  0.00    +0.000 HD
ATOM     36  H   UNL     1       0.392   3.483  20.157  0.00  0.00    +0.000 HD
BRANCH  25  37
ATOM     37  C   UNL     1       5.352   6.172  16.285  0.00  0.00    +0.000 C 
BRANCH  37  39
ATOM     38  C   UNL     1       7.375   7.230  17.401  0.00  0.00    +0.000 C 
ATOM     39  C   UNL     1       6.728   5.943  16.912  0.00  0.00    +0.000 C 
ENDBRANCH  37  39
ENDBRANCH  25  37
ENDBRANCH  23  27
ENDBRANCH   1  24
TORSDOF 6
ENDMDL
MODEL 7
REMARK VINA RESULT:      -8.5      2.202      3.096
REMARK  Name = 
REMARK  7 active torsions:
REMARK  status: ('A' for Active; 'I' for Inactive)
REMARK    1  A    between atoms: C_1  and  C_2
REMARK    2  A    between atoms: C_2  and  C_3
REMARK    3  A    between atoms: C_3  and  N_4
REMARK    4  A    between atoms: C_6  and  C_7
REMARK    5  A    between atoms: C_8  and  C_9
REMARK    6  A    between atoms: N_15  and  C_16
REMARK    7  A    between atoms: C_20  and  C_21
REMARK                            x       y       z     vdW  Elec       q    Type
REMARK                         _______ _______ _______ _____ _____    ______ ____
ROOT
ATOM      1  C   UNL     1       2.026  10.189  18.397  0.00  0.00    +0.000 A 
ATOM      2  C   UNL     1       2.558  11.273  17.689  0.00  0.00    +0.000 A 
ATOM      3  C   UNL     1       2.070  12.559  17.902  0.00  0.00    +0.000 A 
ATOM      4  C   UNL     1       1.033  12.770  18.813  0.00  0.00    +0.000 A 
ATOM      5  C   UNL     1       0.463  11.701  19.543  0.00  0.00    +0.000 A 
ATOM      6  C   UNL     1      -0.562  11.873  20.513  0.00  0.00    +0.000 A 
ATOM      7  N   UNL     1      -1.172  13.144  20.697  0.00  0.00    +0.000 N 
ATOM      8  N   UNL     1      -1.041  10.849  21.253  0.00  0.00    +0.000 NA
ATOM      9  C   UNL     1      -0.535   9.625  21.044  0.00  0.00    +0.000 A 
ATOM     10  C   UNL     1       0.436   9.347  20.102  0.00  0.00    +0.000 A 
ATOM     11  C   UNL     1       0.978  10.392  19.337  0.00  0.00    +0.000 A 
ATOM     12  H   UNL     1      -1.803  13.298  19.916  0.00  0.00    +0.000 HD
ENDROOT
BRANCH   7  13
ATOM     13  C   UNL     1      -1.715  13.602  21.923  0.00  0.00    +0.000 A 
ATOM     14  C   UNL     1      -0.896  14.197  22.891  0.00  0.00    +0.000 A 
ATOM     15  C   UNL     1      -1.410  14.550  24.144  0.00  0.00    +0.000 A 
ATOM     16  C   UNL     1      -2.737  14.268  24.464  0.00  0.00    +0.000 A 
ATOM     17  C   UNL     1      -3.569  13.637  23.531  0.00  0.00    +0.000 A 
ATOM     18  C   UNL     1      -3.049  13.325  22.263  0.00  0.00    +0.000 A 
BRANCH  17  19
ATOM     19  C   UNL     1      -4.981  13.249  23.883  0.00  0.00    +0.000 C 
ATOM     20  F   UNL     1      -5.642  12.633  22.860  0.00  0.00    +0.000 F 
ATOM     21  F   UNL     1      -5.055  12.393  24.938  0.00  0.00    +0.000 F 
ATOM     22  F   UNL     1      -5.749  14.325  24.216  0.00  0.00    +0.000 F 
ENDBRANCH  17  19
ENDBRANCH   7  13
BRANCH   1  24
ATOM     23  C   UNL     1       3.046   7.788  17.968  0.00  0.00    +0.000 C 
ATOM     24  C   UNL     1       2.593   8.885  18.141  0.00  0.00    +0.000 C 
BRANCH  23  27
ATOM     25  N   UNL     1       4.664   4.832  17.085  0.00  0.00    +0.000 N 
ATOM     26  N   UNL     1       4.343   6.129  16.829  0.00  0.00    +0.000 NA
ATOM     27  C   UNL     1       3.577   6.461  17.877  0.00  0.00    +0.000 A 
ATOM     28  C   UNL     1       3.382   5.396  18.781  0.00  0.00    +0.000 A 
ATOM     29  C   UNL     1       2.723   5.155  19.989  0.00  0.00    +0.000 A 
ATOM     30  N   UNL     1       2.016   6.109  20.696  0.00  0.00    +0.000 N 
ATOM     31  N   UNL     1       2.791   3.916  20.520  0.00  0.00    +0.000 NA
ATOM     32  C   UNL     1       3.514   2.975  19.879  0.00  0.00    +0.000 A 
ATOM     33  N   UNL     1       4.203   3.100  18.731  0.00  0.00    +0.000 NA
ATOM     34  C   UNL     1       4.088   4.344  18.229  0.00  0.00    +0.000 A 
ATOM     35  H   UNL     1       1.700   6.933  20.207  0.00  0.00    +0.000 HD
ATOM     36  H   UNL     1       1.407   5.714  21.401  0.00  0.00    +0.000 HD
BRANCH  25  37
ATOM     37  C   UNL     1       5.569   4.112  16.211  0.00  0.00    +0.000 C 
BRANCH  37  39
ATOM     38  C   UNL     1       6.043   3.934  13.720  0.00  0.00    +0.000 C 
ATOM     39  C   UNL     1       5.899   4.861  14.919  0.00  0.00    +0.000 C 
ENDBRANCH  37  39
ENDBRANCH  25  37
ENDBRANCH  23  27
ENDBRANCH   1  24
TORSDOF 6
ENDMDL
MODEL 8
REMARK VINA RESULT:      -8.4      3.324      4.159
REMARK  Name = 
REMARK  7 active torsions:
REMARK  status: ('A' for Active; 'I' for Inactive)
REMARK    1  A    between atoms: C_1  and  C_2
REMARK    2  A    between atoms: C_2  and  C_3
REMARK    3  A    between atoms: C_3  and  N_4
REMARK    4  A    between atoms: C_6  and  C_7
REMARK    5  A    between atoms: C_8  and  C_9
REMARK    6  A    between atoms: N_15  and  C_16
REMARK    7  A    between atoms: C_20  and  C_21
REMARK                            x       y       z     vdW  Elec       q    Type
REMARK                         _______ _______ _______ _____ _____    ______ ____
ROOT
ATOM      1  C   UNL     1       1.304   9.662  19.171  0.00  0.00    +0.000 A 
ATOM      2  C   UNL     1       1.565  10.666  18.231  0.00  0.00    +0.000 A 
ATOM      3  C   UNL     1       1.006  11.931  18.381  0.00  0.00    +0.000 A 
ATOM      4  C   UNL     1       0.166  12.200  19.464  0.00  0.00    +0.000 A 
ATOM      5  C   UNL     1      -0.128  11.212  20.432  0.00  0.00    +0.000 A 
ATOM      6  C   UNL     1      -0.940  11.452  21.574  0.00  0.00    +0.000 A 
ATOM      7  N   UNL     1      -1.623  12.689  21.725  0.00  0.00    +0.000 N 
ATOM      8  N   UNL     1      -1.149  10.516  22.526  0.00  0.00    +0.000 NA
ATOM      9  C   UNL     1      -0.578   9.312  22.369  0.00  0.00    +0.000 A 
ATOM     10  C   UNL     1       0.197   8.969  21.279  0.00  0.00    +0.000 A 
ATOM     11  C   UNL     1       0.460   9.926  20.285  0.00  0.00    +0.000 A 
ATOM     12  H   UNL     1      -2.415  12.683  21.089  0.00  0.00    +0.000 HD
ENDROOT
BRANCH   7  13
ATOM     13  C   UNL     1      -1.940  13.283  22.972  0.00  0.00    +0.000 A 
ATOM     14  C   UNL     1      -3.139  12.972  23.628  0.00  0.00    +0.000 A 
ATOM     15  C   UNL     1      -3.504  13.639  24.803  0.00  0.00    +0.000 A 
ATOM     16  C   UNL     1      -2.700  14.658  25.312  0.00  0.00    +0.000 A 
ATOM     17  C   UNL     1      -1.517  15.017  24.655  0.00  0.00    +0.000 A 
ATOM     18  C   UNL     1      -1.144  14.312  23.499  0.00  0.00    +0.000 A 
BRANCH  17  19
ATOM     19  C   UNL     1      -0.675  16.169  25.140  0.00  0.00    +0.000 C 
ATOM     20  F   UNL     1      -1.360  17.346  25.209  0.00  0.00    +0.000 F 
ATOM     21  F   UNL     1      -0.157  15.969  26.383  0.00  0.00    +0.000 F 
ATOM     22  F   UNL     1       0.390  16.415  24.324  0.00  0.00    +0.000 F 
ENDBRANCH  17  19
ENDBRANCH   7  13
BRANCH   1  24
ATOM     23  C   UNL     1       2.478   7.329  18.761  0.00  0.00    +0.000 C 
ATOM     24  C   UNL     1       1.932   8.378  18.965  0.00  0.00    +0.000 C 
BRANCH  23  27
ATOM     25  N   UNL     1       4.531   4.853  17.424  0.00  0.00    +0.000 N 
ATOM     26  N   UNL     1       4.123   6.150  17.483  0.00  0.00    +0.000 NA
ATOM     27  C   UNL     1       3.156   6.117  18.409  0.00  0.00    +0.000 A 
ATOM     28  C   UNL     1       2.920   4.824  18.921  0.00  0.00    +0.000 A 
ATOM     29  C   UNL     1       2.090   4.203  19.857  0.00  0.00    +0.000 A 
ATOM     30  N   UNL     1       1.172   4.868  20.649  0.00  0.00    +0.000 N 
ATOM     31  N   UNL     1       2.196   2.867  20.022  0.00  0.00    +0.000 NA
ATOM     32  C   UNL     1       3.115   2.196  19.299  0.00  0.00    +0.000 A 
ATOM     33  N   UNL     1       3.977   2.690  18.392  0.00  0.00    +0.000 NA
ATOM     34  C   UNL     1       3.820   4.020  18.247  0.00  0.00    +0.000 A 
ATOM     35  H   UNL     1       0.861   5.783  20.358  0.00  0.00    +0.000 HD
ATOM     36  H   UNL     1       0.496   4.251  21.080  0.00  0.00    +0.000 HD
BRANCH  25  37
ATOM     37  C   UNL     1       5.647   4.471  16.580  0.00  0.00    +0.000 C 
BRANCH  37  39
ATOM     38  C   UNL     1       6.088   4.167  14.095  0.00  0.00    +0.000 C 
ATOM     39  C   UNL     1       5.611   5.110  15.190  0.00  0.00    +0.000 C 
ENDBRANCH  37  39
ENDBRANCH  25  37
ENDBRANCH  23  27
ENDBRANCH   1  24
TORSDOF 6
ENDMDL
MODEL 9
REMARK VINA RESULT:      -8.4      4.225     11.237
REMARK  Name = 
REMARK  7 active torsions:
REMARK  status: ('A' for Active; 'I' for Inactive)
REMARK    1  A    between atoms: C_1  and  C_2
REMARK    2  A    between atoms: C_2  and  C_3
REMARK    3  A    between atoms: C_3  and  N_4
REMARK    4  A    between atoms: C_6  and  C_7
REMARK    5  A    between atoms: C_8  and  C_9
REMARK    6  A    between atoms: N_15  and  C_16
REMARK    7  A    between atoms: C_20  and  C_21
REMARK                            x       y       z     vdW  Elec       q    Type
REMARK                         _______ _______ _______ _____ _____    ______ ____
ROOT
ATOM      1  C   UNL     1      -2.666  11.577  18.914  0.00  0.00    +0.000 A 
ATOM      2  C   UNL     1      -3.255  11.278  17.680  0.00  0.00    +0.000 A 
ATOM      3  C   UNL     1      -2.597  10.460  16.767  0.00  0.00    +0.000 A 
ATOM      4  C   UNL     1      -1.335   9.946  17.073  0.00  0.00    +0.000 A 
ATOM      5  C   UNL     1      -0.702  10.229  18.305  0.00  0.00    +0.000 A 
ATOM      6  C   UNL     1       0.560   9.693  18.679  0.00  0.00    +0.000 A 
ATOM      7  N   UNL     1       1.326   8.939  17.748  0.00  0.00    +0.000 N 
ATOM      8  N   UNL     1       1.114   9.915  19.891  0.00  0.00    +0.000 NA
ATOM      9  C   UNL     1       0.446  10.688  20.761  0.00  0.00    +0.000 A 
ATOM     10  C   UNL     1      -0.767  11.284  20.482  0.00  0.00    +0.000 A 
ATOM     11  C   UNL     1      -1.386  11.050  19.243  0.00  0.00    +0.000 A 
ATOM     12  H   UNL     1       1.733   9.591  17.085  0.00  0.00    +0.000 HD
ENDROOT
BRANCH   7  13
ATOM     13  C   UNL     1       2.227   7.903  18.104  0.00  0.00    +0.000 A 
ATOM     14  C   UNL     1       3.484   7.807  17.493  0.00  0.00    +0.000 A 
ATOM     15  C   UNL     1       4.328   6.725  17.763  0.00  0.00    +0.000 A 
ATOM     16  C   UNL     1       3.908   5.699  18.608  0.00  0.00    +0.000 A 
ATOM     17  C   UNL     1       2.640   5.748  19.201  0.00  0.00    +0.000 A 
ATOM     18  C   UNL     1       1.820   6.861  18.952  0.00  0.00    +0.000 A 
BRANCH  17  19
ATOM     19  C   UNL     1       2.133   4.613  20.052  0.00  0.00    +0.000 C 
ATOM     20  F   UNL     1       2.956   4.314  21.098  0.00  0.00    +0.000 F 
ATOM     21  F   UNL     1       0.912   4.858  20.600  0.00  0.00    +0.000 F 
ATOM     22  F   UNL     1       2.003   3.452  19.348  0.00  0.00    +0.000 F 
ENDBRANCH  17  19
ENDBRANCH   7  13
BRANCH   1  24
ATOM     23  C   UNL     1      -3.998  13.113  20.604  0.00  0.00    +0.000 C 
ATOM     24  C   UNL     1      -3.412  12.416  19.822  0.00  0.00    +0.000 C 
BRANCH  23  27
ATOM     25  N   UNL     1      -4.899  15.513  22.961  0.00  0.00    +0.000 N 
ATOM     26  N   UNL     1      -4.036  15.042  22.021  0.00  0.00    +0.000 NA
ATOM     27  C   UNL     1      -4.622  13.905  21.621  0.00  0.00    +0.000 A 
ATOM     28  C   UNL     1      -5.824  13.629  22.304  0.00  0.00    +0.000 A 
ATOM     29  C   UNL     1      -6.823  12.653  22.316  0.00  0.00    +0.000 A 
ATOM     30  N   UNL     1      -6.855  11.560  21.470  0.00  0.00    +0.000 N 
ATOM     31  N   UNL     1      -7.840  12.785  23.194  0.00  0.00    +0.000 NA
ATOM     32  C   UNL     1      -7.862  13.866  24.000  0.00  0.00    +0.000 A 
ATOM     33  N   UNL     1      -6.974  14.873  24.060  0.00  0.00    +0.000 NA
ATOM     34  C   UNL     1      -5.969  14.687  23.183  0.00  0.00    +0.000 A 
ATOM     35  H   UNL     1      -5.996  11.273  21.023  0.00  0.00    +0.000 HD
ATOM     36  H   UNL     1      -7.496  10.838  21.773  0.00  0.00    +0.000 HD
BRANCH  25  37
ATOM     37  C   UNL     1      -4.667  16.797  23.594  0.00  0.00    +0.000 C 
BRANCH  37  39
ATOM     38  C   UNL     1      -3.067  15.603  25.167  0.00  0.00    +0.000 C 
ATOM     39  C   UNL     1      -4.124  16.688  25.020  0.00  0.00    +0.000 C 
ENDBRANCH  37  39
ENDBRANCH  25  37
ENDBRANCH  23  27
ENDBRANCH   1  24
TORSDOF 6
ENDMDL
