MODEL 1
REMARK VINA RESULT:      -4.8      0.000      0.000
REMARK  Name = 
REMARK  10 active torsions:
REMARK  status: ('A' for Active; 'I' for Inactive)
REMARK    1  A    between atoms: C_1  and  O_2
REMARK    2  A    between atoms: O_2  and  C_3
REMARK    3  A    between atoms: C_3  and  C_5
REMARK    4  A    between atoms: C_5  and  C_6
REMARK    5  A    between atoms: C_6  and  C_7
REMARK    6  A    between atoms: C_6  and  C_9
REMARK    7  A    between atoms: C_7  and  N_8
REMARK    8  A    between atoms: C_9  and  C_10
REMARK    9  A    between atoms: C_10  and  C_11
REMARK   10  A    between atoms: C_10  and  C_12
REMARK                            x       y       z     vdW  Elec       q    Type
REMARK                         _______ _______ _______ _____ _____    ______ ____
ROOT
ATOM      1  C   UNL     1       4.323   4.013  17.901  0.00  0.00    +0.000 C 
ENDROOT
BRANCH   1   2
ATOM      2  C   UNL     1       3.282   2.990  17.408  0.00  0.00    +0.000 C 
BRANCH   2   3
ATOM      3  C   UNL     1       1.889   3.297  17.905  0.00  0.00    +0.000 C 
ATOM      4  O   UNL     1       1.127   4.106  17.399  0.00  0.00    +0.000 OA
BRANCH   3   6
ATOM      5  C   UNL     1       1.068   3.231  20.111  0.00  0.00    +0.000 C 
ATOM      6  O   UNL     1       1.605   2.524  18.991  0.00  0.00    +0.000 OA
ENDBRANCH   3   6
ENDBRANCH   2   3
ENDBRANCH   1   2
BRANCH   1   7
ATOM      7  C   UNL     1       4.825   3.699  19.334  0.00  0.00    +0.000 C 
BRANCH   7   8
ATOM      8  N   UNL     1       4.817   2.278  19.667  0.00  0.00    +0.000 NA
ATOM      9  H   UNL     1       5.511   2.063  20.380  0.00  0.00    +0.000 HD
ATOM     10  H   UNL     1       5.089   1.741  18.843  0.00  0.00    +0.000 HD
ENDBRANCH   7   8
ENDBRANCH   1   7
BRANCH   1  11
ATOM     11  C   UNL     1       5.524   4.126  16.929  0.00  0.00    +0.000 C 
BRANCH  11  12
ATOM     12  C   UNL     1       5.218   4.653  15.510  0.00  0.00    +0.000 C 
ATOM     13  C   UNL     1       5.317   6.176  15.411  0.00  0.00    +0.000 C 
ATOM     14  C   UNL     1       6.176   4.003  14.506  0.00  0.00    +0.000 C 
ENDBRANCH  11  12
ENDBRANCH   1  11
TORSDOF 7
ENDMDL
MODEL 2
REMARK VINA RESULT:      -4.8      3.591      5.171
REMARK  Name = 
REMARK  10 active torsions:
REMARK  status: ('A' for Active; 'I' for Inactive)
REMARK    1  A    between atoms: C_1  and  O_2
REMARK    2  A    between atoms: O_2  and  C_3
REMARK    3  A    between atoms: C_3  and  C_5
REMARK    4  A    between atoms: C_5  and  C_6
REMARK    5  A    between atoms: C_6  and  C_7
REMARK    6  A    between atoms: C_6  and  C_9
REMARK    7  A    between atoms: C_7  and  N_8
REMARK    8  A    between atoms: C_9  and  C_10
REMARK    9  A    between atoms: C_10  and  C_11
REMARK   10  A    between atoms: C_10  and  C_12
REMARK                            x       y       z     vdW  Elec       q    Type
REMARK                         _______ _______ _______ _____ _____    ______ ____
ROOT
ATOM      1  C   UNL     1       5.346   5.743  17.536  0.00  0.00    +0.000 C 
ENDROOT
BRANCH   1   2
ATOM      2  C   UNL     1       6.692   6.227  16.964  0.00  0.00    +0.000 C 
BRANCH   2   3
ATOM      3  C   UNL     1       7.471   5.116  16.299  0.00  0.00    +0.000 C 
ATOM      4  O   UNL     1       8.012   4.192  16.884  0.00  0.00    +0.000 OA
BRANCH   3   6
ATOM      5  C   UNL     1       6.583   4.422  14.231  0.00  0.00    +0.000 C 
ATOM      6  O   UNL     1       7.463   5.291  14.948  0.00  0.00    +0.000 OA
ENDBRANCH   3   6
ENDBRANCH   2   3
ENDBRANCH   1   2
BRANCH   1   7
ATOM      7  C   UNL     1       5.467   5.275  19.009  0.00  0.00    +0.000 C 
BRANCH   7   8
ATOM      8  N   UNL     1       5.736   3.848  19.157  0.00  0.00    +0.000 NA
ATOM      9  H   UNL     1       6.249   3.657  20.015  0.00  0.00    +0.000 HD
ATOM     10  H   UNL     1       6.343   3.543  18.396  0.00  0.00    +0.000 HD
ENDBRANCH   7   8
ENDBRANCH   1   7
BRANCH   1  11
ATOM     11  C   UNL     1       4.244   6.825  17.409  0.00  0.00    +0.000 C 
BRANCH  11  12
ATOM     12  C   UNL     1       3.041   6.702  18.368  0.00  0.00    +0.000 C 
ATOM     13  C   UNL     1       2.178   7.964  18.400  0.00  0.00    +0.000 C 
ATOM     14  C   UNL     1       2.185   5.498  17.960  0.00  0.00    +0.000 C 
ENDBRANCH  11  12
ENDBRANCH   1  11
TORSDOF 7
ENDMDL
MODEL 3
REMARK VINA RESULT:      -4.8      2.748      4.923
REMARK  Name = 
REMARK  10 active torsions:
REMARK  status: ('A' for Active; 'I' for Inactive)
REMARK    1  A    between atoms: C_1  and  O_2
REMARK    2  A    between atoms: O_2  and  C_3
REMARK    3  A    between atoms: C_3  and  C_5
REMARK    4  A    between atoms: C_5  and  C_6
REMARK    5  A    between atoms: C_6  and  C_7
REMARK    6  A    between atoms: C_6  and  C_9
REMARK    7  A    between atoms: C_7  and  N_8
REMARK    8  A    between atoms: C_9  and  C_10
REMARK    9  A    between atoms: C_10  and  C_11
REMARK   10  A    between atoms: C_10  and  C_12
REMARK                            x       y       z     vdW  Elec       q    Type
REMARK                         _______ _______ _______ _____ _____    ______ ____
ROOT
ATOM      1  C   UNL     1       3.930   5.197  18.000  0.00  0.00    +0.000 C 
ENDROOT
BRANCH   1   2
ATOM      2  C   UNL     1       4.288   6.495  17.251  0.00  0.00    +0.000 C 
BRANCH   2   3
ATOM      3  C   UNL     1       5.462   6.319  16.316  0.00  0.00    +0.000 C 
ATOM      4  O   UNL     1       5.545   5.464  15.448  0.00  0.00    +0.000 OA
BRANCH   3   6
ATOM      5  C   UNL     1       7.416   6.876  17.506  0.00  0.00    +0.000 C 
ATOM      6  O   UNL     1       6.405   7.267  16.575  0.00  0.00    +0.000 OA
ENDBRANCH   3   6
ENDBRANCH   2   3
ENDBRANCH   1   2
BRANCH   1   7
ATOM      7  C   UNL     1       4.905   4.904  19.169  0.00  0.00    +0.000 C 
BRANCH   7   8
ATOM      8  N   UNL     1       5.691   3.686  18.994  0.00  0.00    +0.000 NA
ATOM      9  H   UNL     1       6.530   3.704  19.570  0.00  0.00    +0.000 HD
ATOM     10  H   UNL     1       6.017   3.636  18.029  0.00  0.00    +0.000 HD
ENDBRANCH   7   8
ENDBRANCH   1   7
BRANCH   1  11
ATOM     11  C   UNL     1       2.469   5.214  18.515  0.00  0.00    +0.000 C 
BRANCH  11  12
ATOM     12  C   UNL     1       1.622   3.954  18.231  0.00  0.00    +0.000 C 
ATOM     13  C   UNL     1       2.417   2.853  17.530  0.00  0.00    +0.000 C 
ATOM     14  C   UNL     1       1.044   3.421  19.547  0.00  0.00    +0.000 C 
ENDBRANCH  11  12
ENDBRANCH   1  11
TORSDOF 7
ENDMDL
MODEL 4
REMARK VINA RESULT:      -4.8      2.166      3.112
REMARK  Name = 
REMARK  10 active torsions:
REMARK  status: ('A' for Active; 'I' for Inactive)
REMARK    1  A    between atoms: C_1  and  O_2
REMARK    2  A    between atoms: O_2  and  C_3
REMARK    3  A    between atoms: C_3  and  C_5
REMARK    4  A    between atoms: C_5  and  C_6
REMARK    5  A    between atoms: C_6  and  C_7
REMARK    6  A    between atoms: C_6  and  C_9
REMARK    7  A    between atoms: C_7  and  N_8
REMARK    8  A    between atoms: C_9  and  C_10
REMARK    9  A    between atoms: C_10  and  C_11
REMARK   10  A    between atoms: C_10  and  C_12
REMARK                            x       y       z     vdW  Elec       q    Type
REMARK                         _______ _______ _______ _____ _____    ______ ____
ROOT
ATOM      1  C   UNL     1       3.242   4.312  18.387  0.00  0.00    +0.000 C 
ENDROOT
BRANCH   1   2
ATOM      2  C   UNL     1       2.227   3.305  17.815  0.00  0.00    +0.000 C 
BRANCH   2   3
ATOM      3  C   UNL     1       1.409   2.632  18.892  0.00  0.00    +0.000 C 
ATOM      4  O   UNL     1       0.298   2.152  18.732  0.00  0.00    +0.000 OA
BRANCH   3   6
ATOM      5  C   UNL     1       1.315   2.836  21.236  0.00  0.00    +0.000 C 
ATOM      6  O   UNL     1       2.105   2.625  20.064  0.00  0.00    +0.000 OA
ENDBRANCH   3   6
ENDBRANCH   2   3
ENDBRANCH   1   2
BRANCH   1   7
ATOM      7  C   UNL     1       4.703   3.805  18.273  0.00  0.00    +0.000 C 
BRANCH   7   8
ATOM      8  N   UNL     1       5.120   2.946  19.378  0.00  0.00    +0.000 NA
ATOM      9  H   UNL     1       6.101   3.092  19.608  0.00  0.00    +0.000 HD
ATOM     10  H   UNL     1       5.043   1.971  19.089  0.00  0.00    +0.000 HD
ENDBRANCH   7   8
ENDBRANCH   1   7
BRANCH   1  11
ATOM     11  C   UNL     1       3.108   5.705  17.722  0.00  0.00    +0.000 C 
BRANCH  11  12
ATOM     12  C   UNL     1       2.946   6.912  18.672  0.00  0.00    +0.000 C 
ATOM     13  C   UNL     1       2.195   8.076  18.025  0.00  0.00    +0.000 C 
ATOM     14  C   UNL     1       2.217   6.465  19.944  0.00  0.00    +0.000 C 
ENDBRANCH  11  12
ENDBRANCH   1  11
TORSDOF 7
ENDMDL
MODEL 5
REMARK VINA RESULT:      -4.7      2.944      5.003
REMARK  Name = 
REMARK  10 active torsions:
REMARK  status: ('A' for Active; 'I' for Inactive)
REMARK    1  A    between atoms: C_1  and  O_2
REMARK    2  A    between atoms: O_2  and  C_3
REMARK    3  A    between atoms: C_3  and  C_5
REMARK    4  A    between atoms: C_5  and  C_6
REMARK    5  A    between atoms: C_6  and  C_7
REMARK    6  A    between atoms: C_6  and  C_9
REMARK    7  A    between atoms: C_7  and  N_8
REMARK    8  A    between atoms: C_9  and  C_10
REMARK    9  A    between atoms: C_10  and  C_11
REMARK   10  A    between atoms: C_10  and  C_12
REMARK                            x       y       z     vdW  Elec       q    Type
REMARK                         _______ _______ _______ _____ _____    ______ ____
ROOT
ATOM      1  C   UNL     1       3.973   4.737  17.629  0.00  0.00    +0.000 C 
ENDROOT
BRANCH   1   2
ATOM      2  C   UNL     1       4.532   6.172  17.598  0.00  0.00    +0.000 C 
BRANCH   2   3
ATOM      3  C   UNL     1       5.467   6.404  16.434  0.00  0.00    +0.000 C 
ATOM      4  O   UNL     1       5.123   6.770  15.321  0.00  0.00    +0.000 OA
BRANCH   3   6
ATOM      5  C   UNL     1       7.405   7.252  17.467  0.00  0.00    +0.000 C 
ATOM      6  O   UNL     1       6.751   6.160  16.817  0.00  0.00    +0.000 OA
ENDBRANCH   3   6
ENDBRANCH   2   3
ENDBRANCH   1   2
BRANCH   1   7
ATOM      7  C   UNL     1       4.757   3.820  18.603  0.00  0.00    +0.000 C 
BRANCH   7   8
ATOM      8  N   UNL     1       5.879   4.480  19.265  0.00  0.00    +0.000 NA
ATOM      9  H   UNL     1       6.534   3.800  19.644  0.00  0.00    +0.000 HD
ATOM     10  H   UNL     1       5.529   5.007  20.065  0.00  0.00    +0.000 HD
ENDBRANCH   7   8
ENDBRANCH   1   7
BRANCH   1  11
ATOM     11  C   UNL     1       2.463   4.715  17.976  0.00  0.00    +0.000 C 
BRANCH  11  12
ATOM     12  C   UNL     1       2.033   3.787  19.133  0.00  0.00    +0.000 C 
ATOM     13  C   UNL     1       1.411   4.551  20.303  0.00  0.00    +0.000 C 
ATOM     14  C   UNL     1       1.042   2.743  18.608  0.00  0.00    +0.000 C 
ENDBRANCH  11  12
ENDBRANCH   1  11
TORSDOF 7
ENDMDL
MODEL 6
REMARK VINA RESULT:      -4.7      3.548      5.470
REMARK  Name = 
REMARK  10 active torsions:
REMARK  status: ('A' for Active; 'I' for Inactive)
REMARK    1  A    between atoms: C_1  and  O_2
REMARK    2  A    between atoms: O_2  and  C_3
REMARK    3  A    between atoms: C_3  and  C_5
REMARK    4  A    between atoms: C_5  and  C_6
REMARK    5  A    between atoms: C_6  and  C_7
REMARK    6  A    between atoms: C_6  and  C_9
REMARK    7  A    between atoms: C_7  and  N_8
REMARK    8  A    between atoms: C_9  and  C_10
REMARK    9  A    between atoms: C_10  and  C_11
REMARK   10  A    between atoms: C_10  and  C_12
REMARK                            x       y       z     vdW  Elec       q    Type
REMARK                         _______ _______ _______ _____ _____    ______ ____
ROOT
ATOM      1  C   UNL     1       5.966   5.210  16.823  0.00  0.00    +0.000 C 
ENDROOT
BRANCH   1   2
ATOM      2  C   UNL     1       5.473   5.012  15.377  0.00  0.00    +0.000 C 
BRANCH   2   3
ATOM      3  C   UNL     1       6.598   4.691  14.421  0.00  0.00    +0.000 C 
ATOM      4  O   UNL     1       7.633   5.330  14.316  0.00  0.00    +0.000 OA
BRANCH   3   6
ATOM      5  C   UNL     1       6.546   3.662  12.303  0.00  0.00    +0.000 C 
ATOM      6  O   UNL     1       6.292   3.572  13.707  0.00  0.00    +0.000 OA
ENDBRANCH   3   6
ENDBRANCH   2   3
ENDBRANCH   1   2
BRANCH   1   7
ATOM      7  C   UNL     1       6.128   6.708  17.191  0.00  0.00    +0.000 C 
BRANCH   7   8
ATOM      8  N   UNL     1       7.459   7.243  16.920  0.00  0.00    +0.000 NA
ATOM      9  H   UNL     1       8.080   6.521  16.561  0.00  0.00    +0.000 HD
ATOM     10  H   UNL     1       7.876   7.557  17.797  0.00  0.00    +0.000 HD
ENDBRANCH   7   8
ENDBRANCH   1   7
BRANCH   1  11
ATOM     11  C   UNL     1       5.041   4.506  17.847  0.00  0.00    +0.000 C 
BRANCH  11  12
ATOM     12  C   UNL     1       3.677   4.009  17.320  0.00  0.00    +0.000 C 
ATOM     13  C   UNL     1       3.403   2.548  17.676  0.00  0.00    +0.000 C 
ATOM     14  C   UNL     1       2.560   4.899  17.876  0.00  0.00    +0.000 C 
ENDBRANCH  11  12
ENDBRANCH   1  11
TORSDOF 7
ENDMDL
MODEL 7
REMARK VINA RESULT:      -4.7      1.009      1.544
REMARK  Name = 
REMARK  10 active torsions:
REMARK  status: ('A' for Active; 'I' for Inactive)
REMARK    1  A    between atoms: C_1  and  O_2
REMARK    2  A    between atoms: O_2  and  C_3
REMARK    3  A    between atoms: C_3  and  C_5
REMARK    4  A    between atoms: C_5  and  C_6
REMARK    5  A    between atoms: C_6  and  C_7
REMARK    6  A    between atoms: C_6  and  C_9
REMARK    7  A    between atoms: C_7  and  N_8
REMARK    8  A    between atoms: C_9  and  C_10
REMARK    9  A    between atoms: C_10  and  C_11
REMARK   10  A    between atoms: C_10  and  C_12
REMARK                            x       y       z     vdW  Elec       q    Type
REMARK                         _______ _______ _______ _____ _____    ______ ____
ROOT
ATOM      1  C   UNL     1       3.731   4.555  17.678  0.00  0.00    +0.000 C 
ENDROOT
BRANCH   1   2
ATOM      2  C   UNL     1       2.262   4.108  17.554  0.00  0.00    +0.000 C 
BRANCH   2   3
ATOM      3  C   UNL     1       2.015   2.753  18.174  0.00  0.00    +0.000 C 
ATOM      4  O   UNL     1       2.751   1.785  18.059  0.00  0.00    +0.000 OA
BRANCH   3   6
ATOM      5  C   UNL     1       0.956   3.409  20.172  0.00  0.00    +0.000 C 
ATOM      6  O   UNL     1       0.859   2.778  18.894  0.00  0.00    +0.000 OA
ENDBRANCH   3   6
ENDBRANCH   2   3
ENDBRANCH   1   2
BRANCH   1   7
ATOM      7  C   UNL     1       4.293   4.340  19.107  0.00  0.00    +0.000 C 
BRANCH   7   8
ATOM      8  N   UNL     1       5.319   3.304  19.191  0.00  0.00    +0.000 NA
ATOM      9  H   UNL     1       5.268   2.672  18.395  0.00  0.00    +0.000 HD
ATOM     10  H   UNL     1       5.145   2.729  20.015  0.00  0.00    +0.000 HD
ENDBRANCH   7   8
ENDBRANCH   1   7
BRANCH   1  11
ATOM     11  C   UNL     1       4.637   3.850  16.637  0.00  0.00    +0.000 C 
BRANCH  11  12
ATOM     12  C   UNL     1       5.612   4.751  15.848  0.00  0.00    +0.000 C 
ATOM     13  C   UNL     1       5.731   4.347  14.378  0.00  0.00    +0.000 C 
ATOM     14  C   UNL     1       5.156   6.210  15.951  0.00  0.00    +0.000 C 
ENDBRANCH  11  12
ENDBRANCH   1  11
TORSDOF 7
ENDMDL
MODEL 8
REMARK VINA RESULT:      -4.6      2.720      4.895
REMARK  Name = 
REMARK  10 active torsions:
REMARK  status: ('A' for Active; 'I' for Inactive)
REMARK    1  A    between atoms: C_1  and  O_2
REMARK    2  A    between atoms: O_2  and  C_3
REMARK    3  A    between atoms: C_3  and  C_5
REMARK    4  A    between atoms: C_5  and  C_6
REMARK    5  A    between atoms: C_6  and  C_7
REMARK    6  A    between atoms: C_6  and  C_9
REMARK    7  A    between atoms: C_7  and  N_8
REMARK    8  A    between atoms: C_9  and  C_10
REMARK    9  A    between atoms: C_10  and  C_11
REMARK   10  A    between atoms: C_10  and  C_12
REMARK                            x       y       z     vdW  Elec       q    Type
REMARK                         _______ _______ _______ _____ _____    ______ ____
ROOT
ATOM      1  C   UNL     1       3.946   5.307  17.937  0.00  0.00    +0.000 C 
ENDROOT
BRANCH   1   2
ATOM      2  C   UNL     1       4.470   6.591  17.265  0.00  0.00    +0.000 C 
BRANCH   2   3
ATOM      3  C   UNL     1       5.763   6.366  16.517  0.00  0.00    +0.000 C 
ATOM      4  O   UNL     1       6.873   6.352  17.025  0.00  0.00    +0.000 OA
BRANCH   3   6
ATOM      5  C   UNL     1       5.711   4.825  14.738  0.00  0.00    +0.000 C 
ATOM      6  O   UNL     1       5.503   6.163  15.195  0.00  0.00    +0.000 OA
ENDBRANCH   3   6
ENDBRANCH   2   3
ENDBRANCH   1   2
BRANCH   1   7
ATOM      7  C   UNL     1       4.731   4.956  19.228  0.00  0.00    +0.000 C 
BRANCH   7   8
ATOM      8  N   UNL     1       5.771   3.950  19.034  0.00  0.00    +0.000 NA
ATOM      9  H   UNL     1       6.655   4.252  19.438  0.00  0.00    +0.000 HD
ATOM     10  H   UNL     1       5.945   3.839  18.035  0.00  0.00    +0.000 HD
ENDBRANCH   7   8
ENDBRANCH   1   7
BRANCH   1  11
ATOM     11  C   UNL     1       2.430   5.395  18.243  0.00  0.00    +0.000 C 
BRANCH  11  12
ATOM     12  C   UNL     1       1.618   4.090  18.090  0.00  0.00    +0.000 C 
ATOM     13  C   UNL     1       2.402   2.985  17.382  0.00  0.00    +0.000 C 
ATOM     14  C   UNL     1       1.169   3.604  19.473  0.00  0.00    +0.000 C 
ENDBRANCH  11  12
ENDBRANCH   1  11
TORSDOF 7
ENDMDL
MODEL 9
REMARK VINA RESULT:      -4.6      2.622      3.683
REMARK  Name = 
REMARK  10 active torsions:
REMARK  status: ('A' for Active; 'I' for Inactive)
REMARK    1  A    between atoms: C_1  and  O_2
REMARK    2  A    between atoms: O_2  and  C_3
REMARK    3  A    between atoms: C_3  and  C_5
REMARK    4  A    between atoms: C_5  and  C_6
REMARK    5  A    between atoms: C_6  and  C_7
REMARK    6  A    between atoms: C_6  and  C_9
REMARK    7  A    between atoms: C_7  and  N_8
REMARK    8  A    between atoms: C_9  and  C_10
REMARK    9  A    between atoms: C_10  and  C_11
REMARK   10  A    between atoms: C_10  and  C_12
REMARK                            x       y       z     vdW  Elec       q    Type
REMARK                         _______ _______ _______ _____ _____    ______ ____
ROOT
ATOM      1  C   UNL     1       4.703   4.721  19.036  0.00  0.00    +0.000 C 
ENDROOT
BRANCH   1   2
ATOM      2  C   UNL     1       4.575   3.216  18.731  0.00  0.00    +0.000 C 
BRANCH   2   3
ATOM      3  C   UNL     1       4.256   2.401  19.963  0.00  0.00    +0.000 C 
ATOM      4  O   UNL     1       5.081   1.840  20.666  0.00  0.00    +0.000 OA
BRANCH   3   6
ATOM      5  C   UNL     1       2.514   2.767  21.504  0.00  0.00    +0.000 C 
ATOM      6  O   UNL     1       2.911   2.402  20.181  0.00  0.00    +0.000 OA
ENDBRANCH   3   6
ENDBRANCH   2   3
ENDBRANCH   1   2
BRANCH   1   7
ATOM      7  C   UNL     1       6.181   5.182  19.118  0.00  0.00    +0.000 C 
BRANCH   7   8
ATOM      8  N   UNL     1       7.103   4.356  18.343  0.00  0.00    +0.000 NA
ATOM      9  H   UNL     1       6.736   4.171  17.412  0.00  0.00    +0.000 HD
ATOM     10  H   UNL     1       7.193   3.445  18.793  0.00  0.00    +0.000 HD
ENDBRANCH   7   8
ENDBRANCH   1   7
BRANCH   1  11
ATOM     11  C   UNL     1       3.931   5.584  18.007  0.00  0.00    +0.000 C 
BRANCH  11  12
ATOM     12  C   UNL     1       2.429   5.812  18.285  0.00  0.00    +0.000 C 
ATOM     13  C   UNL     1       1.556   4.654  17.801  0.00  0.00    +0.000 C 
ATOM     14  C   UNL     1       2.216   6.033  19.786  0.00  0.00    +0.000 C 
ENDBRANCH  11  12
ENDBRANCH   1  11
TORSDOF 7
ENDMDL
