MODEL 1
REMARK VINA RESULT:      -8.7      0.000      0.000
REMARK  Name = 
REMARK  7 active torsions:
REMARK  status: ('A' for Active; 'I' for Inactive)
REMARK    1  A    between atoms: C_4  and  N_5
REMARK    2  A    between atoms: N_5  and  C_6
REMARK    3  A    between atoms: N_9  and  C_10
REMARK    4  A    between atoms: C_10  and  C_11
REMARK    5  A    between atoms: C_11  and  C_12
REMARK    6  A    between atoms: C_20  and  C_21
REMARK    7  A    between atoms: C_24  and  C_25
REMARK                            x       y       z     vdW  Elec       q    Type
REMARK                         _______ _______ _______ _____ _____    ______ ____
ROOT
ATOM      1  C   UNL     1       6.117   5.347  16.461  0.00  0.00    +0.000 A 
ATOM      2  N   UNL     1       7.113   6.261  16.407  0.00  0.00    +0.000 NA
ATOM      3  C   UNL     1       7.046   7.347  17.176  0.00  0.00    +0.000 A 
ATOM      4  N   UNL     1       8.189   8.126  17.238  0.00  0.00    +0.000 N 
ATOM      5  N   UNL     1       5.982   7.650  17.922  0.00  0.00    +0.000 NA
ATOM      6  C   UNL     1       4.957   6.777  17.897  0.00  0.00    +0.000 A 
ATOM      7  C   UNL     1       4.964   5.584  17.202  0.00  0.00    +0.000 A 
ATOM      8  H   UNL     1       8.340   8.531  16.322  0.00  0.00    +0.000 HD
ENDROOT
BRANCH   7   9
ATOM      9  C   UNL     1       3.875   4.639  17.333  0.00  0.00    +0.000 A 
ATOM     10  N   UNL     1       3.589   3.568  16.622  0.00  0.00    +0.000 NA
ATOM     11  N   UNL     1       2.502   2.973  17.229  0.00  0.00    +0.000 NA
ATOM     12  C   UNL     1       2.198   3.718  18.272  0.00  0.00    +0.000 A 
ATOM     13  O   UNL     1       3.028   4.800  18.399  0.00  0.00    +0.000 OA
BRANCH  12  14
ATOM     14  C   UNL     1       1.058   3.399  19.222  0.00  0.00    +0.000 C 
ATOM     15  C   UNL     1       1.369   2.716  20.539  0.00  0.00    +0.000 C 
ATOM     16  C   UNL     1       0.984   4.154  20.533  0.00  0.00    +0.000 C 
ENDBRANCH  12  14
ENDBRANCH   7   9
BRANCH   1  17
ATOM     17  N   UNL     1       6.262   4.173  15.674  0.00  0.00    +0.000 N 
ATOM     18  H   UNL     1       6.965   3.548  16.075  0.00  0.00    +0.000 HD
BRANCH  17  22
ATOM     19  C   UNL     1       6.849   3.958  11.489  0.00  0.00    +0.000 A 
ATOM     20  C   UNL     1       7.641   4.814  12.249  0.00  0.00    +0.000 A 
ATOM     21  C   UNL     1       7.441   4.909  13.628  0.00  0.00    +0.000 A 
ATOM     22  C   UNL     1       6.435   4.167  14.264  0.00  0.00    +0.000 A 
ATOM     23  C   UNL     1       5.672   3.282  13.492  0.00  0.00    +0.000 A 
ATOM     24  C   UNL     1       5.867   3.190  12.110  0.00  0.00    +0.000 A 
ENDBRANCH  17  22
ENDBRANCH   1  17
BRANCH   4  25
ATOM     25  C   UNL     1       8.305   9.026  18.372  0.00  0.00    +0.000 C 
BRANCH  25  26
ATOM     26  C   UNL     1       8.601  10.452  17.872  0.00  0.00    +0.000 C 
BRANCH  26  27
ATOM     27  C   UNL     1       9.759  11.099  18.580  0.00  0.00    +0.000 A 
ATOM     28  C   UNL     1      10.849  11.591  17.857  0.00  0.00    +0.000 A 
ATOM     29  C   UNL     1      11.880  12.200  18.551  0.00  0.00    +0.000 A 
ATOM     30  N   UNL     1      11.904  12.342  19.892  0.00  0.00    +0.000 NA
ATOM     31  C   UNL     1      10.841  11.856  20.570  0.00  0.00    +0.000 A 
ATOM     32  C   UNL     1       9.761  11.233  19.970  0.00  0.00    +0.000 A 
ENDBRANCH  26  27
ENDBRANCH  25  26
ENDBRANCH   4  25
TORSDOF 7
ENDMDL
MODEL 2
REMARK VINA RESULT:      -8.7      0.107      1.232
REMARK  Name = 
REMARK  7 active torsions:
REMARK  status: ('A' for Active; 'I' for Inactive)
REMARK    1  A    between atoms: C_4  and  N_5
REMARK    2  A    between atoms: N_5  and  C_6
REMARK    3  A    between atoms: N_9  and  C_10
REMARK    4  A    between atoms: C_10  and  C_11
REMARK    5  A    between atoms: C_11  and  C_12
REMARK    6  A    between atoms: C_20  and  C_21
REMARK    7  A    between atoms: C_24  and  C_25
REMARK                            x       y       z     vdW  Elec       q    Type
REMARK                         _______ _______ _______ _____ _____    ______ ____
ROOT
ATOM      1  C   UNL     1       6.085   5.269  16.470  0.00  0.00    +0.000 A 
ATOM      2  N   UNL     1       7.092   6.171  16.410  0.00  0.00    +0.000 NA
ATOM      3  C   UNL     1       7.026   7.274  17.154  0.00  0.00    +0.000 A 
ATOM      4  N   UNL     1       8.177   8.042  17.214  0.00  0.00    +0.000 N 
ATOM      5  N   UNL     1       5.956   7.604  17.878  0.00  0.00    +0.000 NA
ATOM      6  C   UNL     1       4.922   6.742  17.859  0.00  0.00    +0.000 A 
ATOM      7  C   UNL     1       4.925   5.534  17.190  0.00  0.00    +0.000 A 
ATOM      8  H   UNL     1       8.345   8.425  16.291  0.00  0.00    +0.000 HD
ENDROOT
BRANCH   7   9
ATOM      9  C   UNL     1       3.824   4.605  17.326  0.00  0.00    +0.000 A 
ATOM     10  N   UNL     1       3.507   3.550  16.603  0.00  0.00    +0.000 NA
ATOM     11  N   UNL     1       2.423   2.962  17.222  0.00  0.00    +0.000 NA
ATOM     12  C   UNL     1       2.152   3.692  18.283  0.00  0.00    +0.000 A 
ATOM     13  O   UNL     1       3.002   4.760  18.412  0.00  0.00    +0.000 OA
BRANCH  12  14
ATOM     14  C   UNL     1       1.026   3.374  19.250  0.00  0.00    +0.000 C 
ATOM     15  C   UNL     1       1.359   2.707  20.570  0.00  0.00    +0.000 C 
ATOM     16  C   UNL     1       0.963   4.142  20.555  0.00  0.00    +0.000 C 
ENDBRANCH  12  14
ENDBRANCH   7   9
BRANCH   1  17
ATOM     17  N   UNL     1       6.228   4.076  15.711  0.00  0.00    +0.000 N 
ATOM     18  H   UNL     1       6.876   3.429  16.164  0.00  0.00    +0.000 HD
BRANCH  17  22
ATOM     19  C   UNL     1       6.932   4.165  11.539  0.00  0.00    +0.000 A 
ATOM     20  C   UNL     1       5.939   3.333  12.049  0.00  0.00    +0.000 A 
ATOM     21  C   UNL     1       5.714   3.279  13.426  0.00  0.00    +0.000 A 
ATOM     22  C   UNL     1       6.488   4.039  14.314  0.00  0.00    +0.000 A 
ATOM     23  C   UNL     1       7.456   4.901  13.783  0.00  0.00    +0.000 A 
ATOM     24  C   UNL     1       7.688   4.952  12.405  0.00  0.00    +0.000 A 
ENDBRANCH  17  22
ENDBRANCH   1  17
BRANCH   4  25
ATOM     25  C   UNL     1       8.288   8.966  18.330  0.00  0.00    +0.000 C 
BRANCH  25  26
ATOM     26  C   UNL     1       8.593  10.379  17.802  0.00  0.00    +0.000 C 
BRANCH  26  27
ATOM     27  C   UNL     1       9.705  11.063  18.549  0.00  0.00    +0.000 A 
ATOM     28  C   UNL     1       9.651  11.197  19.939  0.00  0.00    +0.000 A 
ATOM     29  C   UNL     1      10.709  11.813  20.584  0.00  0.00    +0.000 A 
ATOM     30  N   UNL     1      11.794  12.302  19.950  0.00  0.00    +0.000 NA
ATOM     31  C   UNL     1      11.823  12.165  18.607  0.00  0.00    +0.000 A 
ATOM     32  C   UNL     1      10.817  11.564  17.869  0.00  0.00    +0.000 A 
ENDBRANCH  26  27
ENDBRANCH  25  26
ENDBRANCH   4  25
TORSDOF 7
ENDMDL
MODEL 3
REMARK VINA RESULT:      -8.7      0.683      1.097
REMARK  Name = 
REMARK  7 active torsions:
REMARK  status: ('A' for Active; 'I' for Inactive)
REMARK    1  A    between atoms: C_4  and  N_5
REMARK    2  A    between atoms: N_5  and  C_6
REMARK    3  A    between atoms: N_9  and  C_10
REMARK    4  A    between atoms: C_10  and  C_11
REMARK    5  A    between atoms: C_11  and  C_12
REMARK    6  A    between atoms: C_20  and  C_21
REMARK    7  A    between atoms: C_24  and  C_25
REMARK                            x       y       z     vdW  Elec       q    Type
REMARK                         _______ _______ _______ _____ _____    ______ ____
ROOT
ATOM      1  C   UNL     1       5.958   4.917  16.466  0.00  0.00    +0.000 A 
ATOM      2  N   UNL     1       6.801   5.958  16.276  0.00  0.00    +0.000 NA
ATOM      3  C   UNL     1       6.851   6.932  17.183  0.00  0.00    +0.000 A 
ATOM      4  N   UNL     1       7.880   7.847  17.043  0.00  0.00    +0.000 N 
ATOM      5  N   UNL     1       6.023   7.002  18.227  0.00  0.00    +0.000 NA
ATOM      6  C   UNL     1       5.127   6.006  18.357  0.00  0.00    +0.000 A 
ATOM      7  C   UNL     1       5.051   4.910  17.521  0.00  0.00    +0.000 A 
ATOM      8  H   UNL     1       7.720   8.369  16.189  0.00  0.00    +0.000 HD
ENDROOT
BRANCH   7   9
ATOM      9  C   UNL     1       4.145   3.817  17.805  0.00  0.00    +0.000 A 
ATOM     10  N   UNL     1       4.132   2.582  17.348  0.00  0.00    +0.000 NA
ATOM     11  N   UNL     1       3.117   1.927  18.014  0.00  0.00    +0.000 NA
ATOM     12  C   UNL     1       2.578   2.805  18.836  0.00  0.00    +0.000 A 
ATOM     13  O   UNL     1       3.180   4.033  18.755  0.00  0.00    +0.000 OA
BRANCH  12  14
ATOM     14  C   UNL     1       1.425   2.477  19.767  0.00  0.00    +0.000 C 
ATOM     15  C   UNL     1       1.630   2.610  21.263  0.00  0.00    +0.000 C 
ATOM     16  C   UNL     1       0.790   3.610  20.548  0.00  0.00    +0.000 C 
ENDBRANCH  12  14
ENDBRANCH   7   9
BRANCH   1  17
ATOM     17  N   UNL     1       5.985   3.868  15.507  0.00  0.00    +0.000 N 
ATOM     18  H   UNL     1       6.510   3.064  15.858  0.00  0.00    +0.000 HD
BRANCH  17  22
ATOM     19  C   UNL     1       7.077   4.186  11.431  0.00  0.00    +0.000 A 
ATOM     20  C   UNL     1       7.730   4.969  12.379  0.00  0.00    +0.000 A 
ATOM     21  C   UNL     1       7.362   4.888  13.724  0.00  0.00    +0.000 A 
ATOM     22  C   UNL     1       6.325   4.041  14.138  0.00  0.00    +0.000 A 
ATOM     23  C   UNL     1       5.704   3.231  13.180  0.00  0.00    +0.000 A 
ATOM     24  C   UNL     1       6.066   3.315  11.832  0.00  0.00    +0.000 A 
ENDBRANCH  17  22
ENDBRANCH   1  17
BRANCH   4  25
ATOM     25  C   UNL     1       8.230   8.623  18.221  0.00  0.00    +0.000 C 
BRANCH  25  26
ATOM     26  C   UNL     1       8.336  10.112  17.846  0.00  0.00    +0.000 C 
BRANCH  26  27
ATOM     27  C   UNL     1       9.438  10.829  18.576  0.00  0.00    +0.000 A 
ATOM     28  C   UNL     1       9.415  10.936  19.969  0.00  0.00    +0.000 A 
ATOM     29  C   UNL     1      10.463  11.585  20.598  0.00  0.00    +0.000 A 
ATOM     30  N   UNL     1      11.510  12.132  19.946  0.00  0.00    +0.000 NA
ATOM     31  C   UNL     1      11.509  12.019  18.600  0.00  0.00    +0.000 A 
ATOM     32  C   UNL     1      10.510  11.389  17.877  0.00  0.00    +0.000 A 
ENDBRANCH  26  27
ENDBRANCH  25  26
ENDBRANCH   4  25
TORSDOF 7
ENDMDL
MODEL 4
REMARK VINA RESULT:      -8.7      6.352      9.392
REMARK  Name = 
REMARK  7 active torsions:
REMARK  status: ('A' for Active; 'I' for Inactive)
REMARK    1  A    between atoms: C_4  and  N_5
REMARK    2  A    between atoms: N_5  and  C_6
REMARK    3  A    between atoms: N_9  and  C_10
REMARK    4  A    between atoms: C_10  and  C_11
REMARK    5  A    between atoms: C_11  and  C_12
REMARK    6  A    between atoms: C_20  and  C_21
REMARK    7  A    between atoms: C_24  and  C_25
REMARK                            x       y       z     vdW  Elec       q    Type
REMARK                         _______ _______ _______ _____ _____    ______ ____
ROOT
ATOM      1  C   UNL     1       0.902   9.582  19.378  0.00  0.00    +0.000 A 
ATOM      2  N   UNL     1       1.648   8.810  18.554  0.00  0.00    +0.000 NA
ATOM      3  C   UNL     1       2.197   7.693  19.026  0.00  0.00    +0.000 A 
ATOM      4  N   UNL     1       2.758   6.842  18.089  0.00  0.00    +0.000 N 
ATOM      5  N   UNL     1       2.154   7.343  20.313  0.00  0.00    +0.000 NA
ATOM      6  C   UNL     1       1.485   8.167  21.141  0.00  0.00    +0.000 A 
ATOM      7  C   UNL     1       0.810   9.301  20.737  0.00  0.00    +0.000 A 
ATOM      8  H   UNL     1       3.560   7.310  17.682  0.00  0.00    +0.000 HD
ENDROOT
BRANCH   7   9
ATOM      9  C   UNL     1       0.006  10.062  21.670  0.00  0.00    +0.000 A 
ATOM     10  N   UNL     1      -0.675   9.666  22.726  0.00  0.00    +0.000 NA
ATOM     11  N   UNL     1      -1.179  10.806  23.318  0.00  0.00    +0.000 NA
ATOM     12  C   UNL     1      -0.771  11.823  22.587  0.00  0.00    +0.000 A 
ATOM     13  O   UNL     1      -0.014  11.424  21.517  0.00  0.00    +0.000 OA
BRANCH  12  14
ATOM     14  C   UNL     1      -1.104  13.269  22.907  0.00  0.00    +0.000 C 
ATOM     15  C   UNL     1      -2.107  14.001  22.038  0.00  0.00    +0.000 C 
ATOM     16  C   UNL     1      -2.495  13.589  23.415  0.00  0.00    +0.000 C 
ENDBRANCH  12  14
ENDBRANCH   7   9
BRANCH   1  17
ATOM     17  N   UNL     1       0.280  10.729  18.816  0.00  0.00    +0.000 N 
ATOM     18  H   UNL     1       0.393  11.543  19.424  0.00  0.00    +0.000 HD
BRANCH  17  22
ATOM     19  C   UNL     1      -3.737  10.731  17.482  0.00  0.00    +0.000 A 
ATOM     20  C   UNL     1      -2.830   9.834  16.925  0.00  0.00    +0.000 A 
ATOM     21  C   UNL     1      -1.497   9.840  17.342  0.00  0.00    +0.000 A 
ATOM     22  C   UNL     1      -1.046  10.754  18.305  0.00  0.00    +0.000 A 
ATOM     23  C   UNL     1      -1.978  11.624  18.884  0.00  0.00    +0.000 A 
ATOM     24  C   UNL     1      -3.312  11.624  18.464  0.00  0.00    +0.000 A 
ENDBRANCH  17  22
ENDBRANCH   1  17
BRANCH   4  25
ATOM     25  C   UNL     1       2.952   5.460  18.493  0.00  0.00    +0.000 C 
BRANCH  25  26
ATOM     26  C   UNL     1       3.376   4.620  17.276  0.00  0.00    +0.000 C 
BRANCH  26  27
ATOM     27  C   UNL     1       4.858   4.654  17.020  0.00  0.00    +0.000 A 
ATOM     28  C   UNL     1       5.762   4.691  18.085  0.00  0.00    +0.000 A 
ATOM     29  C   UNL     1       7.117   4.698  17.801  0.00  0.00    +0.000 A 
ATOM     30  N   UNL     1       7.623   4.679  16.551  0.00  0.00    +0.000 NA
ATOM     31  C   UNL     1       6.730   4.645  15.537  0.00  0.00    +0.000 A 
ATOM     32  C   UNL     1       5.358   4.635  15.716  0.00  0.00    +0.000 A 
ENDBRANCH  26  27
ENDBRANCH  25  26
ENDBRANCH   4  25
TORSDOF 7
ENDMDL
MODEL 5
REMARK VINA RESULT:      -8.6      4.943      8.980
REMARK  Name = 
REMARK  7 active torsions:
REMARK  status: ('A' for Active; 'I' for Inactive)
REMARK    1  A    between atoms: C_4  and  N_5
REMARK    2  A    between atoms: N_5  and  C_6
REMARK    3  A    between atoms: N_9  and  C_10
REMARK    4  A    between atoms: C_10  and  C_11
REMARK    5  A    between atoms: C_11  and  C_12
REMARK    6  A    between atoms: C_20  and  C_21
REMARK    7  A    between atoms: C_24  and  C_25
REMARK                            x       y       z     vdW  Elec       q    Type
REMARK                         _______ _______ _______ _____ _____    ______ ____
ROOT
ATOM      1  C   UNL     1       2.799   6.998  19.374  0.00  0.00    +0.000 A 
ATOM      2  N   UNL     1       1.869   7.862  19.844  0.00  0.00    +0.000 NA
ATOM      3  C   UNL     1       1.547   8.932  19.121  0.00  0.00    +0.000 A 
ATOM      4  N   UNL     1       0.444   9.651  19.548  0.00  0.00    +0.000 N 
ATOM      5  N   UNL     1       2.180   9.272  17.996  0.00  0.00    +0.000 NA
ATOM      6  C   UNL     1       3.165   8.453  17.585  0.00  0.00    +0.000 A 
ATOM      7  C   UNL     1       3.517   7.276  18.216  0.00  0.00    +0.000 A 
ATOM      8  H   UNL     1       0.670  10.068  20.443  0.00  0.00    +0.000 HD
ENDROOT
BRANCH   7   9
ATOM      9  C   UNL     1       4.500   6.386  17.637  0.00  0.00    +0.000 A 
ATOM     10  N   UNL     1       5.219   5.433  18.195  0.00  0.00    +0.000 NA
ATOM     11  N   UNL     1       5.925   4.826  17.177  0.00  0.00    +0.000 NA
ATOM     12  C   UNL     1       5.589   5.445  16.064  0.00  0.00    +0.000 A 
ATOM     13  O   UNL     1       4.688   6.454  16.280  0.00  0.00    +0.000 OA
BRANCH  12  14
ATOM     14  C   UNL     1       6.142   5.070  14.701  0.00  0.00    +0.000 C 
ATOM     15  C   UNL     1       6.288   3.603  14.347  0.00  0.00    +0.000 C 
ATOM     16  C   UNL     1       5.210   4.407  13.707  0.00  0.00    +0.000 C 
ENDBRANCH  12  14
ENDBRANCH   7   9
BRANCH   1  17
ATOM     17  N   UNL     1       3.063   5.835  20.147  0.00  0.00    +0.000 N 
ATOM     18  H   UNL     1       4.046   5.563  20.076  0.00  0.00    +0.000 HD
BRANCH  17  22
ATOM     19  C   UNL     1       0.915   2.190  20.072  0.00  0.00    +0.000 A 
ATOM     20  C   UNL     1       1.150   2.872  18.881  0.00  0.00    +0.000 A 
ATOM     21  C   UNL     1       1.838   4.087  18.897  0.00  0.00    +0.000 A 
ATOM     22  C   UNL     1       2.284   4.648  20.103  0.00  0.00    +0.000 A 
ATOM     23  C   UNL     1       2.074   3.932  21.287  0.00  0.00    +0.000 A 
ATOM     24  C   UNL     1       1.379   2.718  21.275  0.00  0.00    +0.000 A 
ENDBRANCH  17  22
ENDBRANCH   1  17
BRANCH   4  25
ATOM     25  C   UNL     1      -0.189  10.520  18.570  0.00  0.00    +0.000 C 
BRANCH  25  26
ATOM     26  C   UNL     1      -1.698  10.611  18.859  0.00  0.00    +0.000 C 
BRANCH  26  27
ATOM     27  C   UNL     1      -2.538  10.653  17.613  0.00  0.00    +0.000 A 
ATOM     28  C   UNL     1      -2.142   9.960  16.466  0.00  0.00    +0.000 A 
ATOM     29  C   UNL     1      -2.960  10.009  15.350  0.00  0.00    +0.000 A 
ATOM     30  N   UNL     1      -4.120  10.696  15.297  0.00  0.00    +0.000 NA
ATOM     31  C   UNL     1      -4.481  11.361  16.417  0.00  0.00    +0.000 A 
ATOM     32  C   UNL     1      -3.734  11.373  17.583  0.00  0.00    +0.000 A 
ENDBRANCH  26  27
ENDBRANCH  25  26
ENDBRANCH   4  25
TORSDOF 7
ENDMDL
MODEL 6
REMARK VINA RESULT:      -8.6      5.155      9.021
REMARK  Name = 
REMARK  7 active torsions:
REMARK  status: ('A' for Active; 'I' for Inactive)
REMARK    1  A    between atoms: C_4  and  N_5
REMARK    2  A    between atoms: N_5  and  C_6
REMARK    3  A    between atoms: N_9  and  C_10
REMARK    4  A    between atoms: C_10  and  C_11
REMARK    5  A    between atoms: C_11  and  C_12
REMARK    6  A    between atoms: C_20  and  C_21
REMARK    7  A    between atoms: C_24  and  C_25
REMARK                            x       y       z     vdW  Elec       q    Type
REMARK                         _______ _______ _______ _____ _____    ______ ____
ROOT
ATOM      1  C   UNL     1       2.790   6.997  19.395  0.00  0.00    +0.000 A 
ATOM      2  N   UNL     1       1.829   7.897  19.707  0.00  0.00    +0.000 NA
ATOM      3  C   UNL     1       1.528   8.860  18.838  0.00  0.00    +0.000 A 
ATOM      4  N   UNL     1       0.398   9.608  19.119  0.00  0.00    +0.000 N 
ATOM      5  N   UNL     1       2.208   9.063  17.707  0.00  0.00    +0.000 NA
ATOM      6  C   UNL     1       3.220   8.214  17.450  0.00  0.00    +0.000 A 
ATOM      7  C   UNL     1       3.557   7.136  18.243  0.00  0.00    +0.000 A 
ATOM      8  H   UNL     1       0.578  10.141  19.961  0.00  0.00    +0.000 HD
ENDROOT
BRANCH   7   9
ATOM      9  C   UNL     1       4.576   6.195  17.828  0.00  0.00    +0.000 A 
ATOM     10  N   UNL     1       5.598   5.700  18.495  0.00  0.00    +0.000 NA
ATOM     11  N   UNL     1       6.195   4.772  17.666  0.00  0.00    +0.000 NA
ATOM     12  C   UNL     1       5.498   4.760  16.549  0.00  0.00    +0.000 A 
ATOM     13  O   UNL     1       4.452   5.645  16.579  0.00  0.00    +0.000 OA
BRANCH  12  14
ATOM     14  C   UNL     1       5.822   3.859  15.372  0.00  0.00    +0.000 C 
ATOM     15  C   UNL     1       5.436   4.307  13.976  0.00  0.00    +0.000 C 
ATOM     16  C   UNL     1       6.869   4.324  14.380  0.00  0.00    +0.000 C 
ENDBRANCH  12  14
ENDBRANCH   7   9
BRANCH   1  17
ATOM     17  N   UNL     1       3.032   5.948  20.323  0.00  0.00    +0.000 N 
ATOM     18  H   UNL     1       4.035   5.791  20.445  0.00  0.00    +0.000 HD
BRANCH  17  22
ATOM     19  C   UNL     1       0.962   2.261  20.160  0.00  0.00    +0.000 A 
ATOM     20  C   UNL     1       1.485   2.700  21.373  0.00  0.00    +0.000 A 
ATOM     21  C   UNL     1       2.189   3.905  21.433  0.00  0.00    +0.000 A 
ATOM     22  C   UNL     1       2.398   4.677  20.281  0.00  0.00    +0.000 A 
ATOM     23  C   UNL     1       1.833   4.241  19.077  0.00  0.00    +0.000 A 
ATOM     24  C   UNL     1       1.133   3.033  19.012  0.00  0.00    +0.000 A 
ENDBRANCH  17  22
ENDBRANCH   1  17
BRANCH   4  25
ATOM     25  C   UNL     1      -0.200  10.332  18.009  0.00  0.00    +0.000 C 
BRANCH  25  26
ATOM     26  C   UNL     1      -1.069  11.481  18.550  0.00  0.00    +0.000 C 
BRANCH  26  27
ATOM     27  C   UNL     1      -2.463  11.485  17.986  0.00  0.00    +0.000 A 
ATOM     28  C   UNL     1      -2.693  11.110  16.659  0.00  0.00    +0.000 A 
ATOM     29  C   UNL     1      -3.996  11.107  16.191  0.00  0.00    +0.000 A 
ATOM     30  N   UNL     1      -5.064  11.454  16.939  0.00  0.00    +0.000 NA
ATOM     31  C   UNL     1      -4.817  11.815  18.216  0.00  0.00    +0.000 A 
ATOM     32  C   UNL     1      -3.553  11.850  18.779  0.00  0.00    +0.000 A 
ENDBRANCH  26  27
ENDBRANCH  25  26
ENDBRANCH   4  25
TORSDOF 7
ENDMDL
MODEL 7
REMARK VINA RESULT:      -8.6      5.028      9.051
REMARK  Name = 
REMARK  7 active torsions:
REMARK  status: ('A' for Active; 'I' for Inactive)
REMARK    1  A    between atoms: C_4  and  N_5
REMARK    2  A    between atoms: N_5  and  C_6
REMARK    3  A    between atoms: N_9  and  C_10
REMARK    4  A    between atoms: C_10  and  C_11
REMARK    5  A    between atoms: C_11  and  C_12
REMARK    6  A    between atoms: C_20  and  C_21
REMARK    7  A    between atoms: C_24  and  C_25
REMARK                            x       y       z     vdW  Elec       q    Type
REMARK                         _______ _______ _______ _____ _____    ______ ____
ROOT
ATOM      1  C   UNL     1       2.732   6.953  19.546  0.00  0.00    +0.000 A 
ATOM      2  N   UNL     1       1.812   7.869  19.930  0.00  0.00    +0.000 NA
ATOM      3  C   UNL     1       1.522   8.883  19.117  0.00  0.00    +0.000 A 
ATOM      4  N   UNL     1       0.427   9.654  19.467  0.00  0.00    +0.000 N 
ATOM      5  N   UNL     1       2.178   9.120  17.980  0.00  0.00    +0.000 NA
ATOM      6  C   UNL     1       3.154   8.252  17.653  0.00  0.00    +0.000 A 
ATOM      7  C   UNL     1       3.473   7.124  18.381  0.00  0.00    +0.000 A 
ATOM      8  H   UNL     1       0.648  10.138  20.330  0.00  0.00    +0.000 HD
ENDROOT
BRANCH   7   9
ATOM      9  C   UNL     1       4.447   6.171  17.892  0.00  0.00    +0.000 A 
ATOM     10  N   UNL     1       5.495   5.643  18.491  0.00  0.00    +0.000 NA
ATOM     11  N   UNL     1       6.025   4.720  17.612  0.00  0.00    +0.000 NA
ATOM     12  C   UNL     1       5.264   4.743  16.537  0.00  0.00    +0.000 A 
ATOM     13  O   UNL     1       4.241   5.648  16.642  0.00  0.00    +0.000 OA
BRANCH  12  14
ATOM     14  C   UNL     1       5.503   3.859  15.327  0.00  0.00    +0.000 C 
ATOM     15  C   UNL     1       5.413   4.469  13.942  0.00  0.00    +0.000 C 
ATOM     16  C   UNL     1       6.746   4.101  14.495  0.00  0.00    +0.000 C 
ENDBRANCH  12  14
ENDBRANCH   7   9
BRANCH   1  17
ATOM     17  N   UNL     1       2.961   5.851  20.414  0.00  0.00    +0.000 N 
ATOM     18  H   UNL     1       3.956   5.621  20.459  0.00  0.00    +0.000 HD
BRANCH  17  22
ATOM     19  C   UNL     1       0.988   2.109  20.310  0.00  0.00    +0.000 A 
ATOM     20  C   UNL     1       1.060   2.879  19.152  0.00  0.00    +0.000 A 
ATOM     21  C   UNL     1       1.689   4.125  19.181  0.00  0.00    +0.000 A 
ATOM     22  C   UNL     1       2.237   4.629  20.369  0.00  0.00    +0.000 A 
ATOM     23  C   UNL     1       2.192   3.827  21.516  0.00  0.00    +0.000 A 
ATOM     24  C   UNL     1       1.557   2.581  21.491  0.00  0.00    +0.000 A 
ENDBRANCH  17  22
ENDBRANCH   1  17
BRANCH   4  25
ATOM     25  C   UNL     1      -0.174  10.453  18.412  0.00  0.00    +0.000 C 
BRANCH  25  26
ATOM     26  C   UNL     1      -1.596  10.871  18.826  0.00  0.00    +0.000 C 
BRANCH  26  27
ATOM     27  C   UNL     1      -2.567  10.885  17.678  0.00  0.00    +0.000 A 
ATOM     28  C   UNL     1      -3.840  11.442  17.831  0.00  0.00    +0.000 A 
ATOM     29  C   UNL     1      -4.690  11.453  16.739  0.00  0.00    +0.000 A 
ATOM     30  N   UNL     1      -4.368  10.949  15.530  0.00  0.00    +0.000 NA
ATOM     31  C   UNL     1      -3.134  10.413  15.406  0.00  0.00    +0.000 A 
ATOM     32  C   UNL     1      -2.211  10.355  16.436  0.00  0.00    +0.000 A 
ENDBRANCH  26  27
ENDBRANCH  25  26
ENDBRANCH   4  25
TORSDOF 7
ENDMDL
MODEL 8
REMARK VINA RESULT:      -8.5      4.286      8.409
REMARK  Name = 
REMARK  7 active torsions:
REMARK  status: ('A' for Active; 'I' for Inactive)
REMARK    1  A    between atoms: C_4  and  N_5
REMARK    2  A    between atoms: N_5  and  C_6
REMARK    3  A    between atoms: N_9  and  C_10
REMARK    4  A    between atoms: C_10  and  C_11
REMARK    5  A    between atoms: C_11  and  C_12
REMARK    6  A    between atoms: C_20  and  C_21
REMARK    7  A    between atoms: C_24  and  C_25
REMARK                            x       y       z     vdW  Elec       q    Type
REMARK                         _______ _______ _______ _____ _____    ______ ____
ROOT
ATOM      1  C   UNL     1       3.778   5.792  17.636  0.00  0.00    +0.000 A 
ATOM      2  N   UNL     1       2.864   6.451  18.386  0.00  0.00    +0.000 NA
ATOM      3  C   UNL     1       2.700   7.761  18.214  0.00  0.00    +0.000 A 
ATOM      4  N   UNL     1       1.609   8.330  18.848  0.00  0.00    +0.000 N 
ATOM      5  N   UNL     1       3.475   8.496  17.414  0.00  0.00    +0.000 NA
ATOM      6  C   UNL     1       4.440   7.844  16.740  0.00  0.00    +0.000 A 
ATOM      7  C   UNL     1       4.638   6.478  16.784  0.00  0.00    +0.000 A 
ATOM      8  H   UNL     1       1.763   8.272  19.847  0.00  0.00    +0.000 HD
ENDROOT
BRANCH   7   9
ATOM      9  C   UNL     1       5.614   5.838  15.929  0.00  0.00    +0.000 A 
ATOM     10  N   UNL     1       6.927   5.941  15.912  0.00  0.00    +0.000 NA
ATOM     11  N   UNL     1       7.379   5.044  14.966  0.00  0.00    +0.000 NA
ATOM     12  C   UNL     1       6.313   4.451  14.469  0.00  0.00    +0.000 A 
ATOM     13  O   UNL     1       5.151   4.910  15.033  0.00  0.00    +0.000 OA
BRANCH  12  14
ATOM     14  C   UNL     1       6.377   3.378  13.397  0.00  0.00    +0.000 C 
ATOM     15  C   UNL     1       5.440   3.470  12.210  0.00  0.00    +0.000 C 
ATOM     16  C   UNL     1       6.887   3.766  12.024  0.00  0.00    +0.000 C 
ENDBRANCH  12  14
ENDBRANCH   7   9
BRANCH   1  17
ATOM     17  N   UNL     1       3.874   4.385  17.807  0.00  0.00    +0.000 N 
ATOM     18  H   UNL     1       3.915   3.908  16.903  0.00  0.00    +0.000 HD
BRANCH  17  22
ATOM     19  C   UNL     1       1.224   2.263  20.334  0.00  0.00    +0.000 A 
ATOM     20  C   UNL     1       2.418   2.759  20.853  0.00  0.00    +0.000 A 
ATOM     21  C   UNL     1       3.310   3.441  20.022  0.00  0.00    +0.000 A 
ATOM     22  C   UNL     1       3.032   3.620  18.659  0.00  0.00    +0.000 A 
ATOM     23  C   UNL     1       1.811   3.151  18.161  0.00  0.00    +0.000 A 
ATOM     24  C   UNL     1       0.920   2.462  18.989  0.00  0.00    +0.000 A 
ENDBRANCH  17  22
ENDBRANCH   1  17
BRANCH   4  25
ATOM     25  C   UNL     1       1.150   9.611  18.336  0.00  0.00    +0.000 C 
BRANCH  25  26
ATOM     26  C   UNL     1      -0.010  10.129  19.205  0.00  0.00    +0.000 C 
BRANCH  26  27
ATOM     27  C   UNL     1      -1.249  10.445  18.413  0.00  0.00    +0.000 A 
ATOM     28  C   UNL     1      -1.501   9.796  17.201  0.00  0.00    +0.000 A 
ATOM     29  C   UNL     1      -2.666  10.103  16.519  0.00  0.00    +0.000 A 
ATOM     30  N   UNL     1      -3.575  11.001  16.950  0.00  0.00    +0.000 NA
ATOM     31  C   UNL     1      -3.309  11.617  18.122  0.00  0.00    +0.000 A 
ATOM     32  C   UNL     1      -2.174  11.380  18.880  0.00  0.00    +0.000 A 
ENDBRANCH  26  27
ENDBRANCH  25  26
ENDBRANCH   4  25
TORSDOF 7
ENDMDL
MODEL 9
REMARK VINA RESULT:      -8.5      5.090      9.059
REMARK  Name = 
REMARK  7 active torsions:
REMARK  status: ('A' for Active; 'I' for Inactive)
REMARK    1  A    between atoms: C_4  and  N_5
REMARK    2  A    between atoms: N_5  and  C_6
REMARK    3  A    between atoms: N_9  and  C_10
REMARK    4  A    between atoms: C_10  and  C_11
REMARK    5  A    between atoms: C_11  and  C_12
REMARK    6  A    between atoms: C_20  and  C_21
REMARK    7  A    between atoms: C_24  and  C_25
REMARK                            x       y       z     vdW  Elec       q    Type
REMARK                         _______ _______ _______ _____ _____    ______ ____
ROOT
ATOM      1  C   UNL     1       2.612   7.069  19.499  0.00  0.00    +0.000 A 
ATOM      2  N   UNL     1       1.691   8.029  19.748  0.00  0.00    +0.000 NA
ATOM      3  C   UNL     1       1.468   8.973  18.836  0.00  0.00    +0.000 A 
ATOM      4  N   UNL     1       0.371   9.789  19.053  0.00  0.00    +0.000 N 
ATOM      5  N   UNL     1       2.192   9.099  17.722  0.00  0.00    +0.000 NA
ATOM      6  C   UNL     1       3.166   8.191  17.527  0.00  0.00    +0.000 A 
ATOM      7  C   UNL     1       3.421   7.126  18.368  0.00  0.00    +0.000 A 
ATOM      8  H   UNL     1       0.553  10.342  19.882  0.00  0.00    +0.000 HD
ENDROOT
BRANCH   7   9
ATOM      9  C   UNL     1       4.401   6.120  18.021  0.00  0.00    +0.000 A 
ATOM     10  N   UNL     1       5.240   5.450  18.784  0.00  0.00    +0.000 NA
ATOM     11  N   UNL     1       5.880   4.544  17.963  0.00  0.00    +0.000 NA
ATOM     12  C   UNL     1       5.388   4.718  16.753  0.00  0.00    +0.000 A 
ATOM     13  O   UNL     1       4.443   5.709  16.713  0.00  0.00    +0.000 OA
BRANCH  12  14
ATOM     14  C   UNL     1       5.824   3.902  15.550  0.00  0.00    +0.000 C 
ATOM     15  C   UNL     1       5.444   4.381  14.163  0.00  0.00    +0.000 C 
ATOM     16  C   UNL     1       6.858   4.498  14.616  0.00  0.00    +0.000 C 
ENDBRANCH  12  14
ENDBRANCH   7   9
BRANCH   1  17
ATOM     17  N   UNL     1       2.770   6.045  20.470  0.00  0.00    +0.000 N 
ATOM     18  H   UNL     1       3.758   5.887  20.679  0.00  0.00    +0.000 HD
BRANCH  17  22
ATOM     19  C   UNL     1       1.066   2.175  20.303  0.00  0.00    +0.000 A 
ATOM     20  C   UNL     1       1.009   2.998  19.182  0.00  0.00    +0.000 A 
ATOM     21  C   UNL     1       1.548   4.285  19.234  0.00  0.00    +0.000 A 
ATOM     22  C   UNL     1       2.134   4.776  20.410  0.00  0.00    +0.000 A 
ATOM     23  C   UNL     1       2.218   3.923  21.517  0.00  0.00    +0.000 A 
ATOM     24  C   UNL     1       1.674   2.636  21.469  0.00  0.00    +0.000 A 
ENDBRANCH  17  22
ENDBRANCH   1  17
BRANCH   4  25
ATOM     25  C   UNL     1      -0.153  10.502  17.900  0.00  0.00    +0.000 C 
BRANCH  25  26
ATOM     26  C   UNL     1      -1.492   9.876  17.470  0.00  0.00    +0.000 C 
BRANCH  26  27
ATOM     27  C   UNL     1      -2.688  10.660  17.934  0.00  0.00    +0.000 A 
ATOM     28  C   UNL     1      -2.574  11.578  18.982  0.00  0.00    +0.000 A 
ATOM     29  C   UNL     1      -3.697  12.293  19.358  0.00  0.00    +0.000 A 
ATOM     30  N   UNL     1      -4.907  12.153  18.778  0.00  0.00    +0.000 NA
ATOM     31  C   UNL     1      -4.995  11.258  17.770  0.00  0.00    +0.000 A 
ATOM     32  C   UNL     1      -3.931  10.495  17.319  0.00  0.00    +0.000 A 
ENDBRANCH  26  27
ENDBRANCH  25  26
ENDBRANCH   4  25
TORSDOF 7
ENDMDL
