MODEL 1
REMARK VINA RESULT:      -7.3      0.000      0.000
REMARK  Name = 
REMARK  9 active torsions:
REMARK  status: ('A' for Active; 'I' for Inactive)
REMARK    1  A    between atoms: C_1  and  O_2
REMARK    2  A    between atoms: O_2  and  C_3
REMARK    3  A    between atoms: C_4  and  O_5
REMARK    4  A    between atoms: C_7  and  O_8
REMARK    5  A    between atoms: C_9  and  C_10
REMARK    6  A    between atoms: C_10  and  C_12
REMARK    7  A    between atoms: C_12  and  C_13
REMARK    8  A    between atoms: C_16  and  O_17
REMARK    9  A    between atoms: C_20  and  O_21
REMARK                            x       y       z     vdW  Elec       q    Type
REMARK                         _______ _______ _______ _____ _____    ______ ____
ROOT
ATOM      1  C   UNL     1       7.132   6.902  17.457  0.00  0.00    +0.000 A 
ATOM      2  C   UNL     1       7.694   6.380  18.630  0.00  0.00    +0.000 A 
ATOM      3  C   UNL     1       7.134   5.289  19.273  0.00  0.00    +0.000 A 
ATOM      4  C   UNL     1       5.980   4.707  18.753  0.00  0.00    +0.000 A 
ATOM      5  C   UNL     1       5.368   5.209  17.590  0.00  0.00    +0.000 A 
ATOM      6  C   UNL     1       5.978   6.284  16.917  0.00  0.00    +0.000 A 
ENDROOT
BRANCH   1   8
ATOM      7  C   UNL     1       7.610   9.202  17.702  0.00  0.00    +0.000 C 
ATOM      8  O   UNL     1       7.779   8.004  16.944  0.00  0.00    +0.000 OA
ENDBRANCH   1   8
BRANCH   2   9
ATOM      9  O   UNL     1       8.784   6.949  19.223  0.00  0.00    +0.000 OA
ATOM     10  H   UNL     1       9.480   6.979  18.541  0.00  0.00    +0.000 HD
ENDBRANCH   2   9
BRANCH   4  11
ATOM     11  O   UNL     1       5.493   3.608  19.405  0.00  0.00    +0.000 OA
ATOM     12  H   UNL     1       5.956   3.513  20.260  0.00  0.00    +0.000 HD
ENDBRANCH   4  11
BRANCH   5  13
ATOM     13  C   UNL     1       4.071   4.665  17.068  0.00  0.00    +0.000 C 
ATOM     14  O   UNL     1       4.113   3.896  16.115  0.00  0.00    +0.000 OA
BRANCH  13  15
ATOM     15  C   UNL     1       2.744   5.158  17.660  0.00  0.00    +0.000 C 
BRANCH  15  16
ATOM     16  C   UNL     1       2.311   4.427  18.903  0.00  0.00    +0.000 A 
ATOM     17  C   UNL     1       1.794   3.130  18.816  0.00  0.00    +0.000 A 
ATOM     18  C   UNL     1       1.434   2.432  19.970  0.00  0.00    +0.000 A 
ATOM     19  C   UNL     1       1.592   3.028  21.215  0.00  0.00    +0.000 A 
ATOM     20  C   UNL     1       2.111   4.316  21.325  0.00  0.00    +0.000 A 
ATOM     21  C   UNL     1       2.468   5.014  20.173  0.00  0.00    +0.000 A 
BRANCH  19  22
ATOM     22  O   UNL     1       1.258   2.378  22.363  0.00  0.00    +0.000 OA
ATOM     23  H   UNL     1       1.429   2.976  23.109  0.00  0.00    +0.000 HD
ENDBRANCH  19  22
ENDBRANCH  15  16
ENDBRANCH  13  15
ENDBRANCH   5  13
BRANCH   6  24
ATOM     24  O   UNL     1       5.468   6.768  15.745  0.00  0.00    +0.000 OA
ATOM     25  H   UNL     1       6.042   7.498  15.427  0.00  0.00    +0.000 HD
ENDBRANCH   6  24
TORSDOF 8
ENDMDL
MODEL 2
REMARK VINA RESULT:      -7.2      0.084      1.057
REMARK  Name = 
REMARK  9 active torsions:
REMARK  status: ('A' for Active; 'I' for Inactive)
REMARK    1  A    between atoms: C_1  and  O_2
REMARK    2  A    between atoms: O_2  and  C_3
REMARK    3  A    between atoms: C_4  and  O_5
REMARK    4  A    between atoms: C_7  and  O_8
REMARK    5  A    between atoms: C_9  and  C_10
REMARK    6  A    between atoms: C_10  and  C_12
REMARK    7  A    between atoms: C_12  and  C_13
REMARK    8  A    between atoms: C_16  and  O_17
REMARK    9  A    between atoms: C_20  and  O_21
REMARK                            x       y       z     vdW  Elec       q    Type
REMARK                         _______ _______ _______ _____ _____    ______ ____
ROOT
ATOM      1  C   UNL     1       7.100   6.891  17.416  0.00  0.00    +0.000 A 
ATOM      2  C   UNL     1       7.676   6.380  18.588  0.00  0.00    +0.000 A 
ATOM      3  C   UNL     1       7.144   5.275  19.229  0.00  0.00    +0.000 A 
ATOM      4  C   UNL     1       6.003   4.665  18.709  0.00  0.00    +0.000 A 
ATOM      5  C   UNL     1       5.378   5.155  17.547  0.00  0.00    +0.000 A 
ATOM      6  C   UNL     1       5.962   6.246  16.876  0.00  0.00    +0.000 A 
ENDROOT
BRANCH   1   8
ATOM      7  C   UNL     1       7.576   9.187  17.698  0.00  0.00    +0.000 C 
ATOM      8  O   UNL     1       7.721   8.009  16.906  0.00  0.00    +0.000 OA
ENDBRANCH   1   8
BRANCH   2   9
ATOM      9  O   UNL     1       8.753   6.974  19.181  0.00  0.00    +0.000 OA
ATOM     10  H   UNL     1       9.116   7.597  18.525  0.00  0.00    +0.000 HD
ENDBRANCH   2   9
BRANCH   4  11
ATOM     11  O   UNL     1       5.544   3.555  19.359  0.00  0.00    +0.000 OA
ATOM     12  H   UNL     1       4.764   3.206  18.886  0.00  0.00    +0.000 HD
ENDBRANCH   4  11
BRANCH   5  13
ATOM     13  C   UNL     1       4.094   4.581  17.025  0.00  0.00    +0.000 C 
ATOM     14  O   UNL     1       4.153   3.826  16.063  0.00  0.00    +0.000 OA
BRANCH  13  15
ATOM     15  C   UNL     1       2.758   5.028  17.630  0.00  0.00    +0.000 C 
BRANCH  15  16
ATOM     16  C   UNL     1       2.387   4.321  18.906  0.00  0.00    +0.000 A 
ATOM     17  C   UNL     1       2.489   4.983  20.135  0.00  0.00    +0.000 A 
ATOM     18  C   UNL     1       2.103   4.347  21.316  0.00  0.00    +0.000 A 
ATOM     19  C   UNL     1       1.612   3.048  21.272  0.00  0.00    +0.000 A 
ATOM     20  C   UNL     1       1.496   2.373  20.060  0.00  0.00    +0.000 A 
ATOM     21  C   UNL     1       1.883   3.007  18.881  0.00  0.00    +0.000 A 
BRANCH  19  22
ATOM     22  O   UNL     1       1.221   2.397  22.402  0.00  0.00    +0.000 OA
ATOM     23  H   UNL     1       1.142   3.052  23.115  0.00  0.00    +0.000 HD
ENDBRANCH  19  22
ENDBRANCH  15  16
ENDBRANCH  13  15
ENDBRANCH   5  13
BRANCH   6  24
ATOM     24  O   UNL     1       5.440   6.720  15.705  0.00  0.00    +0.000 OA
ATOM     25  H   UNL     1       4.470   6.569  15.707  0.00  0.00    +0.000 HD
ENDBRANCH   6  24
TORSDOF 8
ENDMDL
MODEL 3
REMARK VINA RESULT:      -6.7      2.060      2.597
REMARK  Name = 
REMARK  9 active torsions:
REMARK  status: ('A' for Active; 'I' for Inactive)
REMARK    1  A    between atoms: C_1  and  O_2
REMARK    2  A    between atoms: O_2  and  C_3
REMARK    3  A    between atoms: C_4  and  O_5
REMARK    4  A    between atoms: C_7  and  O_8
REMARK    5  A    between atoms: C_9  and  C_10
REMARK    6  A    between atoms: C_10  and  C_12
REMARK    7  A    between atoms: C_12  and  C_13
REMARK    8  A    between atoms: C_16  and  O_17
REMARK    9  A    between atoms: C_20  and  O_21
REMARK                            x       y       z     vdW  Elec       q    Type
REMARK                         _______ _______ _______ _____ _____    ______ ____
ROOT
ATOM      1  C   UNL     1       6.612   5.488  16.302  0.00  0.00    +0.000 A 
ATOM      2  C   UNL     1       7.173   4.771  17.368  0.00  0.00    +0.000 A 
ATOM      3  C   UNL     1       6.577   4.756  18.618  0.00  0.00    +0.000 A 
ATOM      4  C   UNL     1       5.404   5.479  18.825  0.00  0.00    +0.000 A 
ATOM      5  C   UNL     1       4.815   6.229  17.790  0.00  0.00    +0.000 A 
ATOM      6  C   UNL     1       5.403   6.191  16.512  0.00  0.00    +0.000 A 
ENDROOT
BRANCH   1   8
ATOM      7  C   UNL     1       6.826   4.510  14.162  0.00  0.00    +0.000 C 
ATOM      8  O   UNL     1       7.329   5.434  15.127  0.00  0.00    +0.000 OA
ENDBRANCH   1   8
BRANCH   2   9
ATOM      9  O   UNL     1       8.356   4.101  17.245  0.00  0.00    +0.000 OA
ATOM     10  H   UNL     1       8.894   4.353  18.018  0.00  0.00    +0.000 HD
ENDBRANCH   2   9
BRANCH   4  11
ATOM     11  O   UNL     1       4.837   5.396  20.066  0.00  0.00    +0.000 OA
ATOM     12  H   UNL     1       5.039   4.522  20.452  0.00  0.00    +0.000 HD
ENDBRANCH   4  11
BRANCH   5  13
ATOM     13  C   UNL     1       3.611   7.095  18.013  0.00  0.00    +0.000 C 
ATOM     14  O   UNL     1       3.502   8.111  17.337  0.00  0.00    +0.000 OA
BRANCH  13  15
ATOM     15  C   UNL     1       2.621   6.752  19.133  0.00  0.00    +0.000 C 
BRANCH  15  16
ATOM     16  C   UNL     1       2.004   5.383  19.017  0.00  0.00    +0.000 A 
ATOM     17  C   UNL     1       1.938   4.741  17.776  0.00  0.00    +0.000 A 
ATOM     18  C   UNL     1       1.409   3.454  17.671  0.00  0.00    +0.000 A 
ATOM     19  C   UNL     1       0.947   2.803  18.809  0.00  0.00    +0.000 A 
ATOM     20  C   UNL     1       1.008   3.421  20.054  0.00  0.00    +0.000 A 
ATOM     21  C   UNL     1       1.535   4.707  20.159  0.00  0.00    +0.000 A 
BRANCH  19  22
ATOM     22  O   UNL     1       0.429   1.546  18.747  0.00  0.00    +0.000 OA
ATOM     23  H   UNL     1       0.612   1.103  19.593  0.00  0.00    +0.000 HD
ENDBRANCH  19  22
ENDBRANCH  15  16
ENDBRANCH  13  15
ENDBRANCH   5  13
BRANCH   6  24
ATOM     24  O   UNL     1       4.836   6.843  15.452  0.00  0.00    +0.000 OA
ATOM     25  H   UNL     1       5.284   6.556  14.627  0.00  0.00    +0.000 HD
ENDBRANCH   6  24
TORSDOF 8
ENDMDL
MODEL 4
REMARK VINA RESULT:      -6.7      2.065      2.709
REMARK  Name = 
REMARK  9 active torsions:
REMARK  status: ('A' for Active; 'I' for Inactive)
REMARK    1  A    between atoms: C_1  and  O_2
REMARK    2  A    between atoms: O_2  and  C_3
REMARK    3  A    between atoms: C_4  and  O_5
REMARK    4  A    between atoms: C_7  and  O_8
REMARK    5  A    between atoms: C_9  and  C_10
REMARK    6  A    between atoms: C_10  and  C_12
REMARK    7  A    between atoms: C_12  and  C_13
REMARK    8  A    between atoms: C_16  and  O_17
REMARK    9  A    between atoms: C_20  and  O_21
REMARK                            x       y       z     vdW  Elec       q    Type
REMARK                         _______ _______ _______ _____ _____    ______ ____
ROOT
ATOM      1  C   UNL     1       6.604   5.489  16.292  0.00  0.00    +0.000 A 
ATOM      2  C   UNL     1       7.164   4.785  17.366  0.00  0.00    +0.000 A 
ATOM      3  C   UNL     1       6.568   4.785  18.616  0.00  0.00    +0.000 A 
ATOM      4  C   UNL     1       5.395   5.511  18.815  0.00  0.00    +0.000 A 
ATOM      5  C   UNL     1       4.807   6.249  17.771  0.00  0.00    +0.000 A 
ATOM      6  C   UNL     1       5.395   6.196  16.493  0.00  0.00    +0.000 A 
ENDROOT
BRANCH   1   8
ATOM      7  C   UNL     1       6.822   4.479  14.167  0.00  0.00    +0.000 C 
ATOM      8  O   UNL     1       7.321   5.421  15.118  0.00  0.00    +0.000 OA
ENDBRANCH   1   8
BRANCH   2   9
ATOM      9  O   UNL     1       8.346   4.112  17.251  0.00  0.00    +0.000 OA
ATOM     10  H   UNL     1       8.172   3.201  17.552  0.00  0.00    +0.000 HD
ENDBRANCH   2   9
BRANCH   4  11
ATOM     11  O   UNL     1       4.828   5.442  20.056  0.00  0.00    +0.000 OA
ATOM     12  H   UNL     1       5.019   4.569  20.447  0.00  0.00    +0.000 HD
ENDBRANCH   4  11
BRANCH   5  13
ATOM     13  C   UNL     1       3.603   7.119  17.984  0.00  0.00    +0.000 C 
ATOM     14  O   UNL     1       3.507   8.139  17.312  0.00  0.00    +0.000 OA
BRANCH  13  15
ATOM     15  C   UNL     1       2.597   6.772  19.088  0.00  0.00    +0.000 C 
BRANCH  15  16
ATOM     16  C   UNL     1       2.043   5.375  19.006  0.00  0.00    +0.000 A 
ATOM     17  C   UNL     1       1.570   4.734  20.156  0.00  0.00    +0.000 A 
ATOM     18  C   UNL     1       1.013   3.456  20.077  0.00  0.00    +0.000 A 
ATOM     19  C   UNL     1       0.926   2.816  18.846  0.00  0.00    +0.000 A 
ATOM     20  C   UNL     1       1.386   3.438  17.689  0.00  0.00    +0.000 A 
ATOM     21  C   UNL     1       1.943   4.713  17.768  0.00  0.00    +0.000 A 
BRANCH  19  22
ATOM     22  O   UNL     1       0.386   1.573  18.729  0.00  0.00    +0.000 OA
ATOM     23  H   UNL     1      -0.506   1.594  19.115  0.00  0.00    +0.000 HD
ENDBRANCH  19  22
ENDBRANCH  15  16
ENDBRANCH  13  15
ENDBRANCH   5  13
BRANCH   6  24
ATOM     24  O   UNL     1       4.829   6.835  15.425  0.00  0.00    +0.000 OA
ATOM     25  H   UNL     1       5.512   6.959  14.731  0.00  0.00    +0.000 HD
ENDBRANCH   6  24
TORSDOF 8
ENDMDL
MODEL 5
REMARK VINA RESULT:      -6.7      1.828      2.240
REMARK  Name = 
REMARK  9 active torsions:
REMARK  status: ('A' for Active; 'I' for Inactive)
REMARK    1  A    between atoms: C_1  and  O_2
REMARK    2  A    between atoms: O_2  and  C_3
REMARK    3  A    between atoms: C_4  and  O_5
REMARK    4  A    between atoms: C_7  and  O_8
REMARK    5  A    between atoms: C_9  and  C_10
REMARK    6  A    between atoms: C_10  and  C_12
REMARK    7  A    between atoms: C_12  and  C_13
REMARK    8  A    between atoms: C_16  and  O_17
REMARK    9  A    between atoms: C_20  and  O_21
REMARK                            x       y       z     vdW  Elec       q    Type
REMARK                         _______ _______ _______ _____ _____    ______ ____
ROOT
ATOM      1  C   UNL     1       6.728   5.369  16.241  0.00  0.00    +0.000 A 
ATOM      2  C   UNL     1       7.282   4.714  17.349  0.00  0.00    +0.000 A 
ATOM      3  C   UNL     1       6.638   4.700  18.574  0.00  0.00    +0.000 A 
ATOM      4  C   UNL     1       5.421   5.364  18.715  0.00  0.00    +0.000 A 
ATOM      5  C   UNL     1       4.835   6.053  17.636  0.00  0.00    +0.000 A 
ATOM      6  C   UNL     1       5.475   6.012  16.383  0.00  0.00    +0.000 A 
ENDROOT
BRANCH   1   8
ATOM      7  C   UNL     1       6.929   4.557  14.032  0.00  0.00    +0.000 C 
ATOM      8  O   UNL     1       7.493   5.323  15.097  0.00  0.00    +0.000 OA
ENDBRANCH   1   8
BRANCH   2   9
ATOM      9  O   UNL     1       8.503   4.105  17.291  0.00  0.00    +0.000 OA
ATOM     10  H   UNL     1       8.328   3.163  17.110  0.00  0.00    +0.000 HD
ENDBRANCH   2   9
BRANCH   4  11
ATOM     11  O   UNL     1       4.809   5.284  19.934  0.00  0.00    +0.000 OA
ATOM     12  H   UNL     1       3.881   5.574  19.847  0.00  0.00    +0.000 HD
ENDBRANCH   4  11
BRANCH   5  13
ATOM     13  C   UNL     1       3.579   6.859  17.787  0.00  0.00    +0.000 C 
ATOM     14  O   UNL     1       3.690   8.052  18.043  0.00  0.00    +0.000 OA
BRANCH  13  15
ATOM     15  C   UNL     1       2.214   6.163  17.725  0.00  0.00    +0.000 C 
BRANCH  15  16
ATOM     16  C   UNL     1       1.970   5.176  18.835  0.00  0.00    +0.000 A 
ATOM     17  C   UNL     1       1.901   3.806  18.560  0.00  0.00    +0.000 A 
ATOM     18  C   UNL     1       1.721   2.884  19.592  0.00  0.00    +0.000 A 
ATOM     19  C   UNL     1       1.611   3.329  20.904  0.00  0.00    +0.000 A 
ATOM     20  C   UNL     1       1.682   4.688  21.201  0.00  0.00    +0.000 A 
ATOM     21  C   UNL     1       1.860   5.608  20.170  0.00  0.00    +0.000 A 
BRANCH  19  22
ATOM     22  O   UNL     1       1.440   2.461  21.938  0.00  0.00    +0.000 OA
ATOM     23  H   UNL     1       1.556   2.953  22.767  0.00  0.00    +0.000 HD
ENDBRANCH  19  22
ENDBRANCH  15  16
ENDBRANCH  13  15
ENDBRANCH   5  13
BRANCH   6  24
ATOM     24  O   UNL     1       4.918   6.604  15.283  0.00  0.00    +0.000 OA
ATOM     25  H   UNL     1       5.633   7.005  14.744  0.00  0.00    +0.000 HD
ENDBRANCH   6  24
TORSDOF 8
ENDMDL
MODEL 6
REMARK VINA RESULT:      -6.6      1.807      2.450
REMARK  Name = 
REMARK  9 active torsions:
REMARK  status: ('A' for Active; 'I' for Inactive)
REMARK    1  A    between atoms: C_1  and  O_2
REMARK    2  A    between atoms: O_2  and  C_3
REMARK    3  A    between atoms: C_4  and  O_5
REMARK    4  A    between atoms: C_7  and  O_8
REMARK    5  A    between atoms: C_9  and  C_10
REMARK    6  A    between atoms: C_10  and  C_12
REMARK    7  A    between atoms: C_12  and  C_13
REMARK    8  A    between atoms: C_16  and  O_17
REMARK    9  A    between atoms: C_20  and  O_21
REMARK                            x       y       z     vdW  Elec       q    Type
REMARK                         _______ _______ _______ _____ _____    ______ ____
ROOT
ATOM      1  C   UNL     1       6.734   5.455  16.221  0.00  0.00    +0.000 A 
ATOM      2  C   UNL     1       7.297   4.798  17.324  0.00  0.00    +0.000 A 
ATOM      3  C   UNL     1       6.651   4.762  18.548  0.00  0.00    +0.000 A 
ATOM      4  C   UNL     1       5.422   5.404  18.692  0.00  0.00    +0.000 A 
ATOM      5  C   UNL     1       4.827   6.092  17.619  0.00  0.00    +0.000 A 
ATOM      6  C   UNL     1       5.470   6.074  16.366  0.00  0.00    +0.000 A 
ENDROOT
BRANCH   1   8
ATOM      7  C   UNL     1       7.028   4.553  14.058  0.00  0.00    +0.000 C 
ATOM      8  O   UNL     1       7.502   5.432  15.078  0.00  0.00    +0.000 OA
ENDBRANCH   1   8
BRANCH   2   9
ATOM      9  O   UNL     1       8.528   4.211  17.263  0.00  0.00    +0.000 OA
ATOM     10  H   UNL     1       9.174   4.938  17.199  0.00  0.00    +0.000 HD
ENDBRANCH   2   9
BRANCH   4  11
ATOM     11  O   UNL     1       4.810   5.302  19.909  0.00  0.00    +0.000 OA
ATOM     12  H   UNL     1       5.116   4.488  20.354  0.00  0.00    +0.000 HD
ENDBRANCH   4  11
BRANCH   5  13
ATOM     13  C   UNL     1       3.557   6.875  17.775  0.00  0.00    +0.000 C 
ATOM     14  O   UNL     1       3.647   8.076  18.001  0.00  0.00    +0.000 OA
BRANCH  13  15
ATOM     15  C   UNL     1       2.206   6.149  17.753  0.00  0.00    +0.000 C 
BRANCH  15  16
ATOM     16  C   UNL     1       2.016   5.160  18.871  0.00  0.00    +0.000 A 
ATOM     17  C   UNL     1       1.926   5.599  20.197  0.00  0.00    +0.000 A 
ATOM     18  C   UNL     1       1.704   4.690  21.232  0.00  0.00    +0.000 A 
ATOM     19  C   UNL     1       1.568   3.337  20.944  0.00  0.00    +0.000 A 
ATOM     20  C   UNL     1       1.648   2.878  19.633  0.00  0.00    +0.000 A 
ATOM     21  C   UNL     1       1.872   3.786  18.599  0.00  0.00    +0.000 A 
BRANCH  19  22
ATOM     22  O   UNL     1       1.346   2.421  21.926  0.00  0.00    +0.000 OA
ATOM     23  H   UNL     1       1.703   2.776  22.756  0.00  0.00    +0.000 HD
ENDBRANCH  19  22
ENDBRANCH  15  16
ENDBRANCH  13  15
ENDBRANCH   5  13
BRANCH   6  24
ATOM     24  O   UNL     1       4.905   6.666  15.271  0.00  0.00    +0.000 OA
ATOM     25  H   UNL     1       5.598   6.795  14.588  0.00  0.00    +0.000 HD
ENDBRANCH   6  24
TORSDOF 8
ENDMDL
MODEL 7
REMARK VINA RESULT:      -6.5      2.159      3.513
REMARK  Name = 
REMARK  9 active torsions:
REMARK  status: ('A' for Active; 'I' for Inactive)
REMARK    1  A    between atoms: C_1  and  O_2
REMARK    2  A    between atoms: O_2  and  C_3
REMARK    3  A    between atoms: C_4  and  O_5
REMARK    4  A    between atoms: C_7  and  O_8
REMARK    5  A    between atoms: C_9  and  C_10
REMARK    6  A    between atoms: C_10  and  C_12
REMARK    7  A    between atoms: C_12  and  C_13
REMARK    8  A    between atoms: C_16  and  O_17
REMARK    9  A    between atoms: C_20  and  O_21
REMARK                            x       y       z     vdW  Elec       q    Type
REMARK                         _______ _______ _______ _____ _____    ______ ____
ROOT
ATOM      1  C   UNL     1       6.938   5.633  17.411  0.00  0.00    +0.000 A 
ATOM      2  C   UNL     1       6.698   5.259  16.082  0.00  0.00    +0.000 A 
ATOM      3  C   UNL     1       5.653   4.414  15.749  0.00  0.00    +0.000 A 
ATOM      4  C   UNL     1       4.832   3.911  16.756  0.00  0.00    +0.000 A 
ATOM      5  C   UNL     1       5.046   4.243  18.107  0.00  0.00    +0.000 A 
ATOM      6  C   UNL     1       6.079   5.145  18.425  0.00  0.00    +0.000 A 
ENDROOT
BRANCH   1   8
ATOM      7  C   UNL     1       7.720   7.848  17.660  0.00  0.00    +0.000 C 
ATOM      8  O   UNL     1       8.027   6.455  17.594  0.00  0.00    +0.000 OA
ENDBRANCH   1   8
BRANCH   2   9
ATOM      9  O   UNL     1       7.509   5.664  15.061  0.00  0.00    +0.000 OA
ATOM     10  H   UNL     1       7.002   5.526  14.240  0.00  0.00    +0.000 HD
ENDBRANCH   2   9
BRANCH   4  11
ATOM     11  O   UNL     1       3.792   3.115  16.367  0.00  0.00    +0.000 OA
ATOM     12  H   UNL     1       2.975   3.417  16.807  0.00  0.00    +0.000 HD
ENDBRANCH   4  11
BRANCH   5  13
ATOM     13  C   UNL     1       4.241   3.636  19.218  0.00  0.00    +0.000 C 
ATOM     14  O   UNL     1       4.795   2.826  19.951  0.00  0.00    +0.000 OA
BRANCH  13  15
ATOM     15  C   UNL     1       2.747   3.959  19.342  0.00  0.00    +0.000 C 
BRANCH  15  16
ATOM     16  C   UNL     1       2.433   5.430  19.391  0.00  0.00    +0.000 A 
ATOM     17  C   UNL     1       2.535   6.214  18.236  0.00  0.00    +0.000 A 
ATOM     18  C   UNL     1       2.200   7.568  18.266  0.00  0.00    +0.000 A 
ATOM     19  C   UNL     1       1.759   8.144  19.452  0.00  0.00    +0.000 A 
ATOM     20  C   UNL     1       1.644   7.382  20.611  0.00  0.00    +0.000 A 
ATOM     21  C   UNL     1       1.980   6.030  20.582  0.00  0.00    +0.000 A 
BRANCH  19  22
ATOM     22  O   UNL     1       1.419   9.460  19.520  0.00  0.00    +0.000 OA
ATOM     23  H   UNL     1       1.655   9.787  20.403  0.00  0.00    +0.000 HD
ENDBRANCH  19  22
ENDBRANCH  15  16
ENDBRANCH  13  15
ENDBRANCH   5  13
BRANCH   6  24
ATOM     24  O   UNL     1       6.289   5.558  19.711  0.00  0.00    +0.000 OA
ATOM     25  H   UNL     1       7.224   5.380  19.952  0.00  0.00    +0.000 HD
ENDBRANCH   6  24
TORSDOF 8
ENDMDL
MODEL 8
REMARK VINA RESULT:      -6.5      3.324      4.008
REMARK  Name = 
REMARK  9 active torsions:
REMARK  status: ('A' for Active; 'I' for Inactive)
REMARK    1  A    between atoms: C_1  and  O_2
REMARK    2  A    between atoms: O_2  and  C_3
REMARK    3  A    between atoms: C_4  and  O_5
REMARK    4  A    between atoms: C_7  and  O_8
REMARK    5  A    between atoms: C_9  and  C_10
REMARK    6  A    between atoms: C_10  and  C_12
REMARK    7  A    between atoms: C_12  and  C_13
REMARK    8  A    between atoms: C_16  and  O_17
REMARK    9  A    between atoms: C_20  and  O_21
REMARK                            x       y       z     vdW  Elec       q    Type
REMARK                         _______ _______ _______ _____ _____    ______ ____
ROOT
ATOM      1  C   UNL     1       6.483   5.457  16.595  0.00  0.00    +0.000 A 
ATOM      2  C   UNL     1       6.915   4.618  17.632  0.00  0.00    +0.000 A 
ATOM      3  C   UNL     1       6.088   4.309  18.699  0.00  0.00    +0.000 A 
ATOM      4  C   UNL     1       4.806   4.853  18.751  0.00  0.00    +0.000 A 
ATOM      5  C   UNL     1       4.336   5.715  17.743  0.00  0.00    +0.000 A 
ATOM      6  C   UNL     1       5.168   5.977  16.638  0.00  0.00    +0.000 A 
ENDROOT
BRANCH   1   8
ATOM      7  C   UNL     1       7.257   4.925  14.427  0.00  0.00    +0.000 C 
ATOM      8  O   UNL     1       7.422   5.698  15.616  0.00  0.00    +0.000 OA
ENDBRANCH   1   8
BRANCH   2   9
ATOM      9  O   UNL     1       8.182   4.111  17.671  0.00  0.00    +0.000 OA
ATOM     10  H   UNL     1       8.119   3.257  18.137  0.00  0.00    +0.000 HD
ENDBRANCH   2   9
BRANCH   4  11
ATOM     11  O   UNL     1       4.019   4.481  19.805  0.00  0.00    +0.000 OA
ATOM     12  H   UNL     1       4.020   3.508  19.878  0.00  0.00    +0.000 HD
ENDBRANCH   4  11
BRANCH   5  13
ATOM     13  C   UNL     1       3.000   6.393  17.827  0.00  0.00    +0.000 C 
ATOM     14  O   UNL     1       1.998   5.689  17.799  0.00  0.00    +0.000 OA
BRANCH  13  15
ATOM     15  C   UNL     1       2.921   7.924  17.837  0.00  0.00    +0.000 C 
BRANCH  15  16
ATOM     16  C   UNL     1       1.999   8.490  18.884  0.00  0.00    +0.000 A 
ATOM     17  C   UNL     1       1.147   9.555  18.573  0.00  0.00    +0.000 A 
ATOM     18  C   UNL     1       0.257  10.053  19.527  0.00  0.00    +0.000 A 
ATOM     19  C   UNL     1       0.214   9.484  20.794  0.00  0.00    +0.000 A 
ATOM     20  C   UNL     1       1.048   8.419  21.122  0.00  0.00    +0.000 A 
ATOM     21  C   UNL     1       1.938   7.924  20.171  0.00  0.00    +0.000 A 
BRANCH  19  22
ATOM     22  O   UNL     1      -0.643   9.938  21.748  0.00  0.00    +0.000 OA
ATOM     23  H   UNL     1      -1.550   9.797  21.430  0.00  0.00    +0.000 HD
ENDBRANCH  19  22
ENDBRANCH  15  16
ENDBRANCH  13  15
ENDBRANCH   5  13
BRANCH   6  24
ATOM     24  O   UNL     1       4.739   6.751  15.596  0.00  0.00    +0.000 OA
ATOM     25  H   UNL     1       3.802   6.999  15.750  0.00  0.00    +0.000 HD
ENDBRANCH   6  24
TORSDOF 8
ENDMDL
MODEL 9
REMARK VINA RESULT:      -6.5      2.065      2.961
REMARK  Name = 
REMARK  9 active torsions:
REMARK  status: ('A' for Active; 'I' for Inactive)
REMARK    1  A    between atoms: C_1  and  O_2
REMARK    2  A    between atoms: O_2  and  C_3
REMARK    3  A    between atoms: C_4  and  O_5
REMARK    4  A    between atoms: C_7  and  O_8
REMARK    5  A    between atoms: C_9  and  C_10
REMARK    6  A    between atoms: C_10  and  C_12
REMARK    7  A    between atoms: C_12  and  C_13
REMARK    8  A    between atoms: C_16  and  O_17
REMARK    9  A    between atoms: C_20  and  O_21
REMARK                            x       y       z     vdW  Elec       q    Type
REMARK                         _______ _______ _______ _____ _____    ______ ____
ROOT
ATOM      1  C   UNL     1       6.179   5.269  15.839  0.00  0.00    +0.000 A 
ATOM      2  C   UNL     1       6.919   5.743  16.930  0.00  0.00    +0.000 A 
ATOM      3  C   UNL     1       6.647   5.326  18.221  0.00  0.00    +0.000 A 
ATOM      4  C   UNL     1       5.606   4.426  18.444  0.00  0.00    +0.000 A 
ATOM      5  C   UNL     1       4.822   3.938  17.382  0.00  0.00    +0.000 A 
ATOM      6  C   UNL     1       5.145   4.330  16.070  0.00  0.00    +0.000 A 
ENDROOT
BRANCH   1   8
ATOM      7  C   UNL     1       7.349   4.930  13.815  0.00  0.00    +0.000 C 
ATOM      8  O   UNL     1       6.544   5.792  14.619  0.00  0.00    +0.000 OA
ENDBRANCH   1   8
BRANCH   2   9
ATOM      9  O   UNL     1       7.905   6.676  16.782  0.00  0.00    +0.000 OA
ATOM     10  H   UNL     1       8.594   6.450  17.434  0.00  0.00    +0.000 HD
ENDBRANCH   2   9
BRANCH   4  11
ATOM     11  O   UNL     1       5.407   4.017  19.733  0.00  0.00    +0.000 OA
ATOM     12  H   UNL     1       4.697   3.346  19.750  0.00  0.00    +0.000 HD
ENDBRANCH   4  11
BRANCH   5  13
ATOM     13  C   UNL     1       3.634   3.050  17.606  0.00  0.00    +0.000 C 
ATOM     14  O   UNL     1       3.815   1.838  17.603  0.00  0.00    +0.000 OA
BRANCH  13  15
ATOM     15  C   UNL     1       2.234   3.664  17.724  0.00  0.00    +0.000 C 
BRANCH  15  16
ATOM     16  C   UNL     1       2.154   4.853  18.644  0.00  0.00    +0.000 A 
ATOM     17  C   UNL     1       2.415   6.139  18.160  0.00  0.00    +0.000 A 
ATOM     18  C   UNL     1       2.297   7.249  18.998  0.00  0.00    +0.000 A 
ATOM     19  C   UNL     1       1.915   7.076  20.323  0.00  0.00    +0.000 A 
ATOM     20  C   UNL     1       1.645   5.806  20.824  0.00  0.00    +0.000 A 
ATOM     21  C   UNL     1       1.764   4.697  19.988  0.00  0.00    +0.000 A 
BRANCH  19  22
ATOM     22  O   UNL     1       1.785   8.134  21.169  0.00  0.00    +0.000 OA
ATOM     23  H   UNL     1       2.245   8.893  20.775  0.00  0.00    +0.000 HD
ENDBRANCH  19  22
ENDBRANCH  15  16
ENDBRANCH  13  15
ENDBRANCH   5  13
BRANCH   6  24
ATOM     24  O   UNL     1       4.464   3.833  14.994  0.00  0.00    +0.000 OA
ATOM     25  H   UNL     1       4.585   2.860  14.963  0.00  0.00    +0.000 HD
ENDBRANCH   6  24
TORSDOF 8
ENDMDL
