MODEL 1
REMARK VINA RESULT:      -8.0      0.000      0.000
REMARK  Name = 
REMARK  5 active torsions:
REMARK  status: ('A' for Active; 'I' for Inactive)
REMARK    1  A    between atoms: C_2  and  C_3
REMARK    2  A    between atoms: N_8  and  C_9
REMARK    3  A    between atoms: C_9  and  C_10
REMARK    4  A    between atoms: C_17  and  C_18
REMARK    5  A    between atoms: C_21  and  C_22
REMARK                            x       y       z     vdW  Elec       q    Type
REMARK                         _______ _______ _______ _____ _____    ______ ____
ROOT
ATOM      1  C   UNL     1       3.795   3.750  17.758  0.00  0.00    +0.000 C 
ATOM      2  C   UNL     1       5.063   3.668  16.902  0.00  0.00    +0.000 C 
ATOM      3  C   UNL     1       6.205   4.145  17.813  0.00  0.00    +0.000 C 
ATOM      4  C   UNL     1       5.474   4.781  18.996  0.00  0.00    +0.000 C 
ATOM      5  O   UNL     1       5.973   5.137  20.050  0.00  0.00    +0.000 OA
ATOM      6  N   UNL     1       4.114   4.783  18.715  0.00  0.00    +0.000 N 
ATOM      7  C   UNL     1       7.084   5.071  16.941  0.00  0.00    +0.000 C 
ATOM      8  N   UNL     1       6.389   5.235  15.645  0.00  0.00    +0.000 NA
ATOM      9  C   UNL     1       7.054   4.602  14.507  0.00  0.00    +0.000 C 
ATOM     10  C   UNL     1       5.922   4.408  13.513  0.00  0.00    +0.000 C 
ATOM     11  C   UNL     1       4.739   4.026  14.389  0.00  0.00    +0.000 C 
ATOM     12  C   UNL     1       5.040   4.667  15.748  0.00  0.00    +0.000 C 
ENDROOT
BRANCH   7  13
ATOM     13  C   UNL     1       7.464   6.387  17.614  0.00  0.00    +0.000 A 
ATOM     14  C   UNL     1       7.066   7.589  16.999  0.00  0.00    +0.000 A 
ATOM     15  C   UNL     1       7.550   8.823  17.439  0.00  0.00    +0.000 A 
ATOM     16  C   UNL     1       8.390   8.890  18.552  0.00  0.00    +0.000 A 
ATOM     17  C   UNL     1       8.720   7.710  19.230  0.00  0.00    +0.000 A 
ATOM     18  C   UNL     1       8.262   6.471  18.763  0.00  0.00    +0.000 A 
BRANCH  16  19
ATOM     19  C   UNL     1       8.969  10.197  18.979  0.00  0.00    +0.000 C 
ATOM     20  N   UNL     1       9.130  11.203  18.175  0.00  0.00    +0.000 NA
ATOM     21  N   UNL     1       9.394  10.394  20.259  0.00  0.00    +0.000 N 
ATOM     22  H   UNL     1       8.760  10.997  17.245  0.00  0.00    +0.000 HD
ATOM     23  H   UNL     1       9.808   9.595  20.718  0.00  0.00    +0.000 HD
ATOM     24  H   UNL     1       9.978  11.224  20.312  0.00  0.00    +0.000 HD
ENDBRANCH  16  19
ENDBRANCH   7  13
BRANCH   1  26
ATOM     25  C   UNL     1       2.390   1.799  18.547  0.00  0.00    +0.000 C 
ATOM     26  C   UNL     1       3.547   2.474  18.525  0.00  0.00    +0.000 C 
ENDBRANCH   1  26
BRANCH   6  27
ATOM     27  C   UNL     1       3.116   5.342  19.617  0.00  0.00    +0.000 C 
BRANCH  27  28
ATOM     28  C   UNL     1       2.699   6.736  19.190  0.00  0.00    +0.000 A 
ATOM     29  C   UNL     1       1.918   7.545  20.034  0.00  0.00    +0.000 A 
ATOM     30  C   UNL     1       1.495   8.813  19.620  0.00  0.00    +0.000 A 
ATOM     31  C   UNL     1       1.854   9.273  18.360  0.00  0.00    +0.000 A 
ATOM     32  F   UNL     1       1.425  10.477  17.947  0.00  0.00    +0.000 F 
ATOM     33  C   UNL     1       2.650   8.507  17.521  0.00  0.00    +0.000 A 
ATOM     34  C   UNL     1       3.068   7.239  17.931  0.00  0.00    +0.000 A 
ENDBRANCH  27  28
ENDBRANCH   6  27
TORSDOF 5
ENDMDL
MODEL 2
REMARK VINA RESULT:      -7.7      3.081      5.322
REMARK  Name = 
REMARK  5 active torsions:
REMARK  status: ('A' for Active; 'I' for Inactive)
REMARK    1  A    between atoms: C_2  and  C_3
REMARK    2  A    between atoms: N_8  and  C_9
REMARK    3  A    between atoms: C_9  and  C_10
REMARK    4  A    between atoms: C_17  and  C_18
REMARK    5  A    between atoms: C_21  and  C_22
REMARK                            x       y       z     vdW  Elec       q    Type
REMARK                         _______ _______ _______ _____ _____    ______ ____
ROOT
ATOM      1  C   UNL     1       1.682   6.917  19.585  0.00  0.00    +0.000 C 
ATOM      2  C   UNL     1       2.470   5.771  20.228  0.00  0.00    +0.000 C 
ATOM      3  C   UNL     1       3.892   5.878  19.654  0.00  0.00    +0.000 C 
ATOM      4  C   UNL     1       3.731   6.849  18.484  0.00  0.00    +0.000 C 
ATOM      5  O   UNL     1       4.630   7.368  17.845  0.00  0.00    +0.000 OA
ATOM      6  N   UNL     1       2.380   7.134  18.339  0.00  0.00    +0.000 N 
ATOM      7  C   UNL     1       4.325   4.431  19.323  0.00  0.00    +0.000 C 
ATOM      8  N   UNL     1       3.148   3.564  19.551  0.00  0.00    +0.000 NA
ATOM      9  C   UNL     1       3.268   2.653  20.690  0.00  0.00    +0.000 C 
ATOM     10  C   UNL     1       1.821   2.353  21.041  0.00  0.00    +0.000 C 
ATOM     11  C   UNL     1       1.117   3.683  20.824  0.00  0.00    +0.000 C 
ATOM     12  C   UNL     1       1.966   4.404  19.773  0.00  0.00    +0.000 C 
ENDROOT
BRANCH   7  13
ATOM     13  C   UNL     1       4.959   4.269  17.944  0.00  0.00    +0.000 A 
ATOM     14  C   UNL     1       6.344   4.485  17.820  0.00  0.00    +0.000 A 
ATOM     15  C   UNL     1       6.955   4.559  16.565  0.00  0.00    +0.000 A 
ATOM     16  C   UNL     1       6.206   4.346  15.407  0.00  0.00    +0.000 A 
ATOM     17  C   UNL     1       4.845   4.036  15.521  0.00  0.00    +0.000 A 
ATOM     18  C   UNL     1       4.228   4.001  16.779  0.00  0.00    +0.000 A 
BRANCH  16  19
ATOM     19  C   UNL     1       6.839   4.497  14.064  0.00  0.00    +0.000 C 
ATOM     20  N   UNL     1       6.577   3.717  13.061  0.00  0.00    +0.000 NA
ATOM     21  N   UNL     1       7.765   5.469  13.828  0.00  0.00    +0.000 N 
ATOM     22  H   UNL     1       5.853   3.036  13.298  0.00  0.00    +0.000 HD
ATOM     23  H   UNL     1       8.381   5.692  14.596  0.00  0.00    +0.000 HD
ATOM     24  H   UNL     1       8.266   5.275  12.965  0.00  0.00    +0.000 HD
ENDBRANCH  16  19
ENDBRANCH   7  13
BRANCH   1  26
ATOM     25  C   UNL     1       1.066   8.458  21.494  0.00  0.00    +0.000 C 
ATOM     26  C   UNL     1       1.776   8.190  20.390  0.00  0.00    +0.000 C 
ENDBRANCH   1  26
BRANCH   6  27
ATOM     27  C   UNL     1       1.858   8.008  17.297  0.00  0.00    +0.000 C 
BRANCH  27  28
ATOM     28  C   UNL     1       1.395   9.336  17.864  0.00  0.00    +0.000 A 
ATOM     29  C   UNL     1       0.032   9.579  18.108  0.00  0.00    +0.000 A 
ATOM     30  C   UNL     1      -0.398  10.822  18.587  0.00  0.00    +0.000 A 
ATOM     31  C   UNL     1       0.536  11.822  18.824  0.00  0.00    +0.000 A 
ATOM     32  F   UNL     1       0.123  13.024  19.255  0.00  0.00    +0.000 F 
ATOM     33  C   UNL     1       1.890  11.596  18.621  0.00  0.00    +0.000 A 
ATOM     34  C   UNL     1       2.320  10.358  18.136  0.00  0.00    +0.000 A 
ENDBRANCH  27  28
ENDBRANCH   6  27
TORSDOF 5
ENDMDL
MODEL 3
REMARK VINA RESULT:      -7.5      7.932     11.709
REMARK  Name = 
REMARK  5 active torsions:
REMARK  status: ('A' for Active; 'I' for Inactive)
REMARK    1  A    between atoms: C_2  and  C_3
REMARK    2  A    between atoms: N_8  and  C_9
REMARK    3  A    between atoms: C_9  and  C_10
REMARK    4  A    between atoms: C_17  and  C_18
REMARK    5  A    between atoms: C_21  and  C_22
REMARK                            x       y       z     vdW  Elec       q    Type
REMARK                         _______ _______ _______ _____ _____    ______ ____
ROOT
ATOM      1  C   UNL     1       1.124  13.630  18.585  0.00  0.00    +0.000 C 
ATOM      2  C   UNL     1       0.877  14.919  19.374  0.00  0.00    +0.000 C 
ATOM      3  C   UNL     1       0.712  14.478  20.837  0.00  0.00    +0.000 C 
ATOM      4  C   UNL     1       0.536  12.963  20.735  0.00  0.00    +0.000 C 
ATOM      5  O   UNL     1       0.548  12.169  21.659  0.00  0.00    +0.000 OA
ATOM      6  N   UNL     1       0.472  12.624  19.390  0.00  0.00    +0.000 N 
ATOM      7  C   UNL     1      -0.478  15.296  21.393  0.00  0.00    +0.000 C 
ATOM      8  N   UNL     1      -1.056  16.047  20.257  0.00  0.00    +0.000 NA
ATOM      9  C   UNL     1      -0.866  17.496  20.319  0.00  0.00    +0.000 C 
ATOM     10  C   UNL     1      -0.995  17.919  18.866  0.00  0.00    +0.000 C 
ATOM     11  C   UNL     1      -0.308  16.797  18.104  0.00  0.00    +0.000 C 
ATOM     12  C   UNL     1      -0.454  15.569  19.008  0.00  0.00    +0.000 C 
ENDROOT
BRANCH   7  13
ATOM     13  C   UNL     1      -1.495  14.467  22.174  0.00  0.00    +0.000 A 
ATOM     14  C   UNL     1      -2.603  13.949  21.480  0.00  0.00    +0.000 A 
ATOM     15  C   UNL     1      -3.674  13.363  22.161  0.00  0.00    +0.000 A 
ATOM     16  C   UNL     1      -3.627  13.217  23.548  0.00  0.00    +0.000 A 
ATOM     17  C   UNL     1      -2.488  13.644  24.241  0.00  0.00    +0.000 A 
ATOM     18  C   UNL     1      -1.433  14.265  23.559  0.00  0.00    +0.000 A 
BRANCH  16  19
ATOM     19  C   UNL     1      -4.799  12.660  24.285  0.00  0.00    +0.000 C 
ATOM     20  N   UNL     1      -4.758  12.322  25.538  0.00  0.00    +0.000 NA
ATOM     21  N   UNL     1      -5.990  12.448  23.657  0.00  0.00    +0.000 N 
ATOM     22  H   UNL     1      -3.849  12.539  25.951  0.00  0.00    +0.000 HD
ATOM     23  H   UNL     1      -5.937  12.153  22.692  0.00  0.00    +0.000 HD
ATOM     24  H   UNL     1      -6.583  11.845  24.221  0.00  0.00    +0.000 HD
ENDBRANCH  16  19
ENDBRANCH   7  13
BRANCH   1  26
ATOM     25  C   UNL     1       3.581  14.153  18.279  0.00  0.00    +0.000 C 
ATOM     26  C   UNL     1       2.591  13.281  18.514  0.00  0.00    +0.000 C 
ENDBRANCH   1  26
BRANCH   6  27
ATOM     27  C   UNL     1       0.279  11.258  18.922  0.00  0.00    +0.000 C 
BRANCH  27  28
ATOM     28  C   UNL     1      -1.125  11.046  18.388  0.00  0.00    +0.000 A 
ATOM     29  C   UNL     1      -1.386  10.061  17.419  0.00  0.00    +0.000 A 
ATOM     30  C   UNL     1      -2.672   9.899  16.893  0.00  0.00    +0.000 A 
ATOM     31  C   UNL     1      -3.700  10.720  17.338  0.00  0.00    +0.000 A 
ATOM     32  F   UNL     1      -4.928  10.586  16.814  0.00  0.00    +0.000 F 
ATOM     33  C   UNL     1      -3.474  11.677  18.317  0.00  0.00    +0.000 A 
ATOM     34  C   UNL     1      -2.189  11.846  18.837  0.00  0.00    +0.000 A 
ENDBRANCH  27  28
ENDBRANCH   6  27
TORSDOF 5
ENDMDL
MODEL 4
REMARK VINA RESULT:      -7.3      8.048     11.824
REMARK  Name = 
REMARK  5 active torsions:
REMARK  status: ('A' for Active; 'I' for Inactive)
REMARK    1  A    between atoms: C_2  and  C_3
REMARK    2  A    between atoms: N_8  and  C_9
REMARK    3  A    between atoms: C_9  and  C_10
REMARK    4  A    between atoms: C_17  and  C_18
REMARK    5  A    between atoms: C_21  and  C_22
REMARK                            x       y       z     vdW  Elec       q    Type
REMARK                         _______ _______ _______ _____ _____    ______ ____
ROOT
ATOM      1  C   UNL     1       1.105  13.683  18.661  0.00  0.00    +0.000 C 
ATOM      2  C   UNL     1       0.877  15.011  19.393  0.00  0.00    +0.000 C 
ATOM      3  C   UNL     1       0.645  14.632  20.864  0.00  0.00    +0.000 C 
ATOM      4  C   UNL     1       0.419  13.121  20.813  0.00  0.00    +0.000 C 
ATOM      5  O   UNL     1       0.371  12.363  21.766  0.00  0.00    +0.000 OA
ATOM      6  N   UNL     1       0.390  12.733  19.480  0.00  0.00    +0.000 N 
ATOM      7  C   UNL     1      -0.533  15.511  21.346  0.00  0.00    +0.000 C 
ATOM      8  N   UNL     1      -1.045  16.237  20.162  0.00  0.00    +0.000 NA
ATOM      9  C   UNL     1      -0.806  17.680  20.176  0.00  0.00    +0.000 C 
ATOM     10  C   UNL     1      -0.869  18.051  18.705  0.00  0.00    +0.000 C 
ATOM     11  C   UNL     1      -0.196  16.877  18.011  0.00  0.00    +0.000 C 
ATOM     12  C   UNL     1      -0.417  15.690  18.954  0.00  0.00    +0.000 C 
ENDROOT
BRANCH   7  13
ATOM     13  C   UNL     1      -1.605  14.749  22.120  0.00  0.00    +0.000 A 
ATOM     14  C   UNL     1      -2.732  14.286  21.415  0.00  0.00    +0.000 A 
ATOM     15  C   UNL     1      -3.842  13.767  22.086  0.00  0.00    +0.000 A 
ATOM     16  C   UNL     1      -3.823  13.633  23.475  0.00  0.00    +0.000 A 
ATOM     17  C   UNL     1      -2.672  14.003  24.181  0.00  0.00    +0.000 A 
ATOM     18  C   UNL     1      -1.574  14.558  23.508  0.00  0.00    +0.000 A 
BRANCH  16  19
ATOM     19  C   UNL     1      -5.034  13.151  24.202  0.00  0.00    +0.000 C 
ATOM     20  N   UNL     1      -6.161  13.794  24.214  0.00  0.00    +0.000 NA
ATOM     21  N   UNL     1      -5.007  11.997  24.927  0.00  0.00    +0.000 N 
ATOM     22  H   UNL     1      -6.120  14.628  23.625  0.00  0.00    +0.000 HD
ATOM     23  H   UNL     1      -4.138  11.790  25.400  0.00  0.00    +0.000 HD
ATOM     24  H   UNL     1      -5.812  11.952  25.546  0.00  0.00    +0.000 HD
ENDBRANCH  16  19
ENDBRANCH   7  13
BRANCH   1  26
ATOM     25  C   UNL     1       3.586  14.106  18.407  0.00  0.00    +0.000 C 
ATOM     26  C   UNL     1       2.560  13.282  18.657  0.00  0.00    +0.000 C 
ENDBRANCH   1  26
BRANCH   6  27
ATOM     27  C   UNL     1       0.164  11.357  19.057  0.00  0.00    +0.000 C 
BRANCH  27  28
ATOM     28  C   UNL     1      -1.246  11.159  18.535  0.00  0.00    +0.000 A 
ATOM     29  C   UNL     1      -2.302  11.969  18.986  0.00  0.00    +0.000 A 
ATOM     30  C   UNL     1      -3.610  11.754  18.539  0.00  0.00    +0.000 A 
ATOM     31  C   UNL     1      -3.862  10.728  17.638  0.00  0.00    +0.000 A 
ATOM     32  F   UNL     1      -5.121  10.499  17.230  0.00  0.00    +0.000 F 
ATOM     33  C   UNL     1      -2.832   9.934  17.154  0.00  0.00    +0.000 A 
ATOM     34  C   UNL     1      -1.527  10.144  17.605  0.00  0.00    +0.000 A 
ENDBRANCH  27  28
ENDBRANCH   6  27
TORSDOF 5
ENDMDL
MODEL 5
REMARK VINA RESULT:      -7.2      6.558     10.480
REMARK  Name = 
REMARK  5 active torsions:
REMARK  status: ('A' for Active; 'I' for Inactive)
REMARK    1  A    between atoms: C_2  and  C_3
REMARK    2  A    between atoms: N_8  and  C_9
REMARK    3  A    between atoms: C_9  and  C_10
REMARK    4  A    between atoms: C_17  and  C_18
REMARK    5  A    between atoms: C_21  and  C_22
REMARK                            x       y       z     vdW  Elec       q    Type
REMARK                         _______ _______ _______ _____ _____    ______ ____
ROOT
ATOM      1  C   UNL     1       1.258  11.130  18.276  0.00  0.00    +0.000 C 
ATOM      2  C   UNL     1       1.626  12.169  19.341  0.00  0.00    +0.000 C 
ATOM      3  C   UNL     1       0.969  11.675  20.639  0.00  0.00    +0.000 C 
ATOM      4  C   UNL     1       0.003  10.591  20.161  0.00  0.00    +0.000 C 
ATOM      5  O   UNL     1      -0.604   9.801  20.862  0.00  0.00    +0.000 OA
ATOM      6  N   UNL     1       0.018  10.579  18.772  0.00  0.00    +0.000 N 
ATOM      7  C   UNL     1       0.356  12.929  21.306  0.00  0.00    +0.000 C 
ATOM      8  N   UNL     1       0.520  14.050  20.355  0.00  0.00    +0.000 NA
ATOM      9  C   UNL     1       1.468  15.080  20.779  0.00  0.00    +0.000 C 
ATOM     10  C   UNL     1       1.875  15.731  19.468  0.00  0.00    +0.000 C 
ATOM     11  C   UNL     1       1.951  14.562  18.498  0.00  0.00    +0.000 C 
ATOM     12  C   UNL     1       0.979  13.524  19.065  0.00  0.00    +0.000 C 
ENDROOT
BRANCH   7  13
ATOM     13  C   UNL     1      -1.076  12.737  21.799  0.00  0.00    +0.000 A 
ATOM     14  C   UNL     1      -2.119  13.329  21.063  0.00  0.00    +0.000 A 
ATOM     15  C   UNL     1      -3.423  13.372  21.562  0.00  0.00    +0.000 A 
ATOM     16  C   UNL     1      -3.729  12.760  22.778  0.00  0.00    +0.000 A 
ATOM     17  C   UNL     1      -2.720  12.085  23.476  0.00  0.00    +0.000 A 
ATOM     18  C   UNL     1      -1.406  12.077  22.991  0.00  0.00    +0.000 A 
BRANCH  16  19
ATOM     19  C   UNL     1      -5.104  12.868  23.350  0.00  0.00    +0.000 C 
ATOM     20  N   UNL     1      -6.083  13.466  22.743  0.00  0.00    +0.000 NA
ATOM     21  N   UNL     1      -5.397  12.358  24.579  0.00  0.00    +0.000 N 
ATOM     22  H   UNL     1      -5.801  13.794  21.817  0.00  0.00    +0.000 HD
ATOM     23  H   UNL     1      -4.663  12.412  25.270  0.00  0.00    +0.000 HD
ATOM     24  H   UNL     1      -6.281  12.732  24.913  0.00  0.00    +0.000 HD
ENDBRANCH  16  19
ENDBRANCH   7  13
BRANCH   1  26
ATOM     25  C   UNL     1       2.051   8.812  17.643  0.00  0.00    +0.000 C 
ATOM     26  C   UNL     1       2.264  10.007  18.211  0.00  0.00    +0.000 C 
ENDBRANCH   1  26
BRANCH   6  27
ATOM     27  C   UNL     1      -0.809   9.684  17.975  0.00  0.00    +0.000 C 
BRANCH  27  28
ATOM     28  C   UNL     1      -2.125  10.334  17.592  0.00  0.00    +0.000 A 
ATOM     29  C   UNL     1      -2.605  10.267  16.272  0.00  0.00    +0.000 A 
ATOM     30  C   UNL     1      -3.795  10.907  15.911  0.00  0.00    +0.000 A 
ATOM     31  C   UNL     1      -4.508  11.614  16.870  0.00  0.00    +0.000 A 
ATOM     32  F   UNL     1      -5.634  12.255  16.519  0.00  0.00    +0.000 F 
ATOM     33  C   UNL     1      -4.071  11.670  18.186  0.00  0.00    +0.000 A 
ATOM     34  C   UNL     1      -2.880  11.037  18.547  0.00  0.00    +0.000 A 
ENDBRANCH  27  28
ENDBRANCH   6  27
TORSDOF 5
ENDMDL
MODEL 6
REMARK VINA RESULT:      -7.2      7.650     11.920
REMARK  Name = 
REMARK  5 active torsions:
REMARK  status: ('A' for Active; 'I' for Inactive)
REMARK    1  A    between atoms: C_2  and  C_3
REMARK    2  A    between atoms: N_8  and  C_9
REMARK    3  A    between atoms: C_9  and  C_10
REMARK    4  A    between atoms: C_17  and  C_18
REMARK    5  A    between atoms: C_21  and  C_22
REMARK                            x       y       z     vdW  Elec       q    Type
REMARK                         _______ _______ _______ _____ _____    ______ ____
ROOT
ATOM      1  C   UNL     1       0.195  12.453  19.262  0.00  0.00    +0.000 C 
ATOM      2  C   UNL     1       0.126  13.749  20.078  0.00  0.00    +0.000 C 
ATOM      3  C   UNL     1      -0.336  13.326  21.481  0.00  0.00    +0.000 C 
ATOM      4  C   UNL     1      -0.822  11.890  21.279  0.00  0.00    +0.000 C 
ATOM      5  O   UNL     1      -1.113  11.094  22.154  0.00  0.00    +0.000 OA
ATOM      6  N   UNL     1      -0.767  11.602  19.921  0.00  0.00    +0.000 N 
ATOM      7  C   UNL     1      -1.385  14.377  21.915  0.00  0.00    +0.000 C 
ATOM      8  N   UNL     1      -1.620  15.261  20.752  0.00  0.00    +0.000 NA
ATOM      9  C   UNL     1      -1.129  16.629  20.913  0.00  0.00    +0.000 C 
ATOM     10  C   UNL     1      -0.956  17.101  19.479  0.00  0.00    +0.000 C 
ATOM     11  C   UNL     1      -0.430  15.869  18.759  0.00  0.00    +0.000 C 
ATOM     12  C   UNL     1      -0.966  14.687  19.571  0.00  0.00    +0.000 C 
ENDROOT
BRANCH   7  13
ATOM     13  C   UNL     1      -2.658  13.780  22.510  0.00  0.00    +0.000 A 
ATOM     14  C   UNL     1      -3.726  13.491  21.641  0.00  0.00    +0.000 A 
ATOM     15  C   UNL     1      -4.986  13.141  22.134  0.00  0.00    +0.000 A 
ATOM     16  C   UNL     1      -5.187  13.002  23.508  0.00  0.00    +0.000 A 
ATOM     17  C   UNL     1      -4.108  13.195  24.379  0.00  0.00    +0.000 A 
ATOM     18  C   UNL     1      -2.856  13.583  23.883  0.00  0.00    +0.000 A 
BRANCH  16  19
ATOM     19  C   UNL     1      -6.548  12.703  24.042  0.00  0.00    +0.000 C 
ATOM     20  N   UNL     1      -7.132  11.552  23.902  0.00  0.00    +0.000 NA
ATOM     21  N   UNL     1      -7.273  13.655  24.695  0.00  0.00    +0.000 N 
ATOM     22  H   UNL     1      -6.520  10.880  23.435  0.00  0.00    +0.000 HD
ATOM     23  H   UNL     1      -7.165  14.602  24.361  0.00  0.00    +0.000 HD
ATOM     24  H   UNL     1      -8.246  13.370  24.763  0.00  0.00    +0.000 HD
ENDBRANCH  16  19
ENDBRANCH   7  13
BRANCH   1  26
ATOM     25  C   UNL     1       2.171  11.147  18.374  0.00  0.00    +0.000 C 
ATOM     26  C   UNL     1       1.546  11.788  19.370  0.00  0.00    +0.000 C 
ENDBRANCH   1  26
BRANCH   6  27
ATOM     27  C   UNL     1      -1.186  10.324  19.362  0.00  0.00    +0.000 C 
BRANCH  27  28
ATOM     28  C   UNL     1      -2.044  10.510  18.126  0.00  0.00    +0.000 A 
ATOM     29  C   UNL     1      -3.188  11.327  18.159  0.00  0.00    +0.000 A 
ATOM     30  C   UNL     1      -4.004  11.460  17.031  0.00  0.00    +0.000 A 
ATOM     31  C   UNL     1      -3.676  10.777  15.867  0.00  0.00    +0.000 A 
ATOM     32  F   UNL     1      -4.474  10.879  14.792  0.00  0.00    +0.000 F 
ATOM     33  C   UNL     1      -2.536   9.990  15.800  0.00  0.00    +0.000 A 
ATOM     34  C   UNL     1      -1.723   9.850  16.927  0.00  0.00    +0.000 A 
ENDBRANCH  27  28
ENDBRANCH   6  27
TORSDOF 5
ENDMDL
MODEL 7
REMARK VINA RESULT:      -7.1      6.546     10.449
REMARK  Name = 
REMARK  5 active torsions:
REMARK  status: ('A' for Active; 'I' for Inactive)
REMARK    1  A    between atoms: C_2  and  C_3
REMARK    2  A    between atoms: N_8  and  C_9
REMARK    3  A    between atoms: C_9  and  C_10
REMARK    4  A    between atoms: C_17  and  C_18
REMARK    5  A    between atoms: C_21  and  C_22
REMARK                            x       y       z     vdW  Elec       q    Type
REMARK                         _______ _______ _______ _____ _____    ______ ____
ROOT
ATOM      1  C   UNL     1       1.065  10.821  18.507  0.00  0.00    +0.000 C 
ATOM      2  C   UNL     1       1.580  11.945  19.412  0.00  0.00    +0.000 C 
ATOM      3  C   UNL     1       0.892  11.728  20.768  0.00  0.00    +0.000 C 
ATOM      4  C   UNL     1      -0.210  10.717  20.451  0.00  0.00    +0.000 C 
ATOM      5  O   UNL     1      -0.897  10.117  21.259  0.00  0.00    +0.000 OA
ATOM      6  N   UNL     1      -0.223  10.507  19.079  0.00  0.00    +0.000 N 
ATOM      7  C   UNL     1       0.453  13.130  21.250  0.00  0.00    +0.000 C 
ATOM      8  N   UNL     1       0.738  14.076  20.148  0.00  0.00    +0.000 NA
ATOM      9  C   UNL     1       1.815  15.028  20.419  0.00  0.00    +0.000 C 
ATOM     10  C   UNL     1       2.274  15.429  19.028  0.00  0.00    +0.000 C 
ATOM     11  C   UNL     1       2.186  14.135  18.235  0.00  0.00    +0.000 C 
ATOM     12  C   UNL     1       1.102  13.318  18.946  0.00  0.00    +0.000 C 
ENDROOT
BRANCH   7  13
ATOM     13  C   UNL     1      -0.981  13.192  21.768  0.00  0.00    +0.000 A 
ATOM     14  C   UNL     1      -1.251  12.667  23.045  0.00  0.00    +0.000 A 
ATOM     15  C   UNL     1      -2.562  12.500  23.497  0.00  0.00    +0.000 A 
ATOM     16  C   UNL     1      -3.634  12.923  22.709  0.00  0.00    +0.000 A 
ATOM     17  C   UNL     1      -3.377  13.533  21.476  0.00  0.00    +0.000 A 
ATOM     18  C   UNL     1      -2.061  13.664  21.010  0.00  0.00    +0.000 A 
BRANCH  16  19
ATOM     19  C   UNL     1      -5.038  12.679  23.156  0.00  0.00    +0.000 C 
ATOM     20  N   UNL     1      -5.387  12.609  24.403  0.00  0.00    +0.000 NA
ATOM     21  N   UNL     1      -6.039  12.484  22.252  0.00  0.00    +0.000 N 
ATOM     22  H   UNL     1      -4.596  12.797  25.022  0.00  0.00    +0.000 HD
ATOM     23  H   UNL     1      -5.787  11.989  21.408  0.00  0.00    +0.000 HD
ATOM     24  H   UNL     1      -6.855  12.089  22.711  0.00  0.00    +0.000 HD
ENDBRANCH  16  19
ENDBRANCH   7  13
BRANCH   1  26
ATOM     25  C   UNL     1       2.206   8.761  17.581  0.00  0.00    +0.000 C 
ATOM     26  C   UNL     1       1.922   9.582  18.601  0.00  0.00    +0.000 C 
ENDBRANCH   1  26
BRANCH   6  27
ATOM     27  C   UNL     1      -1.171   9.620  18.419  0.00  0.00    +0.000 C 
BRANCH  27  28
ATOM     28  C   UNL     1      -2.367  10.382  17.882  0.00  0.00    +0.000 A 
ATOM     29  C   UNL     1      -3.184  11.140  18.739  0.00  0.00    +0.000 A 
ATOM     30  C   UNL     1      -4.313  11.804  18.249  0.00  0.00    +0.000 A 
ATOM     31  C   UNL     1      -4.627  11.711  16.900  0.00  0.00    +0.000 A 
ATOM     32  F   UNL     1      -5.727  12.323  16.432  0.00  0.00    +0.000 F 
ATOM     33  C   UNL     1      -3.820  10.995  16.027  0.00  0.00    +0.000 A 
ATOM     34  C   UNL     1      -2.696  10.326  16.516  0.00  0.00    +0.000 A 
ENDBRANCH  27  28
ENDBRANCH   6  27
TORSDOF 5
ENDMDL
MODEL 8
REMARK VINA RESULT:      -6.9      8.453     12.096
REMARK  Name = 
REMARK  5 active torsions:
REMARK  status: ('A' for Active; 'I' for Inactive)
REMARK    1  A    between atoms: C_2  and  C_3
REMARK    2  A    between atoms: N_8  and  C_9
REMARK    3  A    between atoms: C_9  and  C_10
REMARK    4  A    between atoms: C_17  and  C_18
REMARK    5  A    between atoms: C_21  and  C_22
REMARK                            x       y       z     vdW  Elec       q    Type
REMARK                         _______ _______ _______ _____ _____    ______ ____
ROOT
ATOM      1  C   UNL     1       0.621  13.644  18.601  0.00  0.00    +0.000 C 
ATOM      2  C   UNL     1       0.589  14.973  19.364  0.00  0.00    +0.000 C 
ATOM      3  C   UNL     1       0.286  14.599  20.824  0.00  0.00    +0.000 C 
ATOM      4  C   UNL     1      -0.166  13.141  20.733  0.00  0.00    +0.000 C 
ATOM      5  O   UNL     1      -0.339  12.377  21.666  0.00  0.00    +0.000 OA
ATOM      6  N   UNL     1      -0.239  12.794  19.390  0.00  0.00    +0.000 N 
ATOM      7  C   UNL     1      -0.751  15.635  21.319  0.00  0.00    +0.000 C 
ATOM      8  N   UNL     1      -1.134  16.457  20.151  0.00  0.00    +0.000 NA
ATOM      9  C   UNL     1      -0.679  17.847  20.203  0.00  0.00    +0.000 C 
ATOM     10  C   UNL     1      -0.669  18.258  18.741  0.00  0.00    +0.000 C 
ATOM     11  C   UNL     1      -0.174  17.013  18.023  0.00  0.00    +0.000 C 
ATOM     12  C   UNL     1      -0.583  15.852  18.934  0.00  0.00    +0.000 C 
ENDROOT
BRANCH   7  13
ATOM     13  C   UNL     1      -1.934  15.025  22.066  0.00  0.00    +0.000 A 
ATOM     14  C   UNL     1      -1.791  14.765  23.441  0.00  0.00    +0.000 A 
ATOM     15  C   UNL     1      -2.746  14.024  24.141  0.00  0.00    +0.000 A 
ATOM     16  C   UNL     1      -3.905  13.587  23.497  0.00  0.00    +0.000 A 
ATOM     17  C   UNL     1      -4.105  13.920  22.151  0.00  0.00    +0.000 A 
ATOM     18  C   UNL     1      -3.126  14.631  21.443  0.00  0.00    +0.000 A 
BRANCH  16  19
ATOM     19  C   UNL     1      -4.891  12.732  24.221  0.00  0.00    +0.000 C 
ATOM     20  N   UNL     1      -4.693  12.273  25.418  0.00  0.00    +0.000 NA
ATOM     21  N   UNL     1      -6.064  12.360  23.634  0.00  0.00    +0.000 N 
ATOM     22  H   UNL     1      -3.814  12.618  25.807  0.00  0.00    +0.000 HD
ATOM     23  H   UNL     1      -6.029  12.189  22.638  0.00  0.00    +0.000 HD
ATOM     24  H   UNL     1      -6.487  11.593  24.150  0.00  0.00    +0.000 HD
ENDBRANCH  16  19
ENDBRANCH   7  13
BRANCH   1  26
ATOM     25  C   UNL     1       3.137  13.683  18.336  0.00  0.00    +0.000 C 
ATOM     26  C   UNL     1       1.998  13.027  18.597  0.00  0.00    +0.000 C 
ENDBRANCH   1  26
BRANCH   6  27
ATOM     27  C   UNL     1      -0.666  11.479  18.931  0.00  0.00    +0.000 C 
BRANCH  27  28
ATOM     28  C   UNL     1      -2.087  11.507  18.404  0.00  0.00    +0.000 A 
ATOM     29  C   UNL     1      -2.371  11.150  17.074  0.00  0.00    +0.000 A 
ATOM     30  C   UNL     1      -3.676  11.222  16.577  0.00  0.00    +0.000 A 
ATOM     31  C   UNL     1      -4.701  11.649  17.411  0.00  0.00    +0.000 A 
ATOM     32  F   UNL     1      -5.950  11.747  16.928  0.00  0.00    +0.000 F 
ATOM     33  C   UNL     1      -4.453  11.977  18.736  0.00  0.00    +0.000 A 
ATOM     34  C   UNL     1      -3.148  11.912  19.232  0.00  0.00    +0.000 A 
ENDBRANCH  27  28
ENDBRANCH   6  27
TORSDOF 5
ENDMDL
MODEL 9
REMARK VINA RESULT:      -6.9      8.216     12.241
REMARK  Name = 
REMARK  5 active torsions:
REMARK  status: ('A' for Active; 'I' for Inactive)
REMARK    1  A    between atoms: C_2  and  C_3
REMARK    2  A    between atoms: N_8  and  C_9
REMARK    3  A    between atoms: C_9  and  C_10
REMARK    4  A    between atoms: C_17  and  C_18
REMARK    5  A    between atoms: C_21  and  C_22
REMARK                            x       y       z     vdW  Elec       q    Type
REMARK                         _______ _______ _______ _____ _____    ______ ____
ROOT
ATOM      1  C   UNL     1       0.775  13.724  19.356  0.00  0.00    +0.000 C 
ATOM      2  C   UNL     1       0.446  15.152  19.804  0.00  0.00    +0.000 C 
ATOM      3  C   UNL     1      -0.046  15.022  21.254  0.00  0.00    +0.000 C 
ATOM      4  C   UNL     1      -0.284  13.521  21.418  0.00  0.00    +0.000 C 
ATOM      5  O   UNL     1      -0.510  12.932  22.460  0.00  0.00    +0.000 OA
ATOM      6  N   UNL     1      -0.087  12.914  20.184  0.00  0.00    +0.000 N 
ATOM      7  C   UNL     1      -1.275  15.954  21.370  0.00  0.00    +0.000 C 
ATOM      8  N   UNL     1      -1.560  16.464  20.011  0.00  0.00    +0.000 NA
ATOM      9  C   UNL     1      -1.303  17.892  19.825  0.00  0.00    +0.000 C 
ATOM     10  C   UNL     1      -1.103  18.011  18.324  0.00  0.00    +0.000 C 
ATOM     11  C   UNL     1      -0.339  16.747  17.964  0.00  0.00    +0.000 C 
ATOM     12  C   UNL     1      -0.741  15.732  19.039  0.00  0.00    +0.000 C 
ENDROOT
BRANCH   7  13
ATOM     13  C   UNL     1      -2.478  15.318  22.061  0.00  0.00    +0.000 A 
ATOM     14  C   UNL     1      -2.537  15.361  23.466  0.00  0.00    +0.000 A 
ATOM     15  C   UNL     1      -3.492  14.625  24.173  0.00  0.00    +0.000 A 
ATOM     16  C   UNL     1      -4.457  13.887  23.486  0.00  0.00    +0.000 A 
ATOM     17  C   UNL     1      -4.467  13.910  22.086  0.00  0.00    +0.000 A 
ATOM     18  C   UNL     1      -3.485  14.618  21.382  0.00  0.00    +0.000 A 
BRANCH  16  19
ATOM     19  C   UNL     1      -5.432  13.041  24.237  0.00  0.00    +0.000 C 
ATOM     20  N   UNL     1      -6.708  13.275  24.261  0.00  0.00    +0.000 NA
ATOM     21  N   UNL     1      -5.015  11.973  24.974  0.00  0.00    +0.000 N 
ATOM     22  H   UNL     1      -6.952  14.066  23.662  0.00  0.00    +0.000 HD
ATOM     23  H   UNL     1      -4.121  12.072  25.435  0.00  0.00    +0.000 HD
ATOM     24  H   UNL     1      -5.752  11.673  25.606  0.00  0.00    +0.000 HD
ENDBRANCH  16  19
ENDBRANCH   7  13
BRANCH   1  26
ATOM     25  C   UNL     1       3.285  14.042  19.300  0.00  0.00    +0.000 C 
ATOM     26  C   UNL     1       2.202  13.346  19.672  0.00  0.00    +0.000 C 
ENDBRANCH   1  26
BRANCH   6  27
ATOM     27  C   UNL     1      -0.259  11.485  19.964  0.00  0.00    +0.000 C 
BRANCH  27  28
ATOM     28  C   UNL     1      -1.337  11.205  18.935  0.00  0.00    +0.000 A 
ATOM     29  C   UNL     1      -1.128  10.269  17.907  0.00  0.00    +0.000 A 
ATOM     30  C   UNL     1      -2.106  10.047  16.932  0.00  0.00    +0.000 A 
ATOM     31  C   UNL     1      -3.297  10.759  16.986  0.00  0.00    +0.000 A 
ATOM     32  F   UNL     1      -4.225  10.569  16.035  0.00  0.00    +0.000 F 
ATOM     33  C   UNL     1      -3.540  11.665  18.008  0.00  0.00    +0.000 A 
ATOM     34  C   UNL     1      -2.562  11.893  18.978  0.00  0.00    +0.000 A 
ENDBRANCH  27  28
ENDBRANCH   6  27
TORSDOF 5
ENDMDL
