MODEL 1
REMARK VINA RESULT:      -8.7      0.000      0.000
REMARK  Name = 
REMARK  7 active torsions:
REMARK  status: ('A' for Active; 'I' for Inactive)
REMARK    1  A    between atoms: C_5  and  S_6
REMARK    2  A    between atoms: S_6  and  C_9
REMARK    3  A    between atoms: C_12  and  C_13
REMARK    4  A    between atoms: C_16  and  C_17
REMARK    5  A    between atoms: C_17  and  O_18
REMARK    6  A    between atoms: C_17  and  C_19
REMARK    7  A    between atoms: C_17  and  C_23
REMARK                            x       y       z     vdW  Elec       q    Type
REMARK                         _______ _______ _______ _____ _____    ______ ____
ROOT
ATOM      1  C   UNL     1       0.119  10.570  19.771  0.00  0.00    +0.000 A 
ATOM      2  C   UNL     1       0.089   9.602  20.748  0.00  0.00    +0.000 A 
ATOM      3  N   UNL     1       0.917   8.515  20.541  0.00  0.00    +0.000 NA
ATOM      4  C   UNL     1       1.573   8.652  19.404  0.00  0.00    +0.000 A 
ATOM      5  S   UNL     1       1.232  10.117  18.553  0.00  0.00    +0.000 S 
ENDROOT
BRANCH   4   6
ATOM      6  C   UNL     1       2.555   7.677  18.897  0.00  0.00    +0.000 A 
ATOM      7  C   UNL     1       3.277   7.872  17.716  0.00  0.00    +0.000 A 
ATOM      8  C   UNL     1       4.207   6.921  17.275  0.00  0.00    +0.000 A 
ATOM      9  C   UNL     1       4.458   5.744  18.005  0.00  0.00    +0.000 A 
ATOM     10  C   UNL     1       3.706   5.536  19.174  0.00  0.00    +0.000 A 
ATOM     11  C   UNL     1       2.771   6.486  19.607  0.00  0.00    +0.000 A 
BRANCH   9  12
ATOM     12  C   UNL     1       5.537   4.731  17.565  0.00  0.00    +0.000 C 
BRANCH  12  13
ATOM     13  C   UNL     1       5.207   4.108  16.180  0.00  0.00    +0.000 C 
ATOM     14  F   UNL     1       5.165   5.033  15.188  0.00  0.00    +0.000 F 
ATOM     15  F   UNL     1       6.011   3.125  15.747  0.00  0.00    +0.000 F 
ATOM     16  F   UNL     1       3.945   3.584  16.221  0.00  0.00    +0.000 F 
ENDBRANCH  12  13
BRANCH  12  17
ATOM     17  C   UNL     1       6.962   5.350  17.555  0.00  0.00    +0.000 C 
ATOM     18  F   UNL     1       7.202   6.113  18.653  0.00  0.00    +0.000 F 
ATOM     19  F   UNL     1       7.921   4.387  17.566  0.00  0.00    +0.000 F 
ATOM     20  F   UNL     1       7.244   6.138  16.499  0.00  0.00    +0.000 F 
ENDBRANCH  12  17
BRANCH  12  21
ATOM     21  O   UNL     1       5.500   3.655  18.579  0.00  0.00    +0.000 OA
ATOM     22  H   UNL     1       4.689   3.785  19.111  0.00  0.00    +0.000 HD
ENDBRANCH  12  21
ENDBRANCH   9  12
ENDBRANCH   4   6
BRANCH   1  23
ATOM     23  S   UNL     1      -0.729  12.098  19.591  0.00  0.00    +0.000 S 
ATOM     24  O   UNL     1      -0.017  12.822  18.557  0.00  0.00    +0.000 OA
ATOM     25  O   UNL     1      -0.850  12.620  20.940  0.00  0.00    +0.000 OA
BRANCH  23  30
ATOM     26  N   UNL     1      -6.218  11.029  17.800  0.00  0.00    +0.000 N 
ATOM     27  C   UNL     1      -4.907  11.222  18.218  0.00  0.00    +0.000 A 
ATOM     28  C   UNL     1      -3.863  10.534  17.611  0.00  0.00    +0.000 A 
ATOM     29  C   UNL     1      -2.556  10.784  18.024  0.00  0.00    +0.000 A 
ATOM     30  C   UNL     1      -2.347  11.728  19.024  0.00  0.00    +0.000 A 
ATOM     31  C   UNL     1      -3.436  12.363  19.587  0.00  0.00    +0.000 A 
ATOM     32  N   UNL     1      -4.711  12.130  19.190  0.00  0.00    +0.000 NA
ATOM     33  H   UNL     1      -6.483  10.052  17.813  0.00  0.00    +0.000 HD
ATOM     34  H   UNL     1      -6.813  11.588  18.407  0.00  0.00    +0.000 HD
ENDBRANCH  23  30
ENDBRANCH   1  23
TORSDOF 7
ENDMDL
MODEL 2
REMARK VINA RESULT:      -8.4      5.542      9.674
REMARK  Name = 
REMARK  7 active torsions:
REMARK  status: ('A' for Active; 'I' for Inactive)
REMARK    1  A    between atoms: C_5  and  S_6
REMARK    2  A    between atoms: S_6  and  C_9
REMARK    3  A    between atoms: C_12  and  C_13
REMARK    4  A    between atoms: C_16  and  C_17
REMARK    5  A    between atoms: C_17  and  O_18
REMARK    6  A    between atoms: C_17  and  C_19
REMARK    7  A    between atoms: C_17  and  C_23
REMARK                            x       y       z     vdW  Elec       q    Type
REMARK                         _______ _______ _______ _____ _____    ______ ____
ROOT
ATOM      1  C   UNL     1       3.334   4.548  19.377  0.00  0.00    +0.000 A 
ATOM      2  C   UNL     1       2.476   4.617  20.451  0.00  0.00    +0.000 A 
ATOM      3  N   UNL     1       1.855   5.836  20.645  0.00  0.00    +0.000 NA
ATOM      4  C   UNL     1       2.243   6.697  19.722  0.00  0.00    +0.000 A 
ATOM      5  S   UNL     1       3.356   6.055  18.568  0.00  0.00    +0.000 S 
ENDROOT
BRANCH   4   6
ATOM      6  C   UNL     1       1.749   8.083  19.630  0.00  0.00    +0.000 A 
ATOM      7  C   UNL     1       1.857   8.850  18.466  0.00  0.00    +0.000 A 
ATOM      8  C   UNL     1       1.368  10.162  18.421  0.00  0.00    +0.000 A 
ATOM      9  C   UNL     1       0.743  10.752  19.535  0.00  0.00    +0.000 A 
ATOM     10  C   UNL     1       0.667   9.990  20.713  0.00  0.00    +0.000 A 
ATOM     11  C   UNL     1       1.165   8.680  20.757  0.00  0.00    +0.000 A 
BRANCH   9  12
ATOM     12  C   UNL     1       0.133  12.170  19.466  0.00  0.00    +0.000 C 
BRANCH  12  13
ATOM     13  C   UNL     1      -1.364  12.171  19.885  0.00  0.00    +0.000 C 
ATOM     14  F   UNL     1      -2.127  11.375  19.095  0.00  0.00    +0.000 F 
ATOM     15  F   UNL     1      -1.642  11.827  21.152  0.00  0.00    +0.000 F 
ATOM     16  F   UNL     1      -1.870  13.428  19.705  0.00  0.00    +0.000 F 
ENDBRANCH  12  13
BRANCH  12  17
ATOM     17  C   UNL     1       0.933  13.200  20.311  0.00  0.00    +0.000 C 
ATOM     18  F   UNL     1       0.554  13.205  21.615  0.00  0.00    +0.000 F 
ATOM     19  F   UNL     1       2.262  12.908  20.320  0.00  0.00    +0.000 F 
ATOM     20  F   UNL     1       0.841  14.480  19.902  0.00  0.00    +0.000 F 
ENDBRANCH  12  17
BRANCH  12  21
ATOM     21  O   UNL     1       0.217  12.563  18.043  0.00  0.00    +0.000 OA
ATOM     22  H   UNL     1      -0.476  13.236  17.886  0.00  0.00    +0.000 HD
ENDBRANCH  12  21
ENDBRANCH   9  12
ENDBRANCH   4   6
BRANCH   1  23
ATOM     23  S   UNL     1       4.327   3.248  18.737  0.00  0.00    +0.000 S 
ATOM     24  O   UNL     1       3.400   2.286  18.177  0.00  0.00    +0.000 OA
ATOM     25  O   UNL     1       5.227   2.896  19.820  0.00  0.00    +0.000 OA
BRANCH  23  30
ATOM     26  N   UNL     1       7.754   5.528  14.548  0.00  0.00    +0.000 N 
ATOM     27  C   UNL     1       6.894   5.014  15.512  0.00  0.00    +0.000 A 
ATOM     28  C   UNL     1       5.642   4.528  15.156  0.00  0.00    +0.000 A 
ATOM     29  C   UNL     1       4.823   3.980  16.141  0.00  0.00    +0.000 A 
ATOM     30  C   UNL     1       5.300   3.929  17.446  0.00  0.00    +0.000 A 
ATOM     31  C   UNL     1       6.552   4.442  17.724  0.00  0.00    +0.000 A 
ATOM     32  N   UNL     1       7.358   4.974  16.774  0.00  0.00    +0.000 NA
ATOM     33  H   UNL     1       7.317   6.256  13.997  0.00  0.00    +0.000 HD
ATOM     34  H   UNL     1       8.582   5.866  15.033  0.00  0.00    +0.000 HD
ENDBRANCH  23  30
ENDBRANCH   1  23
TORSDOF 7
ENDMDL
MODEL 3
REMARK VINA RESULT:      -8.4      5.571      9.668
REMARK  Name = 
REMARK  7 active torsions:
REMARK  status: ('A' for Active; 'I' for Inactive)
REMARK    1  A    between atoms: C_5  and  S_6
REMARK    2  A    between atoms: S_6  and  C_9
REMARK    3  A    between atoms: C_12  and  C_13
REMARK    4  A    between atoms: C_16  and  C_17
REMARK    5  A    between atoms: C_17  and  O_18
REMARK    6  A    between atoms: C_17  and  C_19
REMARK    7  A    between atoms: C_17  and  C_23
REMARK                            x       y       z     vdW  Elec       q    Type
REMARK                         _______ _______ _______ _____ _____    ______ ____
ROOT
ATOM      1  C   UNL     1       3.338   4.602  19.315  0.00  0.00    +0.000 A 
ATOM      2  C   UNL     1       2.434   4.669  20.351  0.00  0.00    +0.000 A 
ATOM      3  N   UNL     1       1.827   5.895  20.540  0.00  0.00    +0.000 NA
ATOM      4  C   UNL     1       2.271   6.765  19.652  0.00  0.00    +0.000 A 
ATOM      5  S   UNL     1       3.424   6.123  18.536  0.00  0.00    +0.000 S 
ENDROOT
BRANCH   4   6
ATOM      6  C   UNL     1       1.808   8.162  19.565  0.00  0.00    +0.000 A 
ATOM      7  C   UNL     1       1.156   8.811  20.617  0.00  0.00    +0.000 A 
ATOM      8  C   UNL     1       0.739  10.143  20.493  0.00  0.00    +0.000 A 
ATOM      9  C   UNL     1       0.967  10.878  19.316  0.00  0.00    +0.000 A 
ATOM     10  C   UNL     1       1.593  10.212  18.248  0.00  0.00    +0.000 A 
ATOM     11  C   UNL     1       2.002   8.877  18.374  0.00  0.00    +0.000 A 
BRANCH   9  12
ATOM     12  C   UNL     1       0.579  12.369  19.202  0.00  0.00    +0.000 C 
BRANCH  12  13
ATOM     13  C   UNL     1      -0.958  12.552  19.064  0.00  0.00    +0.000 C 
ATOM     14  F   UNL     1      -1.656  11.750  19.907  0.00  0.00    +0.000 F 
ATOM     15  F   UNL     1      -1.441  13.792  19.234  0.00  0.00    +0.000 F 
ATOM     16  F   UNL     1      -1.338  12.157  17.812  0.00  0.00    +0.000 F 
ENDBRANCH  12  13
BRANCH  12  17
ATOM     17  C   UNL     1       1.122  13.214  20.388  0.00  0.00    +0.000 C 
ATOM     18  F   UNL     1       2.375  12.841  20.758  0.00  0.00    +0.000 F 
ATOM     19  F   UNL     1       1.219  14.529  20.056  0.00  0.00    +0.000 F 
ATOM     20  F   UNL     1       0.384  13.173  21.514  0.00  0.00    +0.000 F 
ENDBRANCH  12  17
BRANCH  12  21
ATOM     21  O   UNL     1       1.217  12.845  17.955  0.00  0.00    +0.000 OA
ATOM     22  H   UNL     1       1.221  13.823  17.987  0.00  0.00    +0.000 HD
ENDBRANCH  12  21
ENDBRANCH   9  12
ENDBRANCH   4   6
BRANCH   1  23
ATOM     23  S   UNL     1       4.335   3.296  18.695  0.00  0.00    +0.000 S 
ATOM     24  O   UNL     1       3.410   2.321  18.153  0.00  0.00    +0.000 OA
ATOM     25  O   UNL     1       5.238   2.965  19.782  0.00  0.00    +0.000 OA
BRANCH  23  30
ATOM     26  N   UNL     1       7.747   5.512  14.460  0.00  0.00    +0.000 N 
ATOM     27  C   UNL     1       6.891   5.014  15.435  0.00  0.00    +0.000 A 
ATOM     28  C   UNL     1       5.625   4.551  15.096  0.00  0.00    +0.000 A 
ATOM     29  C   UNL     1       4.809   4.019  16.092  0.00  0.00    +0.000 A 
ATOM     30  C   UNL     1       5.303   3.959  17.391  0.00  0.00    +0.000 A 
ATOM     31  C   UNL     1       6.567   4.448  17.652  0.00  0.00    +0.000 A 
ATOM     32  N   UNL     1       7.370   4.965  16.690  0.00  0.00    +0.000 NA
ATOM     33  H   UNL     1       7.316   6.248  13.914  0.00  0.00    +0.000 HD
ATOM     34  H   UNL     1       8.587   5.834  14.933  0.00  0.00    +0.000 HD
ENDBRANCH  23  30
ENDBRANCH   1  23
TORSDOF 7
ENDMDL
MODEL 4
REMARK VINA RESULT:      -8.4      5.431      9.672
REMARK  Name = 
REMARK  7 active torsions:
REMARK  status: ('A' for Active; 'I' for Inactive)
REMARK    1  A    between atoms: C_5  and  S_6
REMARK    2  A    between atoms: S_6  and  C_9
REMARK    3  A    between atoms: C_12  and  C_13
REMARK    4  A    between atoms: C_16  and  C_17
REMARK    5  A    between atoms: C_17  and  O_18
REMARK    6  A    between atoms: C_17  and  C_19
REMARK    7  A    between atoms: C_17  and  C_23
REMARK                            x       y       z     vdW  Elec       q    Type
REMARK                         _______ _______ _______ _____ _____    ______ ____
ROOT
ATOM      1  C   UNL     1       3.301   4.517  19.410  0.00  0.00    +0.000 A 
ATOM      2  C   UNL     1       2.426   4.571  20.471  0.00  0.00    +0.000 A 
ATOM      3  N   UNL     1       1.818   5.793  20.685  0.00  0.00    +0.000 NA
ATOM      4  C   UNL     1       2.235   6.672  19.792  0.00  0.00    +0.000 A 
ATOM      5  S   UNL     1       3.360   6.044  18.641  0.00  0.00    +0.000 S 
ENDROOT
BRANCH   4   6
ATOM      6  C   UNL     1       1.763   8.067  19.728  0.00  0.00    +0.000 A 
ATOM      7  C   UNL     1       1.837   8.839  18.565  0.00  0.00    +0.000 A 
ATOM      8  C   UNL     1       1.369  10.160  18.546  0.00  0.00    +0.000 A 
ATOM      9  C   UNL     1       0.801  10.754  19.688  0.00  0.00    +0.000 A 
ATOM     10  C   UNL     1       0.759   9.986  20.864  0.00  0.00    +0.000 A 
ATOM     11  C   UNL     1       1.235   8.668  20.880  0.00  0.00    +0.000 A 
BRANCH   9  12
ATOM     12  C   UNL     1       0.214  12.182  19.652  0.00  0.00    +0.000 C 
BRANCH  12  13
ATOM     13  C   UNL     1       1.232  13.207  19.079  0.00  0.00    +0.000 C 
ATOM     14  F   UNL     1       2.426  13.171  19.722  0.00  0.00    +0.000 F 
ATOM     15  F   UNL     1       1.506  13.125  17.768  0.00  0.00    +0.000 F 
ATOM     16  F   UNL     1       0.757  14.469  19.296  0.00  0.00    +0.000 F 
ENDBRANCH  12  13
BRANCH  12  17
ATOM     17  C   UNL     1      -1.126  12.252  18.867  0.00  0.00    +0.000 C 
ATOM     18  F   UNL     1      -0.980  12.830  17.646  0.00  0.00    +0.000 F 
ATOM     19  F   UNL     1      -1.623  11.010  18.624  0.00  0.00    +0.000 F 
ATOM     20  F   UNL     1      -2.118  12.933  19.474  0.00  0.00    +0.000 F 
ENDBRANCH  12  17
BRANCH  12  21
ATOM     21  O   UNL     1      -0.051  12.532  21.065  0.00  0.00    +0.000 OA
ATOM     22  H   UNL     1      -0.799  11.977  21.366  0.00  0.00    +0.000 HD
ENDBRANCH  12  21
ENDBRANCH   9  12
ENDBRANCH   4   6
BRANCH   1  23
ATOM     23  S   UNL     1       4.288   3.220  18.754  0.00  0.00    +0.000 S 
ATOM     24  O   UNL     1       3.356   2.279  18.167  0.00  0.00    +0.000 OA
ATOM     25  O   UNL     1       5.174   2.838  19.838  0.00  0.00    +0.000 OA
BRANCH  23  30
ATOM     26  N   UNL     1       7.775   5.544  14.640  0.00  0.00    +0.000 N 
ATOM     27  C   UNL     1       6.901   5.022  15.586  0.00  0.00    +0.000 A 
ATOM     28  C   UNL     1       5.645   4.561  15.211  0.00  0.00    +0.000 A 
ATOM     29  C   UNL     1       4.811   4.003  16.178  0.00  0.00    +0.000 A 
ATOM     30  C   UNL     1       5.279   3.916  17.485  0.00  0.00    +0.000 A 
ATOM     31  C   UNL     1       6.536   4.404  17.783  0.00  0.00    +0.000 A 
ATOM     32  N   UNL     1       7.356   4.946  16.850  0.00  0.00    +0.000 NA
ATOM     33  H   UNL     1       7.353   6.291  14.103  0.00  0.00    +0.000 HD
ATOM     34  H   UNL     1       8.604   5.860  15.138  0.00  0.00    +0.000 HD
ENDBRANCH  23  30
ENDBRANCH   1  23
TORSDOF 7
ENDMDL
MODEL 5
REMARK VINA RESULT:      -8.4      1.235      1.799
REMARK  Name = 
REMARK  7 active torsions:
REMARK  status: ('A' for Active; 'I' for Inactive)
REMARK    1  A    between atoms: C_5  and  S_6
REMARK    2  A    between atoms: S_6  and  C_9
REMARK    3  A    between atoms: C_12  and  C_13
REMARK    4  A    between atoms: C_16  and  C_17
REMARK    5  A    between atoms: C_17  and  O_18
REMARK    6  A    between atoms: C_17  and  C_19
REMARK    7  A    between atoms: C_17  and  C_23
REMARK                            x       y       z     vdW  Elec       q    Type
REMARK                         _______ _______ _______ _____ _____    ______ ____
ROOT
ATOM      1  C   UNL     1      -0.090  10.238  19.636  0.00  0.00    +0.000 A 
ATOM      2  C   UNL     1       0.042   9.430  20.742  0.00  0.00    +0.000 A 
ATOM      3  N   UNL     1       0.966   8.409  20.631  0.00  0.00    +0.000 NA
ATOM      4  C   UNL     1       1.533   8.435  19.440  0.00  0.00    +0.000 A 
ATOM      5  S   UNL     1       0.988   9.715  18.415  0.00  0.00    +0.000 S 
ENDROOT
BRANCH   4   6
ATOM      6  C   UNL     1       2.581   7.493  19.006  0.00  0.00    +0.000 A 
ATOM      7  C   UNL     1       2.921   6.349  19.736  0.00  0.00    +0.000 A 
ATOM      8  C   UNL     1       3.919   5.476  19.282  0.00  0.00    +0.000 A 
ATOM      9  C   UNL     1       4.607   5.709  18.077  0.00  0.00    +0.000 A 
ATOM     10  C   UNL     1       4.287   6.877  17.365  0.00  0.00    +0.000 A 
ATOM     11  C   UNL     1       3.293   7.752  17.826  0.00  0.00    +0.000 A 
BRANCH   9  12
ATOM     12  C   UNL     1       5.653   4.711  17.535  0.00  0.00    +0.000 C 
BRANCH  12  13
ATOM     13  C   UNL     1       5.267   4.186  16.124  0.00  0.00    +0.000 C 
ATOM     14  F   UNL     1       3.995   3.716  16.073  0.00  0.00    +0.000 F 
ATOM     15  F   UNL     1       5.396   5.042  15.099  0.00  0.00    +0.000 F 
ATOM     16  F   UNL     1       6.050   3.106  15.826  0.00  0.00    +0.000 F 
ENDBRANCH  12  13
BRANCH  12  17
ATOM     17  C   UNL     1       7.088   5.308  17.517  0.00  0.00    +0.000 C 
ATOM     18  F   UNL     1       7.365   6.021  18.640  0.00  0.00    +0.000 F 
ATOM     19  F   UNL     1       8.031   4.330  17.466  0.00  0.00    +0.000 F 
ATOM     20  F   UNL     1       7.359   6.134  16.488  0.00  0.00    +0.000 F 
ENDBRANCH  12  17
BRANCH  12  21
ATOM     21  O   UNL     1       5.631   3.571  18.477  0.00  0.00    +0.000 OA
ATOM     22  H   UNL     1       5.010   2.907  18.115  0.00  0.00    +0.000 HD
ENDBRANCH  12  21
ENDBRANCH   9  12
ENDBRANCH   4   6
BRANCH   1  23
ATOM     23  S   UNL     1      -1.105  11.634  19.303  0.00  0.00    +0.000 S 
ATOM     24  O   UNL     1      -0.199  12.686  18.891  0.00  0.00    +0.000 OA
ATOM     25  O   UNL     1      -1.949  11.771  20.476  0.00  0.00    +0.000 OA
BRANCH  23  30
ATOM     26  N   UNL     1      -4.445  10.047  14.741  0.00  0.00    +0.000 N 
ATOM     27  C   UNL     1      -3.677  10.480  15.816  0.00  0.00    +0.000 A 
ATOM     28  C   UNL     1      -4.198  11.375  16.742  0.00  0.00    +0.000 A 
ATOM     29  C   UNL     1      -3.416  11.754  17.832  0.00  0.00    +0.000 A 
ATOM     30  C   UNL     1      -2.143  11.207  17.955  0.00  0.00    +0.000 A 
ATOM     31  C   UNL     1      -1.691  10.331  16.988  0.00  0.00    +0.000 A 
ATOM     32  N   UNL     1      -2.444   9.953  15.927  0.00  0.00    +0.000 NA
ATOM     33  H   UNL     1      -4.819  10.819  14.204  0.00  0.00    +0.000 HD
ATOM     34  H   UNL     1      -3.855   9.443  14.174  0.00  0.00    +0.000 HD
ENDBRANCH  23  30
ENDBRANCH   1  23
TORSDOF 7
ENDMDL
MODEL 6
REMARK VINA RESULT:      -8.4      0.914      1.304
REMARK  Name = 
REMARK  7 active torsions:
REMARK  status: ('A' for Active; 'I' for Inactive)
REMARK    1  A    between atoms: C_5  and  S_6
REMARK    2  A    between atoms: S_6  and  C_9
REMARK    3  A    between atoms: C_12  and  C_13
REMARK    4  A    between atoms: C_16  and  C_17
REMARK    5  A    between atoms: C_17  and  O_18
REMARK    6  A    between atoms: C_17  and  C_19
REMARK    7  A    between atoms: C_17  and  C_23
REMARK                            x       y       z     vdW  Elec       q    Type
REMARK                         _______ _______ _______ _____ _____    ______ ____
ROOT
ATOM      1  C   UNL     1       0.131  10.184  20.272  0.00  0.00    +0.000 A 
ATOM      2  C   UNL     1       0.149   9.152  21.182  0.00  0.00    +0.000 A 
ATOM      3  N   UNL     1       0.991   8.100  20.879  0.00  0.00    +0.000 NA
ATOM      4  C   UNL     1       1.610   8.326  19.735  0.00  0.00    +0.000 A 
ATOM      5  S   UNL     1       1.215   9.837  18.995  0.00  0.00    +0.000 S 
ENDROOT
BRANCH   4   6
ATOM      6  C   UNL     1       2.596   7.408  19.137  0.00  0.00    +0.000 A 
ATOM      7  C   UNL     1       3.275   7.695  17.949  0.00  0.00    +0.000 A 
ATOM      8  C   UNL     1       4.210   6.796  17.420  0.00  0.00    +0.000 A 
ATOM      9  C   UNL     1       4.509   5.581  18.064  0.00  0.00    +0.000 A 
ATOM     10  C   UNL     1       3.799   5.281  19.239  0.00  0.00    +0.000 A 
ATOM     11  C   UNL     1       2.859   6.180  19.762  0.00  0.00    +0.000 A 
BRANCH   9  12
ATOM     12  C   UNL     1       5.594   4.623  17.526  0.00  0.00    +0.000 C 
BRANCH  12  13
ATOM     13  C   UNL     1       5.248   4.106  16.102  0.00  0.00    +0.000 C 
ATOM     14  F   UNL     1       5.149   5.108  15.193  0.00  0.00    +0.000 F 
ATOM     15  F   UNL     1       6.072   3.191  15.569  0.00  0.00    +0.000 F 
ATOM     16  F   UNL     1       4.005   3.537  16.130  0.00  0.00    +0.000 F 
ENDBRANCH  12  13
BRANCH  12  17
ATOM     17  C   UNL     1       7.009   5.264  17.541  0.00  0.00    +0.000 C 
ATOM     18  F   UNL     1       7.198   6.126  16.507  0.00  0.00    +0.000 F 
ATOM     19  F   UNL     1       7.209   6.000  18.667  0.00  0.00    +0.000 F 
ATOM     20  F   UNL     1       8.039   4.397  17.481  0.00  0.00    +0.000 F 
ENDBRANCH  12  17
BRANCH  12  21
ATOM     21  O   UNL     1       5.591   3.470  18.452  0.00  0.00    +0.000 OA
ATOM     22  H   UNL     1       5.535   2.660  17.907  0.00  0.00    +0.000 HD
ENDBRANCH  12  21
ENDBRANCH   9  12
ENDBRANCH   4   6
BRANCH   1  23
ATOM     23  S   UNL     1      -0.752  11.702  20.219  0.00  0.00    +0.000 S 
ATOM     24  O   UNL     1       0.207  12.698  19.786  0.00  0.00    +0.000 OA
ATOM     25  O   UNL     1      -1.416  11.794  21.507  0.00  0.00    +0.000 OA
BRANCH  23  30
ATOM     26  N   UNL     1      -4.787  11.019  16.008  0.00  0.00    +0.000 N 
ATOM     27  C   UNL     1      -3.861  11.233  17.021  0.00  0.00    +0.000 A 
ATOM     28  C   UNL     1      -4.262  11.740  18.251  0.00  0.00    +0.000 A 
ATOM     29  C   UNL     1      -3.313  11.902  19.259  0.00  0.00    +0.000 A 
ATOM     30  C   UNL     1      -1.998  11.533  18.997  0.00  0.00    +0.000 A 
ATOM     31  C   UNL     1      -1.674  11.046  17.746  0.00  0.00    +0.000 A 
ATOM     32  N   UNL     1      -2.589  10.882  16.759  0.00  0.00    +0.000 NA
ATOM     33  H   UNL     1      -5.329  11.850  15.804  0.00  0.00    +0.000 HD
ATOM     34  H   UNL     1      -4.272  10.695  15.193  0.00  0.00    +0.000 HD
ENDBRANCH  23  30
ENDBRANCH   1  23
TORSDOF 7
ENDMDL
MODEL 7
REMARK VINA RESULT:      -8.4      1.539      2.125
REMARK  Name = 
REMARK  7 active torsions:
REMARK  status: ('A' for Active; 'I' for Inactive)
REMARK    1  A    between atoms: C_5  and  S_6
REMARK    2  A    between atoms: S_6  and  C_9
REMARK    3  A    between atoms: C_12  and  C_13
REMARK    4  A    between atoms: C_16  and  C_17
REMARK    5  A    between atoms: C_17  and  O_18
REMARK    6  A    between atoms: C_17  and  C_19
REMARK    7  A    between atoms: C_17  and  C_23
REMARK                            x       y       z     vdW  Elec       q    Type
REMARK                         _______ _______ _______ _____ _____    ______ ____
ROOT
ATOM      1  C   UNL     1       0.126  10.588  19.716  0.00  0.00    +0.000 A 
ATOM      2  C   UNL     1       0.084   9.619  20.693  0.00  0.00    +0.000 A 
ATOM      3  N   UNL     1       0.910   8.530  20.494  0.00  0.00    +0.000 NA
ATOM      4  C   UNL     1       1.577   8.665  19.363  0.00  0.00    +0.000 A 
ATOM      5  S   UNL     1       1.249  10.131  18.509  0.00  0.00    +0.000 S 
ENDROOT
BRANCH   4   6
ATOM      6  C   UNL     1       2.562   7.687  18.865  0.00  0.00    +0.000 A 
ATOM      7  C   UNL     1       3.288   7.875  17.685  0.00  0.00    +0.000 A 
ATOM      8  C   UNL     1       4.220   6.922  17.253  0.00  0.00    +0.000 A 
ATOM      9  C   UNL     1       4.467   5.750  17.991  0.00  0.00    +0.000 A 
ATOM     10  C   UNL     1       3.711   5.548  19.158  0.00  0.00    +0.000 A 
ATOM     11  C   UNL     1       2.775   6.501  19.583  0.00  0.00    +0.000 A 
BRANCH   9  12
ATOM     12  C   UNL     1       5.548   4.734  17.560  0.00  0.00    +0.000 C 
BRANCH  12  13
ATOM     13  C   UNL     1       5.219   4.097  16.181  0.00  0.00    +0.000 C 
ATOM     14  F   UNL     1       5.212   5.007  15.175  0.00  0.00    +0.000 F 
ATOM     15  F   UNL     1       6.004   3.088  15.773  0.00  0.00    +0.000 F 
ATOM     16  F   UNL     1       3.944   3.606  16.215  0.00  0.00    +0.000 F 
ENDBRANCH  12  13
BRANCH  12  17
ATOM     17  C   UNL     1       6.972   5.355  17.545  0.00  0.00    +0.000 C 
ATOM     18  F   UNL     1       7.205   6.142  18.628  0.00  0.00    +0.000 F 
ATOM     19  F   UNL     1       7.933   4.394  17.582  0.00  0.00    +0.000 F 
ATOM     20  F   UNL     1       7.259   6.120  16.474  0.00  0.00    +0.000 F 
ENDBRANCH  12  17
BRANCH  12  21
ATOM     21  O   UNL     1       5.512   3.667  18.584  0.00  0.00    +0.000 OA
ATOM     22  H   UNL     1       6.429   3.344  18.698  0.00  0.00    +0.000 HD
ENDBRANCH  12  21
ENDBRANCH   9  12
ENDBRANCH   4   6
BRANCH   1  23
ATOM     23  S   UNL     1      -0.715  12.118  19.530  0.00  0.00    +0.000 S 
ATOM     24  O   UNL     1      -1.456  12.008  18.290  0.00  0.00    +0.000 OA
ATOM     25  O   UNL     1       0.305  13.133  19.719  0.00  0.00    +0.000 OA
BRANCH  23  30
ATOM     26  N   UNL     1      -4.659  12.570  23.857  0.00  0.00    +0.000 N 
ATOM     27  C   UNL     1      -3.684  12.490  22.870  0.00  0.00    +0.000 A 
ATOM     28  C   UNL     1      -2.371  12.174  23.197  0.00  0.00    +0.000 A 
ATOM     29  C   UNL     1      -1.428  12.059  22.177  0.00  0.00    +0.000 A 
ATOM     30  C   UNL     1      -1.845  12.253  20.865  0.00  0.00    +0.000 A 
ATOM     31  C   UNL     1      -3.165  12.574  20.620  0.00  0.00    +0.000 A 
ATOM     32  N   UNL     1      -4.091  12.686  21.604  0.00  0.00    +0.000 NA
ATOM     33  H   UNL     1      -4.396  13.203  24.603  0.00  0.00    +0.000 HD
ATOM     34  H   UNL     1      -5.523  12.859  23.405  0.00  0.00    +0.000 HD
ENDBRANCH  23  30
ENDBRANCH   1  23
TORSDOF 7
ENDMDL
MODEL 8
REMARK VINA RESULT:      -8.3      5.362      9.632
REMARK  Name = 
REMARK  7 active torsions:
REMARK  status: ('A' for Active; 'I' for Inactive)
REMARK    1  A    between atoms: C_5  and  S_6
REMARK    2  A    between atoms: S_6  and  C_9
REMARK    3  A    between atoms: C_12  and  C_13
REMARK    4  A    between atoms: C_16  and  C_17
REMARK    5  A    between atoms: C_17  and  O_18
REMARK    6  A    between atoms: C_17  and  C_19
REMARK    7  A    between atoms: C_17  and  C_23
REMARK                            x       y       z     vdW  Elec       q    Type
REMARK                         _______ _______ _______ _____ _____    ______ ____
ROOT
ATOM      1  C   UNL     1       3.193   4.539  19.463  0.00  0.00    +0.000 A 
ATOM      2  C   UNL     1       2.369   4.605  20.564  0.00  0.00    +0.000 A 
ATOM      3  N   UNL     1       1.790   5.836  20.807  0.00  0.00    +0.000 NA
ATOM      4  C   UNL     1       2.176   6.709  19.895  0.00  0.00    +0.000 A 
ATOM      5  S   UNL     1       3.237   6.066  18.692  0.00  0.00    +0.000 S 
ENDROOT
BRANCH   4   6
ATOM      6  C   UNL     1       1.722   8.111  19.853  0.00  0.00    +0.000 A 
ATOM      7  C   UNL     1       1.201   8.773  20.969  0.00  0.00    +0.000 A 
ATOM      8  C   UNL     1       0.788  10.109  20.886  0.00  0.00    +0.000 A 
ATOM      9  C   UNL     1       0.889  10.836  19.686  0.00  0.00    +0.000 A 
ATOM     10  C   UNL     1       1.381  10.157  18.558  0.00  0.00    +0.000 A 
ATOM     11  C   UNL     1       1.787   8.818  18.643  0.00  0.00    +0.000 A 
BRANCH   9  12
ATOM     12  C   UNL     1       0.508  12.330  19.608  0.00  0.00    +0.000 C 
BRANCH  12  13
ATOM     13  C   UNL     1       1.635  13.177  18.954  0.00  0.00    +0.000 C 
ATOM     14  F   UNL     1       2.797  13.125  19.651  0.00  0.00    +0.000 F 
ATOM     15  F   UNL     1       1.945  12.898  17.679  0.00  0.00    +0.000 F 
ATOM     16  F   UNL     1       1.270  14.494  18.983  0.00  0.00    +0.000 F 
ENDBRANCH  12  13
BRANCH  12  17
ATOM     17  C   UNL     1      -0.841  12.559  18.870  0.00  0.00    +0.000 C 
ATOM     18  F   UNL     1      -1.587  13.536  19.448  0.00  0.00    +0.000 F 
ATOM     19  F   UNL     1      -0.641  12.966  17.588  0.00  0.00    +0.000 F 
ATOM     20  F   UNL     1      -1.649  11.484  18.793  0.00  0.00    +0.000 F 
ENDBRANCH  12  17
BRANCH  12  21
ATOM     21  O   UNL     1       0.353  12.768  21.013  0.00  0.00    +0.000 OA
ATOM     22  H   UNL     1       0.940  13.540  21.142  0.00  0.00    +0.000 HD
ENDBRANCH  12  21
ENDBRANCH   9  12
ENDBRANCH   4   6
BRANCH   1  23
ATOM     23  S   UNL     1       4.129   3.229  18.762  0.00  0.00    +0.000 S 
ATOM     24  O   UNL     1       3.163   2.351  18.133  0.00  0.00    +0.000 OA
ATOM     25  O   UNL     1       4.991   2.768  19.835  0.00  0.00    +0.000 OA
BRANCH  23  30
ATOM     26  N   UNL     1       7.736   5.574  14.765  0.00  0.00    +0.000 N 
ATOM     27  C   UNL     1       6.835   5.047  15.683  0.00  0.00    +0.000 A 
ATOM     28  C   UNL     1       5.585   4.600  15.271  0.00  0.00    +0.000 A 
ATOM     29  C   UNL     1       4.723   4.037  16.210  0.00  0.00    +0.000 A 
ATOM     30  C   UNL     1       5.157   3.932  17.527  0.00  0.00    +0.000 A 
ATOM     31  C   UNL     1       6.409   4.407  17.862  0.00  0.00    +0.000 A 
ATOM     32  N   UNL     1       7.256   4.954  16.956  0.00  0.00    +0.000 NA
ATOM     33  H   UNL     1       7.333   6.330  14.226  0.00  0.00    +0.000 HD
ATOM     34  H   UNL     1       8.554   5.878  15.287  0.00  0.00    +0.000 HD
ENDBRANCH  23  30
ENDBRANCH   1  23
TORSDOF 7
ENDMDL
MODEL 9
REMARK VINA RESULT:      -8.3      1.101      1.662
REMARK  Name = 
REMARK  7 active torsions:
REMARK  status: ('A' for Active; 'I' for Inactive)
REMARK    1  A    between atoms: C_5  and  S_6
REMARK    2  A    between atoms: S_6  and  C_9
REMARK    3  A    between atoms: C_12  and  C_13
REMARK    4  A    between atoms: C_16  and  C_17
REMARK    5  A    between atoms: C_17  and  O_18
REMARK    6  A    between atoms: C_17  and  C_19
REMARK    7  A    between atoms: C_17  and  C_23
REMARK                            x       y       z     vdW  Elec       q    Type
REMARK                         _______ _______ _______ _____ _____    ______ ____
ROOT
ATOM      1  C   UNL     1      -0.067  10.182  19.592  0.00  0.00    +0.000 A 
ATOM      2  C   UNL     1       0.108   9.421  20.725  0.00  0.00    +0.000 A 
ATOM      3  N   UNL     1       1.045   8.410  20.628  0.00  0.00    +0.000 NA
ATOM      4  C   UNL     1       1.579   8.397  19.421  0.00  0.00    +0.000 A 
ATOM      5  S   UNL     1       0.986   9.628  18.363  0.00  0.00    +0.000 S 
ENDROOT
BRANCH   4   6
ATOM      6  C   UNL     1       2.630   7.455  18.996  0.00  0.00    +0.000 A 
ATOM      7  C   UNL     1       2.970   6.316  19.732  0.00  0.00    +0.000 A 
ATOM      8  C   UNL     1       3.970   5.442  19.286  0.00  0.00    +0.000 A 
ATOM      9  C   UNL     1       4.662   5.670  18.083  0.00  0.00    +0.000 A 
ATOM     10  C   UNL     1       4.342   6.834  17.363  0.00  0.00    +0.000 A 
ATOM     11  C   UNL     1       3.345   7.709  17.816  0.00  0.00    +0.000 A 
BRANCH   9  12
ATOM     12  C   UNL     1       5.712   4.671  17.548  0.00  0.00    +0.000 C 
BRANCH  12  13
ATOM     13  C   UNL     1       5.343   4.157  16.129  0.00  0.00    +0.000 C 
ATOM     14  F   UNL     1       6.139   3.136  15.722  0.00  0.00    +0.000 F 
ATOM     15  F   UNL     1       4.079   3.752  15.937  0.00  0.00    +0.000 F 
ATOM     16  F   UNL     1       5.570   5.157  15.225  0.00  0.00    +0.000 F 
ENDBRANCH  12  13
BRANCH  12  17
ATOM     17  C   UNL     1       7.149   5.262  17.555  0.00  0.00    +0.000 C 
ATOM     18  F   UNL     1       7.440   5.900  18.718  0.00  0.00    +0.000 F 
ATOM     19  F   UNL     1       8.087   4.286  17.432  0.00  0.00    +0.000 F 
ATOM     20  F   UNL     1       7.414   6.152  16.578  0.00  0.00    +0.000 F 
ENDBRANCH  12  17
BRANCH  12  21
ATOM     21  O   UNL     1       5.672   3.525  18.482  0.00  0.00    +0.000 OA
ATOM     22  H   UNL     1       6.091   2.766  18.029  0.00  0.00    +0.000 HD
ENDBRANCH  12  21
ENDBRANCH   9  12
ENDBRANCH   4   6
BRANCH   1  23
ATOM     23  S   UNL     1      -1.113  11.548  19.233  0.00  0.00    +0.000 S 
ATOM     24  O   UNL     1      -0.228  12.628  18.849  0.00  0.00    +0.000 OA
ATOM     25  O   UNL     1      -1.994  11.657  20.382  0.00  0.00    +0.000 OA
BRANCH  23  30
ATOM     26  N   UNL     1      -4.536  10.208  14.653  0.00  0.00    +0.000 N 
ATOM     27  C   UNL     1      -3.713  10.465  15.744  0.00  0.00    +0.000 A 
ATOM     28  C   UNL     1      -2.529   9.760  15.918  0.00  0.00    +0.000 A 
ATOM     29  C   UNL     1      -1.706  10.073  16.999  0.00  0.00    +0.000 A 
ATOM     30  C   UNL     1      -2.100  11.094  17.856  0.00  0.00    +0.000 A 
ATOM     31  C   UNL     1      -3.297  11.743  17.623  0.00  0.00    +0.000 A 
ATOM     32  N   UNL     1      -4.103  11.448  16.574  0.00  0.00    +0.000 NA
ATOM     33  H   UNL     1      -4.781   9.228  14.583  0.00  0.00    +0.000 HD
ATOM     34  H   UNL     1      -5.359  10.797  14.752  0.00  0.00    +0.000 HD
ENDBRANCH  23  30
ENDBRANCH   1  23
TORSDOF 7
ENDMDL
