MODEL 1
REMARK VINA RESULT:      -7.6      0.000      0.000
REMARK  Name = 
REMARK  5 active torsions:
REMARK  status: ('A' for Active; 'I' for Inactive)
REMARK    1  A    between atoms: C_1  and  C_2
REMARK    2  A    between atoms: C_4  and  C_5
REMARK    3  A    between atoms: N_7  and  C_8
REMARK    4  A    between atoms: N_7  and  C_9
REMARK    5  A    between atoms: C_9  and  C_10
REMARK                            x       y       z     vdW  Elec       q    Type
REMARK                         _______ _______ _______ _____ _____    ______ ____
ROOT
ATOM      1  C   UNL     1       7.451   4.741  17.071  0.00  0.00    +0.000 C 
ATOM      2  O   UNL     1       8.468   4.214  17.525  0.00  0.00    +0.000 OA
ATOM      3  N   UNL     1       6.539   5.399  17.914  0.00  0.00    +0.000 N 
ATOM      4  C   UNL     1       6.865   5.513  19.329  0.00  0.00    +0.000 C 
ENDROOT
BRANCH   1   8
ATOM      5  C   UNL     1       5.588   3.532  12.493  0.00  0.00    +0.000 C 
ATOM      6  C   UNL     1       6.301   4.012  13.687  0.00  0.00    +0.000 A 
ATOM      7  C   UNL     1       6.341   3.645  15.009  0.00  0.00    +0.000 A 
ATOM      8  C   UNL     1       7.158   4.629  15.630  0.00  0.00    +0.000 A 
ATOM      9  N   UNL     1       7.664   5.454  14.702  0.00  0.00    +0.000 NA
ATOM     10  O   UNL     1       7.112   5.082  13.501  0.00  0.00    +0.000 OA
ENDBRANCH   1   8
BRANCH   3  11
ATOM     11  C   UNL     1       5.235   5.916  17.495  0.00  0.00    +0.000 C 
BRANCH  11  12
ATOM     12  C   UNL     1       4.014   5.091  17.846  0.00  0.00    +0.000 A 
ATOM     13  C   UNL     1       2.819   5.629  18.344  0.00  0.00    +0.000 A 
ATOM     14  C   UNL     1       1.739   4.795  18.658  0.00  0.00    +0.000 A 
ATOM     15  C   UNL     1       1.845   3.419  18.474  0.00  0.00    +0.000 A 
ATOM     16 BR   UNL     1       0.397   2.291  18.927  0.00  0.00    +0.000 Br
ATOM     17  C   UNL     1       3.013   2.866  17.962  0.00  0.00    +0.000 A 
ATOM     18  C   UNL     1       4.089   3.699  17.651  0.00  0.00    +0.000 A 
ENDBRANCH  11  12
ENDBRANCH   3  11
TORSDOF 3
ENDMDL
MODEL 2
REMARK VINA RESULT:      -7.3      0.427      1.099
REMARK  Name = 
REMARK  5 active torsions:
REMARK  status: ('A' for Active; 'I' for Inactive)
REMARK    1  A    between atoms: C_1  and  C_2
REMARK    2  A    between atoms: C_4  and  C_5
REMARK    3  A    between atoms: N_7  and  C_8
REMARK    4  A    between atoms: N_7  and  C_9
REMARK    5  A    between atoms: C_9  and  C_10
REMARK                            x       y       z     vdW  Elec       q    Type
REMARK                         _______ _______ _______ _____ _____    ______ ____
ROOT
ATOM      1  C   UNL     1       7.531   4.744  17.159  0.00  0.00    +0.000 C 
ATOM      2  O   UNL     1       8.546   4.185  17.576  0.00  0.00    +0.000 OA
ATOM      3  N   UNL     1       6.672   5.429  18.035  0.00  0.00    +0.000 N 
ATOM      4  C   UNL     1       7.052   5.532  19.437  0.00  0.00    +0.000 C 
ENDROOT
BRANCH   1   8
ATOM      5  C   UNL     1       5.540   3.521  12.639  0.00  0.00    +0.000 C 
ATOM      6  C   UNL     1       6.277   4.016  13.812  0.00  0.00    +0.000 A 
ATOM      7  C   UNL     1       6.393   3.627  15.123  0.00  0.00    +0.000 A 
ATOM      8  C   UNL     1       7.183   4.643  15.730  0.00  0.00    +0.000 A 
ATOM      9  N   UNL     1       7.604   5.511  14.799  0.00  0.00    +0.000 NA
ATOM     10  O   UNL     1       7.021   5.132  13.614  0.00  0.00    +0.000 OA
ENDBRANCH   1   8
BRANCH   3  11
ATOM     11  C   UNL     1       5.370   5.988  17.663  0.00  0.00    +0.000 C 
BRANCH  11  12
ATOM     12  C   UNL     1       4.144   5.147  17.952  0.00  0.00    +0.000 A 
ATOM     13  C   UNL     1       3.750   4.042  17.185  0.00  0.00    +0.000 A 
ATOM     14  C   UNL     1       2.593   3.324  17.512  0.00  0.00    +0.000 A 
ATOM     15  C   UNL     1       1.824   3.704  18.609  0.00  0.00    +0.000 A 
ATOM     16 BR   UNL     1       0.246   2.753  19.032  0.00  0.00    +0.000 Br
ATOM     17  C   UNL     1       2.207   4.784  19.397  0.00  0.00    +0.000 A 
ATOM     18  C   UNL     1       3.360   5.499  19.068  0.00  0.00    +0.000 A 
ENDBRANCH  11  12
ENDBRANCH   3  11
TORSDOF 3
ENDMDL
MODEL 3
REMARK VINA RESULT:      -7.2      2.177      2.763
REMARK  Name = 
REMARK  5 active torsions:
REMARK  status: ('A' for Active; 'I' for Inactive)
REMARK    1  A    between atoms: C_1  and  C_2
REMARK    2  A    between atoms: C_4  and  C_5
REMARK    3  A    between atoms: N_7  and  C_8
REMARK    4  A    between atoms: N_7  and  C_9
REMARK    5  A    between atoms: C_9  and  C_10
REMARK                            x       y       z     vdW  Elec       q    Type
REMARK                         _______ _______ _______ _____ _____    ______ ____
ROOT
ATOM      1  C   UNL     1       6.998   4.717  17.253  0.00  0.00    +0.000 C 
ATOM      2  O   UNL     1       8.055   4.440  17.823  0.00  0.00    +0.000 OA
ATOM      3  N   UNL     1       5.853   5.071  17.985  0.00  0.00    +0.000 N 
ATOM      4  C   UNL     1       5.966   5.183  19.433  0.00  0.00    +0.000 C 
ENDROOT
BRANCH   1   8
ATOM      5  C   UNL     1       5.849   3.526  12.441  0.00  0.00    +0.000 C 
ATOM      6  C   UNL     1       6.368   4.007  13.731  0.00  0.00    +0.000 A 
ATOM      7  C   UNL     1       6.226   3.622  15.040  0.00  0.00    +0.000 A 
ATOM      8  C   UNL     1       6.920   4.617  15.784  0.00  0.00    +0.000 A 
ATOM      9  N   UNL     1       7.533   5.466  14.947  0.00  0.00    +0.000 NA
ATOM     10  O   UNL     1       7.171   5.098  13.674  0.00  0.00    +0.000 OA
ENDBRANCH   1   8
BRANCH   3  11
ATOM     11  C   UNL     1       4.519   5.263  17.412  0.00  0.00    +0.000 C 
BRANCH  11  12
ATOM     12  C   UNL     1       3.613   6.276  18.081  0.00  0.00    +0.000 A 
ATOM     13  C   UNL     1       2.947   6.052  19.294  0.00  0.00    +0.000 A 
ATOM     14  C   UNL     1       2.114   7.036  19.841  0.00  0.00    +0.000 A 
ATOM     15  C   UNL     1       1.944   8.251  19.180  0.00  0.00    +0.000 A 
ATOM     16 BR   UNL     1       0.796   9.567  19.904  0.00  0.00    +0.000 Br
ATOM     17  C   UNL     1       2.611   8.502  17.987  0.00  0.00    +0.000 A 
ATOM     18  C   UNL     1       3.439   7.518  17.442  0.00  0.00    +0.000 A 
ENDBRANCH  11  12
ENDBRANCH   3  11
TORSDOF 3
ENDMDL
MODEL 4
REMARK VINA RESULT:      -7.0      2.135      2.675
REMARK  Name = 
REMARK  5 active torsions:
REMARK  status: ('A' for Active; 'I' for Inactive)
REMARK    1  A    between atoms: C_1  and  C_2
REMARK    2  A    between atoms: C_4  and  C_5
REMARK    3  A    between atoms: N_7  and  C_8
REMARK    4  A    between atoms: N_7  and  C_9
REMARK    5  A    between atoms: C_9  and  C_10
REMARK                            x       y       z     vdW  Elec       q    Type
REMARK                         _______ _______ _______ _____ _____    ______ ____
ROOT
ATOM      1  C   UNL     1       7.048   4.799  17.218  0.00  0.00    +0.000 C 
ATOM      2  O   UNL     1       8.140   4.612  17.754  0.00  0.00    +0.000 OA
ATOM      3  N   UNL     1       5.903   5.078  17.984  0.00  0.00    +0.000 N 
ATOM      4  C   UNL     1       6.056   5.220  19.426  0.00  0.00    +0.000 C 
ENDROOT
BRANCH   1   8
ATOM      5  C   UNL     1       5.747   3.534  12.463  0.00  0.00    +0.000 C 
ATOM      6  C   UNL     1       6.310   4.030  13.729  0.00  0.00    +0.000 A 
ATOM      7  C   UNL     1       6.195   3.676  15.050  0.00  0.00    +0.000 A 
ATOM      8  C   UNL     1       6.928   4.671  15.753  0.00  0.00    +0.000 A 
ATOM      9  N   UNL     1       7.537   5.490  14.883  0.00  0.00    +0.000 NA
ATOM     10  O   UNL     1       7.133   5.103  13.629  0.00  0.00    +0.000 OA
ENDBRANCH   1   8
BRANCH   3  11
ATOM     11  C   UNL     1       4.540   5.159  17.454  0.00  0.00    +0.000 C 
BRANCH  11  12
ATOM     12  C   UNL     1       3.641   6.243  18.011  0.00  0.00    +0.000 A 
ATOM     13  C   UNL     1       3.472   7.504  17.422  0.00  0.00    +0.000 A 
ATOM     14  C   UNL     1       2.631   8.457  18.008  0.00  0.00    +0.000 A 
ATOM     15  C   UNL     1       1.952   8.156  19.187  0.00  0.00    +0.000 A 
ATOM     16 BR   UNL     1       0.841   9.455  19.994  0.00  0.00    +0.000 Br
ATOM     17  C   UNL     1       2.089   6.905  19.778  0.00  0.00    +0.000 A 
ATOM     18  C   UNL     1       2.929   5.957  19.192  0.00  0.00    +0.000 A 
ENDBRANCH  11  12
ENDBRANCH   3  11
TORSDOF 3
ENDMDL
MODEL 5
REMARK VINA RESULT:      -7.0      3.543      5.170
REMARK  Name = 
REMARK  5 active torsions:
REMARK  status: ('A' for Active; 'I' for Inactive)
REMARK    1  A    between atoms: C_1  and  C_2
REMARK    2  A    between atoms: C_4  and  C_5
REMARK    3  A    between atoms: N_7  and  C_8
REMARK    4  A    between atoms: N_7  and  C_9
REMARK    5  A    between atoms: C_9  and  C_10
REMARK                            x       y       z     vdW  Elec       q    Type
REMARK                         _______ _______ _______ _____ _____    ______ ____
ROOT
ATOM      1  C   UNL     1       3.794   4.184  18.052  0.00  0.00    +0.000 C 
ATOM      2  O   UNL     1       3.610   3.410  17.111  0.00  0.00    +0.000 OA
ATOM      3  N   UNL     1       2.731   4.577  18.883  0.00  0.00    +0.000 N 
ATOM      4  C   UNL     1       1.421   3.984  18.655  0.00  0.00    +0.000 C 
ENDROOT
BRANCH   1   8
ATOM      5  C   UNL     1       7.952   7.114  18.194  0.00  0.00    +0.000 C 
ATOM      6  C   UNL     1       6.898   6.088  18.252  0.00  0.00    +0.000 A 
ATOM      7  C   UNL     1       5.669   5.923  17.666  0.00  0.00    +0.000 A 
ATOM      8  C   UNL     1       5.137   4.751  18.272  0.00  0.00    +0.000 A 
ATOM      9  N   UNL     1       6.055   4.198  19.078  0.00  0.00    +0.000 NA
ATOM     10  O   UNL     1       7.138   5.042  19.080  0.00  0.00    +0.000 OA
ENDBRANCH   1   8
BRANCH   3  11
ATOM     11  C   UNL     1       2.818   5.606  19.922  0.00  0.00    +0.000 C 
BRANCH  11  12
ATOM     12  C   UNL     1       2.263   6.976  19.592  0.00  0.00    +0.000 A 
ATOM     13  C   UNL     1       2.367   7.583  18.333  0.00  0.00    +0.000 A 
ATOM     14  C   UNL     1       1.838   8.861  18.112  0.00  0.00    +0.000 A 
ATOM     15  C   UNL     1       1.200   9.539  19.148  0.00  0.00    +0.000 A 
ATOM     16 BR   UNL     1       0.513  11.276  18.858  0.00  0.00    +0.000 Br
ATOM     17  C   UNL     1       1.067   8.947  20.399  0.00  0.00    +0.000 A 
ATOM     18  C   UNL     1       1.597   7.674  20.617  0.00  0.00    +0.000 A 
ENDBRANCH  11  12
ENDBRANCH   3  11
TORSDOF 3
ENDMDL
MODEL 6
REMARK VINA RESULT:      -6.9      3.506      5.088
REMARK  Name = 
REMARK  5 active torsions:
REMARK  status: ('A' for Active; 'I' for Inactive)
REMARK    1  A    between atoms: C_1  and  C_2
REMARK    2  A    between atoms: C_4  and  C_5
REMARK    3  A    between atoms: N_7  and  C_8
REMARK    4  A    between atoms: N_7  and  C_9
REMARK    5  A    between atoms: C_9  and  C_10
REMARK                            x       y       z     vdW  Elec       q    Type
REMARK                         _______ _______ _______ _____ _____    ______ ____
ROOT
ATOM      1  C   UNL     1       3.781   4.294  17.942  0.00  0.00    +0.000 C 
ATOM      2  O   UNL     1       3.572   3.597  16.949  0.00  0.00    +0.000 OA
ATOM      3  N   UNL     1       2.739   4.630  18.823  0.00  0.00    +0.000 N 
ATOM      4  C   UNL     1       1.419   4.066  18.577  0.00  0.00    +0.000 C 
ENDROOT
BRANCH   1   8
ATOM      5  C   UNL     1       7.983   7.155  18.176  0.00  0.00    +0.000 C 
ATOM      6  C   UNL     1       6.915   6.144  18.200  0.00  0.00    +0.000 A 
ATOM      7  C   UNL     1       5.681   6.018  17.613  0.00  0.00    +0.000 A 
ATOM      8  C   UNL     1       5.134   4.833  18.177  0.00  0.00    +0.000 A 
ATOM      9  N   UNL     1       6.046   4.236  18.958  0.00  0.00    +0.000 NA
ATOM     10  O   UNL     1       7.142   5.064  18.988  0.00  0.00    +0.000 OA
ENDBRANCH   1   8
BRANCH   3  11
ATOM     11  C   UNL     1       2.855   5.575  19.936  0.00  0.00    +0.000 C 
BRANCH  11  12
ATOM     12  C   UNL     1       2.242   6.948  19.750  0.00  0.00    +0.000 A 
ATOM     13  C   UNL     1       1.528   7.630  20.745  0.00  0.00    +0.000 A 
ATOM     14  C   UNL     1       0.979   8.892  20.488  0.00  0.00    +0.000 A 
ATOM     15  C   UNL     1       1.142   9.482  19.237  0.00  0.00    +0.000 A 
ATOM     16 BR   UNL     1       0.375  11.173  18.882  0.00  0.00    +0.000 Br
ATOM     17  C   UNL     1       1.864   8.832  18.242  0.00  0.00    +0.000 A 
ATOM     18  C   UNL     1       2.409   7.573  18.500  0.00  0.00    +0.000 A 
ENDBRANCH  11  12
ENDBRANCH   3  11
TORSDOF 3
ENDMDL
MODEL 7
REMARK VINA RESULT:      -6.7      3.513      5.128
REMARK  Name = 
REMARK  5 active torsions:
REMARK  status: ('A' for Active; 'I' for Inactive)
REMARK    1  A    between atoms: C_1  and  C_2
REMARK    2  A    between atoms: C_4  and  C_5
REMARK    3  A    between atoms: N_7  and  C_8
REMARK    4  A    between atoms: N_7  and  C_9
REMARK    5  A    between atoms: C_9  and  C_10
REMARK                            x       y       z     vdW  Elec       q    Type
REMARK                         _______ _______ _______ _____ _____    ______ ____
ROOT
ATOM      1  C   UNL     1       2.850   3.365  18.731  0.00  0.00    +0.000 C 
ATOM      2  O   UNL     1       2.305   2.473  18.080  0.00  0.00    +0.000 OA
ATOM      3  N   UNL     1       2.157   4.049  19.744  0.00  0.00    +0.000 N 
ATOM      4  C   UNL     1       0.802   3.621  20.063  0.00  0.00    +0.000 C 
ENDROOT
BRANCH   1   8
ATOM      5  C   UNL     1       7.067   5.257  16.601  0.00  0.00    +0.000 C 
ATOM      6  C   UNL     1       6.006   4.598  17.378  0.00  0.00    +0.000 A 
ATOM      7  C   UNL     1       4.681   4.311  17.167  0.00  0.00    +0.000 A 
ATOM      8  C   UNL     1       4.232   3.762  18.400  0.00  0.00    +0.000 A 
ATOM      9  N   UNL     1       5.266   3.626  19.242  0.00  0.00    +0.000 NA
ATOM     10  O   UNL     1       6.361   4.166  18.614  0.00  0.00    +0.000 OA
ENDBRANCH   1   8
BRANCH   3  11
ATOM     11  C   UNL     1       2.664   5.221  20.460  0.00  0.00    +0.000 C 
BRANCH  11  12
ATOM     12  C   UNL     1       2.243   6.584  19.950  0.00  0.00    +0.000 A 
ATOM     13  C   UNL     1       2.493   7.048  18.652  0.00  0.00    +0.000 A 
ATOM     14  C   UNL     1       2.082   8.329  18.262  0.00  0.00    +0.000 A 
ATOM     15  C   UNL     1       1.417   9.152  19.167  0.00  0.00    +0.000 A 
ATOM     16 BR   UNL     1       0.890  10.893  18.649  0.00  0.00    +0.000 Br
ATOM     17  C   UNL     1       1.140   8.705  20.454  0.00  0.00    +0.000 A 
ATOM     18  C   UNL     1       1.552   7.428  20.840  0.00  0.00    +0.000 A 
ENDBRANCH  11  12
ENDBRANCH   3  11
TORSDOF 3
ENDMDL
MODEL 8
REMARK VINA RESULT:      -6.6      3.037      4.538
REMARK  Name = 
REMARK  5 active torsions:
REMARK  status: ('A' for Active; 'I' for Inactive)
REMARK    1  A    between atoms: C_1  and  C_2
REMARK    2  A    between atoms: C_4  and  C_5
REMARK    3  A    between atoms: N_7  and  C_8
REMARK    4  A    between atoms: N_7  and  C_9
REMARK    5  A    between atoms: C_9  and  C_10
REMARK                            x       y       z     vdW  Elec       q    Type
REMARK                         _______ _______ _______ _____ _____    ______ ____
ROOT
ATOM      1  C   UNL     1       4.986   4.439  17.170  0.00  0.00    +0.000 C 
ATOM      2  O   UNL     1       5.008   3.897  16.064  0.00  0.00    +0.000 OA
ATOM      3  N   UNL     1       3.869   4.317  18.014  0.00  0.00    +0.000 N 
ATOM      4  C   UNL     1       2.768   3.466  17.583  0.00  0.00    +0.000 C 
ENDROOT
BRANCH   1   8
ATOM      5  C   UNL     1       8.245   8.238  18.088  0.00  0.00    +0.000 C 
ATOM      6  C   UNL     1       7.486   6.990  17.911  0.00  0.00    +0.000 A 
ATOM      7  C   UNL     1       6.375   6.620  17.195  0.00  0.00    +0.000 A 
ATOM      8  C   UNL     1       6.126   5.276  17.588  0.00  0.00    +0.000 A 
ATOM      9  N   UNL     1       7.106   4.848  18.396  0.00  0.00    +0.000 NA
ATOM     10  O   UNL     1       7.937   5.920  18.613  0.00  0.00    +0.000 OA
ENDBRANCH   1   8
BRANCH   3  11
ATOM     11  C   UNL     1       3.686   5.048  19.270  0.00  0.00    +0.000 C 
BRANCH  11  12
ATOM     12  C   UNL     1       2.941   6.365  19.206  0.00  0.00    +0.000 A 
ATOM     13  C   UNL     1       2.234   6.920  20.282  0.00  0.00    +0.000 A 
ATOM     14  C   UNL     1       1.559   8.138  20.137  0.00  0.00    +0.000 A 
ATOM     15  C   UNL     1       1.587   8.810  18.918  0.00  0.00    +0.000 A 
ATOM     16 BR   UNL     1       0.649  10.439  18.714  0.00  0.00    +0.000 Br
ATOM     17  C   UNL     1       2.298   8.288  17.843  0.00  0.00    +0.000 A 
ATOM     18  C   UNL     1       2.970   7.072  17.989  0.00  0.00    +0.000 A 
ENDBRANCH  11  12
ENDBRANCH   3  11
TORSDOF 3
ENDMDL
MODEL 9
REMARK VINA RESULT:      -6.6      1.408      1.556
REMARK  Name = 
REMARK  5 active torsions:
REMARK  status: ('A' for Active; 'I' for Inactive)
REMARK    1  A    between atoms: C_1  and  C_2
REMARK    2  A    between atoms: C_4  and  C_5
REMARK    3  A    between atoms: N_7  and  C_8
REMARK    4  A    between atoms: N_7  and  C_9
REMARK    5  A    between atoms: C_9  and  C_10
REMARK                            x       y       z     vdW  Elec       q    Type
REMARK                         _______ _______ _______ _____ _____    ______ ____
ROOT
ATOM      1  C   UNL     1       6.790   5.597  15.762  0.00  0.00    +0.000 C 
ATOM      2  O   UNL     1       7.769   6.273  16.078  0.00  0.00    +0.000 OA
ATOM      3  N   UNL     1       5.715   5.420  16.650  0.00  0.00    +0.000 N 
ATOM      4  C   UNL     1       5.750   6.123  17.925  0.00  0.00    +0.000 C 
ENDROOT
BRANCH   1   8
ATOM      5  C   UNL     1       5.750   2.650  11.746  0.00  0.00    +0.000 C 
ATOM      6  C   UNL     1       6.256   3.569  12.777  0.00  0.00    +0.000 A 
ATOM      7  C   UNL     1       6.009   3.764  14.112  0.00  0.00    +0.000 A 
ATOM      8  C   UNL     1       6.772   4.914  14.455  0.00  0.00    +0.000 A 
ATOM      9  N   UNL     1       7.516   5.297  13.407  0.00  0.00    +0.000 NA
ATOM     10  O   UNL     1       7.177   4.474  12.361  0.00  0.00    +0.000 OA
ENDBRANCH   1   8
BRANCH   3  11
ATOM     11  C   UNL     1       4.587   4.513  16.429  0.00  0.00    +0.000 C 
BRANCH  11  12
ATOM     12  C   UNL     1       3.756   4.128  17.635  0.00  0.00    +0.000 A 
ATOM     13  C   UNL     1       2.594   4.802  18.036  0.00  0.00    +0.000 A 
ATOM     14  C   UNL     1       1.890   4.391  19.175  0.00  0.00    +0.000 A 
ATOM     15  C   UNL     1       2.340   3.302  19.917  0.00  0.00    +0.000 A 
ATOM     16 BR   UNL     1       1.406   2.767  21.471  0.00  0.00    +0.000 Br
ATOM     17  C   UNL     1       3.479   2.606  19.526  0.00  0.00    +0.000 A 
ATOM     18  C   UNL     1       4.180   3.019  18.392  0.00  0.00    +0.000 A 
ENDBRANCH  11  12
ENDBRANCH   3  11
TORSDOF 3
ENDMDL
