MODEL 1
REMARK VINA RESULT:      -7.9      0.000      0.000
REMARK  Name = 
REMARK  10 active torsions:
REMARK  status: ('A' for Active; 'I' for Inactive)
REMARK    1  A    between atoms: C_1  and  O_2
REMARK    2  A    between atoms: O_2  and  C_3
REMARK    3  A    between atoms: C_7  and  C_8
REMARK    4  A    between atoms: C_8  and  N_9
REMARK    5  A    between atoms: N_9  and  C_10
REMARK    6  A    between atoms: N_9  and  C_11
REMARK    7  A    between atoms: C_11  and  C_12
REMARK    8  A    between atoms: N_14  and  C_15
REMARK    9  A    between atoms: C_20  and  C_21
REMARK   10  A    between atoms: N_23  and  C_24
REMARK                            x       y       z     vdW  Elec       q    Type
REMARK                         _______ _______ _______ _____ _____    ______ ____
ROOT
ATOM      1  C   UNL     1       5.346   4.142  18.234  0.00  0.00    +0.000 C 
ATOM      2  O   UNL     1       4.768   3.456  17.392  0.00  0.00    +0.000 OA
ATOM      3  N   UNL     1       4.776   4.527  19.431  0.00  0.00    +0.000 N 
ATOM      4  H   UNL     1       5.115   5.426  19.760  0.00  0.00    +0.000 HD
ENDROOT
BRANCH   3   5
ATOM      5  C   UNL     1       3.496   4.105  19.860  0.00  0.00    +0.000 A 
ATOM      6  C   UNL     1       3.301   2.713  19.870  0.00  0.00    +0.000 A 
ATOM      7  C   UNL     1       2.072   2.154  20.231  0.00  0.00    +0.000 A 
ATOM      8  C   UNL     1       1.007   2.981  20.556  0.00  0.00    +0.000 A 
ATOM      9  C   UNL     1       1.169   4.367  20.514  0.00  0.00    +0.000 A 
ATOM     10  C   UNL     1       2.406   4.952  20.170  0.00  0.00    +0.000 A 
BRANCH  10  11
ATOM     11  C   UNL     1       2.334   6.428  19.929  0.00  0.00    +0.000 C 
ATOM     12  O   UNL     1       2.976   6.911  18.998  0.00  0.00    +0.000 OA
ATOM     13  N   UNL     1       1.510   7.178  20.734  0.00  0.00    +0.000 N 
ATOM     14  H   UNL     1       0.854   6.679  21.334  0.00  0.00    +0.000 HD
BRANCH  13  15
ATOM     15  C   UNL     1       1.427   8.602  20.673  0.00  0.00    +0.000 C 
ATOM     16  C   UNL     1       0.101   9.296  20.809  0.00  0.00    +0.000 C 
ATOM     17  C   UNL     1       1.112   9.398  21.913  0.00  0.00    +0.000 C 
ENDBRANCH  13  15
ENDBRANCH  10  11
ENDBRANCH   3   5
BRANCH   1  18
ATOM     18  C   UNL     1       6.755   4.683  17.975  0.00  0.00    +0.000 C 
BRANCH  18  19
ATOM     19  N   UNL     1       6.848   5.599  16.811  0.00  0.00    +0.000 NA
ATOM     20  C   UNL     1       6.804   6.979  17.325  0.00  0.00    +0.000 C 
BRANCH  19  21
ATOM     21  C   UNL     1       5.725   5.388  15.862  0.00  0.00    +0.000 C 
BRANCH  21  26
ATOM     22  C   UNL     1       5.880   3.512  12.528  0.00  0.00    +0.000 A 
ATOM     23  C   UNL     1       7.075   4.005  12.002  0.00  0.00    +0.000 A 
ATOM     24  C   UNL     1       7.831   4.940  12.706  0.00  0.00    +0.000 A 
ATOM     25  C   UNL     1       7.393   5.385  13.951  0.00  0.00    +0.000 A 
ATOM     26  C   UNL     1       6.186   4.917  14.494  0.00  0.00    +0.000 A 
ATOM     27  C   UNL     1       5.433   3.973  13.767  0.00  0.00    +0.000 A 
BRANCH  22  29
ATOM     28  C   UNL     1       6.009   1.437  11.362  0.00  0.00    +0.000 C 
ATOM     29  O   UNL     1       5.260   2.584  11.737  0.00  0.00    +0.000 OA
ENDBRANCH  22  29
ENDBRANCH  21  26
ENDBRANCH  19  21
ENDBRANCH  18  19
ENDBRANCH   1  18
TORSDOF 8
ENDMDL
MODEL 2
REMARK VINA RESULT:      -7.8      2.890      8.270
REMARK  Name = 
REMARK  10 active torsions:
REMARK  status: ('A' for Active; 'I' for Inactive)
REMARK    1  A    between atoms: C_1  and  O_2
REMARK    2  A    between atoms: O_2  and  C_3
REMARK    3  A    between atoms: C_7  and  C_8
REMARK    4  A    between atoms: C_8  and  N_9
REMARK    5  A    between atoms: N_9  and  C_10
REMARK    6  A    between atoms: N_9  and  C_11
REMARK    7  A    between atoms: C_11  and  C_12
REMARK    8  A    between atoms: N_14  and  C_15
REMARK    9  A    between atoms: C_20  and  C_21
REMARK   10  A    between atoms: N_23  and  C_24
REMARK                            x       y       z     vdW  Elec       q    Type
REMARK                         _______ _______ _______ _____ _____    ______ ____
ROOT
ATOM      1  C   UNL     1       2.752   6.751  18.319  0.00  0.00    +0.000 C 
ATOM      2  O   UNL     1       1.933   6.016  17.770  0.00  0.00    +0.000 OA
ATOM      3  N   UNL     1       4.117   6.649  18.138  0.00  0.00    +0.000 N 
ATOM      4  H   UNL     1       4.647   6.927  18.959  0.00  0.00    +0.000 HD
ENDROOT
BRANCH   3   5
ATOM      5  C   UNL     1       4.721   5.742  17.237  0.00  0.00    +0.000 A 
ATOM      6  C   UNL     1       5.108   6.297  16.004  0.00  0.00    +0.000 A 
ATOM      7  C   UNL     1       5.679   5.510  15.001  0.00  0.00    +0.000 A 
ATOM      8  C   UNL     1       5.843   4.147  15.202  0.00  0.00    +0.000 A 
ATOM      9  C   UNL     1       5.430   3.570  16.404  0.00  0.00    +0.000 A 
ATOM     10  C   UNL     1       4.867   4.349  17.437  0.00  0.00    +0.000 A 
BRANCH  10  11
ATOM     11  C   UNL     1       4.253   3.543  18.540  0.00  0.00    +0.000 C 
ATOM     12  O   UNL     1       4.954   3.209  19.494  0.00  0.00    +0.000 OA
ATOM     13  N   UNL     1       2.913   3.249  18.460  0.00  0.00    +0.000 N 
ATOM     14  H   UNL     1       2.362   3.741  17.756  0.00  0.00    +0.000 HD
BRANCH  13  15
ATOM     15  C   UNL     1       2.230   2.408  19.391  0.00  0.00    +0.000 C 
ATOM     16  C   UNL     1       1.569   2.995  20.606  0.00  0.00    +0.000 C 
ATOM     17  C   UNL     1       0.727   2.450  19.490  0.00  0.00    +0.000 C 
ENDBRANCH  13  15
ENDBRANCH  10  11
ENDBRANCH   3   5
BRANCH   1  18
ATOM     18  C   UNL     1       2.302   7.821  19.318  0.00  0.00    +0.000 C 
BRANCH  18  19
ATOM     19  N   UNL     1       1.346   8.809  18.758  0.00  0.00    +0.000 NA
ATOM     20  C   UNL     1       2.107   9.722  17.887  0.00  0.00    +0.000 C 
BRANCH  19  21
ATOM     21  C   UNL     1       0.680   9.590  19.832  0.00  0.00    +0.000 C 
BRANCH  21  26
ATOM     22  C   UNL     1      -2.445  10.504  17.817  0.00  0.00    +0.000 A 
ATOM     23  C   UNL     1      -2.810  11.707  18.425  0.00  0.00    +0.000 A 
ATOM     24  C   UNL     1      -2.064  12.225  19.482  0.00  0.00    +0.000 A 
ATOM     25  C   UNL     1      -0.939  11.540  19.935  0.00  0.00    +0.000 A 
ATOM     26  C   UNL     1      -0.561  10.320  19.350  0.00  0.00    +0.000 A 
ATOM     27  C   UNL     1      -1.328   9.810  18.284  0.00  0.00    +0.000 A 
BRANCH  22  29
ATOM     28  C   UNL     1      -4.180  11.094  16.293  0.00  0.00    +0.000 C 
ATOM     29  O   UNL     1      -3.255  10.132  16.779  0.00  0.00    +0.000 OA
ENDBRANCH  22  29
ENDBRANCH  21  26
ENDBRANCH  19  21
ENDBRANCH  18  19
ENDBRANCH   1  18
TORSDOF 8
ENDMDL
MODEL 3
REMARK VINA RESULT:      -7.8      2.998      8.637
REMARK  Name = 
REMARK  10 active torsions:
REMARK  status: ('A' for Active; 'I' for Inactive)
REMARK    1  A    between atoms: C_1  and  O_2
REMARK    2  A    between atoms: O_2  and  C_3
REMARK    3  A    between atoms: C_7  and  C_8
REMARK    4  A    between atoms: C_8  and  N_9
REMARK    5  A    between atoms: N_9  and  C_10
REMARK    6  A    between atoms: N_9  and  C_11
REMARK    7  A    between atoms: C_11  and  C_12
REMARK    8  A    between atoms: N_14  and  C_15
REMARK    9  A    between atoms: C_20  and  C_21
REMARK   10  A    between atoms: N_23  and  C_24
REMARK                            x       y       z     vdW  Elec       q    Type
REMARK                         _______ _______ _______ _____ _____    ______ ____
ROOT
ATOM      1  C   UNL     1       2.694   6.737  18.345  0.00  0.00    +0.000 C 
ATOM      2  O   UNL     1       1.904   5.939  17.844  0.00  0.00    +0.000 OA
ATOM      3  N   UNL     1       4.059   6.692  18.146  0.00  0.00    +0.000 N 
ATOM      4  H   UNL     1       4.588   7.032  18.944  0.00  0.00    +0.000 HD
ENDROOT
BRANCH   3   5
ATOM      5  C   UNL     1       4.693   5.775  17.275  0.00  0.00    +0.000 A 
ATOM      6  C   UNL     1       4.978   6.274  15.991  0.00  0.00    +0.000 A 
ATOM      7  C   UNL     1       5.565   5.467  15.013  0.00  0.00    +0.000 A 
ATOM      8  C   UNL     1       5.847   4.138  15.292  0.00  0.00    +0.000 A 
ATOM      9  C   UNL     1       5.536   3.614  16.548  0.00  0.00    +0.000 A 
ATOM     10  C   UNL     1       4.960   4.415  17.556  0.00  0.00    +0.000 A 
BRANCH  10  11
ATOM     11  C   UNL     1       4.463   3.640  18.738  0.00  0.00    +0.000 C 
ATOM     12  O   UNL     1       5.266   3.298  19.604  0.00  0.00    +0.000 OA
ATOM     13  N   UNL     1       3.116   3.385  18.827  0.00  0.00    +0.000 N 
ATOM     14  H   UNL     1       2.497   3.884  18.187  0.00  0.00    +0.000 HD
BRANCH  13  15
ATOM     15  C   UNL     1       2.529   2.576  19.847  0.00  0.00    +0.000 C 
ATOM     16  C   UNL     1       2.327   3.122  21.231  0.00  0.00    +0.000 C 
ATOM     17  C   UNL     1       1.140   2.876  20.347  0.00  0.00    +0.000 C 
ENDBRANCH  13  15
ENDBRANCH  10  11
ENDBRANCH   3   5
BRANCH   1  18
ATOM     18  C   UNL     1       2.208   7.828  19.303  0.00  0.00    +0.000 C 
BRANCH  18  19
ATOM     19  N   UNL     1       1.379   8.877  18.657  0.00  0.00    +0.000 NA
ATOM     20  C   UNL     1       2.275   9.710  17.836  0.00  0.00    +0.000 C 
BRANCH  19  21
ATOM     21  C   UNL     1       0.697   9.728  19.665  0.00  0.00    +0.000 C 
BRANCH  21  26
ATOM     22  C   UNL     1      -2.387  11.980  19.385  0.00  0.00    +0.000 A 
ATOM     23  C   UNL     1      -2.919  11.550  18.168  0.00  0.00    +0.000 A 
ATOM     24  C   UNL     1      -2.293  10.546  17.432  0.00  0.00    +0.000 A 
ATOM     25  C   UNL     1      -1.125   9.961  17.916  0.00  0.00    +0.000 A 
ATOM     26  C   UNL     1      -0.562  10.387  19.130  0.00  0.00    +0.000 A 
ATOM     27  C   UNL     1      -1.208  11.404  19.860  0.00  0.00    +0.000 A 
BRANCH  22  29
ATOM     28  C   UNL     1      -4.474  12.652  20.320  0.00  0.00    +0.000 C 
ATOM     29  O   UNL     1      -3.122  12.952  20.006  0.00  0.00    +0.000 OA
ENDBRANCH  22  29
ENDBRANCH  21  26
ENDBRANCH  19  21
ENDBRANCH  18  19
ENDBRANCH   1  18
TORSDOF 8
ENDMDL
MODEL 4
REMARK VINA RESULT:      -7.6      3.728      8.751
REMARK  Name = 
REMARK  10 active torsions:
REMARK  status: ('A' for Active; 'I' for Inactive)
REMARK    1  A    between atoms: C_1  and  O_2
REMARK    2  A    between atoms: O_2  and  C_3
REMARK    3  A    between atoms: C_7  and  C_8
REMARK    4  A    between atoms: C_8  and  N_9
REMARK    5  A    between atoms: N_9  and  C_10
REMARK    6  A    between atoms: N_9  and  C_11
REMARK    7  A    between atoms: C_11  and  C_12
REMARK    8  A    between atoms: N_14  and  C_15
REMARK    9  A    between atoms: C_20  and  C_21
REMARK   10  A    between atoms: N_23  and  C_24
REMARK                            x       y       z     vdW  Elec       q    Type
REMARK                         _______ _______ _______ _____ _____    ______ ____
ROOT
ATOM      1  C   UNL     1       2.461   8.226  18.031  0.00  0.00    +0.000 C 
ATOM      2  O   UNL     1       2.600   8.729  16.918  0.00  0.00    +0.000 OA
ATOM      3  N   UNL     1       2.992   7.005  18.393  0.00  0.00    +0.000 N 
ATOM      4  H   UNL     1       2.426   6.514  19.078  0.00  0.00    +0.000 HD
ENDROOT
BRANCH   3   5
ATOM      5  C   UNL     1       3.828   6.235  17.552  0.00  0.00    +0.000 A 
ATOM      6  C   UNL     1       4.670   6.980  16.706  0.00  0.00    +0.000 A 
ATOM      7  C   UNL     1       5.520   6.353  15.792  0.00  0.00    +0.000 A 
ATOM      8  C   UNL     1       5.518   4.970  15.684  0.00  0.00    +0.000 A 
ATOM      9  C   UNL     1       4.662   4.214  16.487  0.00  0.00    +0.000 A 
ATOM     10  C   UNL     1       3.809   4.826  17.430  0.00  0.00    +0.000 A 
BRANCH  10  11
ATOM     11  C   UNL     1       2.788   3.900  18.016  0.00  0.00    +0.000 C 
ATOM     12  O   UNL     1       1.877   3.490  17.300  0.00  0.00    +0.000 OA
ATOM     13  N   UNL     1       2.942   3.509  19.325  0.00  0.00    +0.000 N 
ATOM     14  H   UNL     1       3.832   3.717  19.779  0.00  0.00    +0.000 HD
BRANCH  13  15
ATOM     15  C   UNL     1       1.990   2.711  20.029  0.00  0.00    +0.000 C 
ATOM     16  C   UNL     1       2.020   2.637  21.530  0.00  0.00    +0.000 C 
ATOM     17  C   UNL     1       0.905   3.369  20.843  0.00  0.00    +0.000 C 
ENDBRANCH  13  15
ENDBRANCH  10  11
ENDBRANCH   3   5
BRANCH   1  18
ATOM     18  C   UNL     1       1.608   8.913  19.102  0.00  0.00    +0.000 C 
BRANCH  18  19
ATOM     19  N   UNL     1       0.795  10.047  18.595  0.00  0.00    +0.000 NA
ATOM     20  C   UNL     1       1.579  11.279  18.790  0.00  0.00    +0.000 C 
BRANCH  19  21
ATOM     21  C   UNL     1      -0.494  10.160  19.323  0.00  0.00    +0.000 C 
BRANCH  21  26
ATOM     22  C   UNL     1      -3.793  11.535  17.950  0.00  0.00    +0.000 A 
ATOM     23  C   UNL     1      -3.875  10.860  16.731  0.00  0.00    +0.000 A 
ATOM     24  C   UNL     1      -2.876   9.969  16.342  0.00  0.00    +0.000 A 
ATOM     25  C   UNL     1      -1.786   9.745  17.180  0.00  0.00    +0.000 A 
ATOM     26  C   UNL     1      -1.673  10.425  18.403  0.00  0.00    +0.000 A 
ATOM     27  C   UNL     1      -2.691  11.324  18.779  0.00  0.00    +0.000 A 
BRANCH  22  29
ATOM     28  C   UNL     1      -5.981  12.264  17.345  0.00  0.00    +0.000 C 
ATOM     29  O   UNL     1      -4.856  12.357  18.208  0.00  0.00    +0.000 OA
ENDBRANCH  22  29
ENDBRANCH  21  26
ENDBRANCH  19  21
ENDBRANCH  18  19
ENDBRANCH   1  18
TORSDOF 8
ENDMDL
MODEL 5
REMARK VINA RESULT:      -7.6      3.300      8.834
REMARK  Name = 
REMARK  10 active torsions:
REMARK  status: ('A' for Active; 'I' for Inactive)
REMARK    1  A    between atoms: C_1  and  O_2
REMARK    2  A    between atoms: O_2  and  C_3
REMARK    3  A    between atoms: C_7  and  C_8
REMARK    4  A    between atoms: C_8  and  N_9
REMARK    5  A    between atoms: N_9  and  C_10
REMARK    6  A    between atoms: N_9  and  C_11
REMARK    7  A    between atoms: C_11  and  C_12
REMARK    8  A    between atoms: N_14  and  C_15
REMARK    9  A    between atoms: C_20  and  C_21
REMARK   10  A    between atoms: N_23  and  C_24
REMARK                            x       y       z     vdW  Elec       q    Type
REMARK                         _______ _______ _______ _____ _____    ______ ____
ROOT
ATOM      1  C   UNL     1       2.379   6.943  18.523  0.00  0.00    +0.000 C 
ATOM      2  O   UNL     1       1.952   6.209  17.633  0.00  0.00    +0.000 OA
ATOM      3  N   UNL     1       2.820   6.485  19.747  0.00  0.00    +0.000 N 
ATOM      4  H   UNL     1       2.663   7.150  20.499  0.00  0.00    +0.000 HD
ENDROOT
BRANCH   3   5
ATOM      5  C   UNL     1       2.910   5.115  20.085  0.00  0.00    +0.000 A 
ATOM      6  C   UNL     1       2.094   4.711  21.156  0.00  0.00    +0.000 A 
ATOM      7  C   UNL     1       2.110   3.396  21.626  0.00  0.00    +0.000 A 
ATOM      8  C   UNL     1       2.968   2.469  21.053  0.00  0.00    +0.000 A 
ATOM      9  C   UNL     1       3.814   2.859  20.014  0.00  0.00    +0.000 A 
ATOM     10  C   UNL     1       3.801   4.177  19.512  0.00  0.00    +0.000 A 
BRANCH  10  11
ATOM     11  C   UNL     1       4.936   4.486  18.586  0.00  0.00    +0.000 C 
ATOM     12  O   UNL     1       4.896   4.060  17.433  0.00  0.00    +0.000 OA
ATOM     13  N   UNL     1       5.959   5.277  19.053  0.00  0.00    +0.000 N 
ATOM     14  H   UNL     1       5.814   5.763  19.937  0.00  0.00    +0.000 HD
BRANCH  13  15
ATOM     15  C   UNL     1       7.143   5.562  18.306  0.00  0.00    +0.000 C 
ATOM     16  C   UNL     1       7.291   6.871  17.583  0.00  0.00    +0.000 C 
ATOM     17  C   UNL     1       8.121   6.596  18.802  0.00  0.00    +0.000 C 
ENDBRANCH  13  15
ENDBRANCH  10  11
ENDBRANCH   3   5
BRANCH   1  18
ATOM     18  C   UNL     1       2.391   8.464  18.349  0.00  0.00    +0.000 C 
BRANCH  18  19
ATOM     19  N   UNL     1       1.175   9.143  18.865  0.00  0.00    +0.000 NA
ATOM     20  C   UNL     1       0.427   9.660  17.705  0.00  0.00    +0.000 C 
BRANCH  19  21
ATOM     21  C   UNL     1       1.524  10.268  19.770  0.00  0.00    +0.000 C 
BRANCH  21  26
ATOM     22  C   UNL     1      -1.023  11.589  22.306  0.00  0.00    +0.000 A 
ATOM     23  C   UNL     1      -1.025  10.554  23.243  0.00  0.00    +0.000 A 
ATOM     24  C   UNL     1      -0.219   9.431  23.065  0.00  0.00    +0.000 A 
ATOM     25  C   UNL     1       0.602   9.340  21.944  0.00  0.00    +0.000 A 
ATOM     26  C   UNL     1       0.609  10.360  20.979  0.00  0.00    +0.000 A 
ATOM     27  C   UNL     1      -0.213  11.488  21.174  0.00  0.00    +0.000 A 
BRANCH  22  29
ATOM     28  C   UNL     1      -3.176  12.329  23.012  0.00  0.00    +0.000 C 
ATOM     29  O   UNL     1      -1.844  12.635  22.625  0.00  0.00    +0.000 OA
ENDBRANCH  22  29
ENDBRANCH  21  26
ENDBRANCH  19  21
ENDBRANCH  18  19
ENDBRANCH   1  18
TORSDOF 8
ENDMDL
MODEL 6
REMARK VINA RESULT:      -7.6      2.625      8.982
REMARK  Name = 
REMARK  10 active torsions:
REMARK  status: ('A' for Active; 'I' for Inactive)
REMARK    1  A    between atoms: C_1  and  O_2
REMARK    2  A    between atoms: O_2  and  C_3
REMARK    3  A    between atoms: C_7  and  C_8
REMARK    4  A    between atoms: C_8  and  N_9
REMARK    5  A    between atoms: N_9  and  C_10
REMARK    6  A    between atoms: N_9  and  C_11
REMARK    7  A    between atoms: C_11  and  C_12
REMARK    8  A    between atoms: N_14  and  C_15
REMARK    9  A    between atoms: C_20  and  C_21
REMARK   10  A    between atoms: N_23  and  C_24
REMARK                            x       y       z     vdW  Elec       q    Type
REMARK                         _______ _______ _______ _____ _____    ______ ____
ROOT
ATOM      1  C   UNL     1       2.657   6.742  18.613  0.00  0.00    +0.000 C 
ATOM      2  O   UNL     1       1.856   5.973  18.084  0.00  0.00    +0.000 OA
ATOM      3  N   UNL     1       4.018   6.704  18.388  0.00  0.00    +0.000 N 
ATOM      4  H   UNL     1       4.561   7.001  19.193  0.00  0.00    +0.000 HD
ENDROOT
BRANCH   3   5
ATOM      5  C   UNL     1       4.634   5.833  17.460  0.00  0.00    +0.000 A 
ATOM      6  C   UNL     1       4.902   6.399  16.200  0.00  0.00    +0.000 A 
ATOM      7  C   UNL     1       5.470   5.644  15.171  0.00  0.00    +0.000 A 
ATOM      8  C   UNL     1       5.749   4.301  15.374  0.00  0.00    +0.000 A 
ATOM      9  C   UNL     1       5.456   3.711  16.604  0.00  0.00    +0.000 A 
ATOM     10  C   UNL     1       4.899   4.459  17.663  0.00  0.00    +0.000 A 
BRANCH  10  11
ATOM     11  C   UNL     1       4.417   3.623  18.808  0.00  0.00    +0.000 C 
ATOM     12  O   UNL     1       5.239   3.175  19.605  0.00  0.00    +0.000 OA
ATOM     13  N   UNL     1       3.063   3.432  18.948  0.00  0.00    +0.000 N 
ATOM     14  H   UNL     1       2.443   4.010  18.379  0.00  0.00    +0.000 HD
BRANCH  13  15
ATOM     15  C   UNL     1       2.481   2.579  19.934  0.00  0.00    +0.000 C 
ATOM     16  C   UNL     1       2.300   3.060  21.346  0.00  0.00    +0.000 C 
ATOM     17  C   UNL     1       1.100   2.866  20.466  0.00  0.00    +0.000 C 
ENDBRANCH  13  15
ENDBRANCH  10  11
ENDBRANCH   3   5
BRANCH   1  18
ATOM     18  C   UNL     1       2.191   7.782  19.636  0.00  0.00    +0.000 C 
BRANCH  18  19
ATOM     19  N   UNL     1       1.344   8.858  19.062  0.00  0.00    +0.000 NA
ATOM     20  C   UNL     1       1.747   9.041  17.657  0.00  0.00    +0.000 C 
BRANCH  19  21
ATOM     21  C   UNL     1       1.518  10.136  19.798  0.00  0.00    +0.000 C 
BRANCH  21  26
ATOM     22  C   UNL     1      -1.257  11.412  22.108  0.00  0.00    +0.000 A 
ATOM     23  C   UNL     1      -1.107  10.555  23.200  0.00  0.00    +0.000 A 
ATOM     24  C   UNL     1      -0.125   9.566  23.199  0.00  0.00    +0.000 A 
ATOM     25  C   UNL     1       0.720   9.432  22.100  0.00  0.00    +0.000 A 
ATOM     26  C   UNL     1       0.578  10.271  20.983  0.00  0.00    +0.000 A 
ATOM     27  C   UNL     1      -0.421  11.264  21.000  0.00  0.00    +0.000 A 
BRANCH  22  29
ATOM     28  C   UNL     1      -3.065  12.250  23.415  0.00  0.00    +0.000 C 
ATOM     29  O   UNL     1      -2.244  12.346  22.260  0.00  0.00    +0.000 OA
ENDBRANCH  22  29
ENDBRANCH  21  26
ENDBRANCH  19  21
ENDBRANCH  18  19
ENDBRANCH   1  18
TORSDOF 8
ENDMDL
MODEL 7
REMARK VINA RESULT:      -7.6      2.654      9.074
REMARK  Name = 
REMARK  10 active torsions:
REMARK  status: ('A' for Active; 'I' for Inactive)
REMARK    1  A    between atoms: C_1  and  O_2
REMARK    2  A    between atoms: O_2  and  C_3
REMARK    3  A    between atoms: C_7  and  C_8
REMARK    4  A    between atoms: C_8  and  N_9
REMARK    5  A    between atoms: N_9  and  C_10
REMARK    6  A    between atoms: N_9  and  C_11
REMARK    7  A    between atoms: C_11  and  C_12
REMARK    8  A    between atoms: N_14  and  C_15
REMARK    9  A    between atoms: C_20  and  C_21
REMARK   10  A    between atoms: N_23  and  C_24
REMARK                            x       y       z     vdW  Elec       q    Type
REMARK                         _______ _______ _______ _____ _____    ______ ____
ROOT
ATOM      1  C   UNL     1       2.345   7.128  18.582  0.00  0.00    +0.000 C 
ATOM      2  O   UNL     1       2.028   6.425  17.625  0.00  0.00    +0.000 OA
ATOM      3  N   UNL     1       2.684   6.627  19.823  0.00  0.00    +0.000 N 
ATOM      4  H   UNL     1       2.435   7.252  20.584  0.00  0.00    +0.000 HD
ENDROOT
BRANCH   3   5
ATOM      5  C   UNL     1       2.786   5.246  20.108  0.00  0.00    +0.000 A 
ATOM      6  C   UNL     1       1.791   4.739  20.962  0.00  0.00    +0.000 A 
ATOM      7  C   UNL     1       1.790   3.401  21.363  0.00  0.00    +0.000 A 
ATOM      8  C   UNL     1       2.805   2.554  20.943  0.00  0.00    +0.000 A 
ATOM      9  C   UNL     1       3.824   3.047  20.126  0.00  0.00    +0.000 A 
ATOM     10  C   UNL     1       3.834   4.390  19.694  0.00  0.00    +0.000 A 
BRANCH  10  11
ATOM     11  C   UNL     1       5.116   4.809  19.044  0.00  0.00    +0.000 C 
ATOM     12  O   UNL     1       6.084   5.075  19.754  0.00  0.00    +0.000 OA
ATOM     13  N   UNL     1       5.170   4.834  17.671  0.00  0.00    +0.000 N 
ATOM     14  H   UNL     1       4.404   4.396  17.160  0.00  0.00    +0.000 HD
BRANCH  13  15
ATOM     15  C   UNL     1       6.297   5.308  16.932  0.00  0.00    +0.000 C 
ATOM     16  C   UNL     1       7.589   4.542  16.937  0.00  0.00    +0.000 C 
ATOM     17  C   UNL     1       6.751   4.580  15.693  0.00  0.00    +0.000 C 
ENDBRANCH  13  15
ENDBRANCH  10  11
ENDBRANCH   3   5
BRANCH   1  18
ATOM     18  C   UNL     1       2.324   8.656  18.476  0.00  0.00    +0.000 C 
BRANCH  18  19
ATOM     19  N   UNL     1       1.061   9.278  18.946  0.00  0.00    +0.000 NA
ATOM     20  C   UNL     1       0.286   9.668  17.755  0.00  0.00    +0.000 C 
BRANCH  19  21
ATOM     21  C   UNL     1       1.324  10.479  19.781  0.00  0.00    +0.000 C 
BRANCH  21  26
ATOM     22  C   UNL     1      -1.281  11.733  22.291  0.00  0.00    +0.000 A 
ATOM     23  C   UNL     1      -1.195  10.748  23.277  0.00  0.00    +0.000 A 
ATOM     24  C   UNL     1      -0.311   9.679  23.140  0.00  0.00    +0.000 A 
ATOM     25  C   UNL     1       0.500   9.594  22.011  0.00  0.00    +0.000 A 
ATOM     26  C   UNL     1       0.420  10.563  20.998  0.00  0.00    +0.000 A 
ATOM     27  C   UNL     1      -0.481  11.636  21.152  0.00  0.00    +0.000 A 
BRANCH  22  29
ATOM     28  C   UNL     1      -3.296  12.399  23.376  0.00  0.00    +0.000 C 
ATOM     29  O   UNL     1      -2.173  12.731  22.572  0.00  0.00    +0.000 OA
ENDBRANCH  22  29
ENDBRANCH  21  26
ENDBRANCH  19  21
ENDBRANCH  18  19
ENDBRANCH   1  18
TORSDOF 8
ENDMDL
MODEL 8
REMARK VINA RESULT:      -7.5      1.108      1.193
REMARK  Name = 
REMARK  10 active torsions:
REMARK  status: ('A' for Active; 'I' for Inactive)
REMARK    1  A    between atoms: C_1  and  O_2
REMARK    2  A    between atoms: O_2  and  C_3
REMARK    3  A    between atoms: C_7  and  C_8
REMARK    4  A    between atoms: C_8  and  N_9
REMARK    5  A    between atoms: N_9  and  C_10
REMARK    6  A    between atoms: N_9  and  C_11
REMARK    7  A    between atoms: C_11  and  C_12
REMARK    8  A    between atoms: N_14  and  C_15
REMARK    9  A    between atoms: C_20  and  C_21
REMARK   10  A    between atoms: N_23  and  C_24
REMARK                            x       y       z     vdW  Elec       q    Type
REMARK                         _______ _______ _______ _____ _____    ______ ____
ROOT
ATOM      1  C   UNL     1       3.521   3.880  17.139  0.00  0.00    +0.000 C 
ATOM      2  O   UNL     1       2.417   3.388  16.908  0.00  0.00    +0.000 OA
ATOM      3  N   UNL     1       3.982   4.166  18.408  0.00  0.00    +0.000 N 
ATOM      4  H   UNL     1       4.608   4.965  18.432  0.00  0.00    +0.000 HD
ENDROOT
BRANCH   3   5
ATOM      5  C   UNL     1       3.272   3.848  19.589  0.00  0.00    +0.000 A 
ATOM      6  C   UNL     1       3.234   2.479  19.911  0.00  0.00    +0.000 A 
ATOM      7  C   UNL     1       2.534   2.014  21.026  0.00  0.00    +0.000 A 
ATOM      8  C   UNL     1       1.831   2.907  21.821  0.00  0.00    +0.000 A 
ATOM      9  C   UNL     1       1.824   4.265  21.497  0.00  0.00    +0.000 A 
ATOM     10  C   UNL     1       2.539   4.759  20.386  0.00  0.00    +0.000 A 
BRANCH  10  11
ATOM     11  C   UNL     1       2.218   6.180  20.040  0.00  0.00    +0.000 C 
ATOM     12  O   UNL     1       2.434   6.577  18.896  0.00  0.00    +0.000 OA
ATOM     13  N   UNL     1       1.649   6.972  21.009  0.00  0.00    +0.000 N 
ATOM     14  H   UNL     1       1.306   6.513  21.852  0.00  0.00    +0.000 HD
BRANCH  13  15
ATOM     15  C   UNL     1       1.387   8.365  20.838  0.00  0.00    +0.000 C 
ATOM     16  C   UNL     1       0.034   8.932  21.163  0.00  0.00    +0.000 C 
ATOM     17  C   UNL     1       1.207   9.255  22.041  0.00  0.00    +0.000 C 
ENDBRANCH  13  15
ENDBRANCH  10  11
ENDBRANCH   3   5
BRANCH   1  18
ATOM     18  C   UNL     1       4.459   4.277  15.996  0.00  0.00    +0.000 C 
BRANCH  18  19
ATOM     19  N   UNL     1       5.553   5.195  16.402  0.00  0.00    +0.000 NA
ATOM     20  C   UNL     1       5.256   6.521  15.833  0.00  0.00    +0.000 C 
BRANCH  19  21
ATOM     21  C   UNL     1       6.870   4.725  15.901  0.00  0.00    +0.000 C 
BRANCH  21  26
ATOM     22  C   UNL     1       6.204   3.415  12.366  0.00  0.00    +0.000 A 
ATOM     23  C   UNL     1       7.036   4.246  11.614  0.00  0.00    +0.000 A 
ATOM     24  C   UNL     1       7.807   5.229  12.232  0.00  0.00    +0.000 A 
ATOM     25  C   UNL     1       7.751   5.383  13.615  0.00  0.00    +0.000 A 
ATOM     26  C   UNL     1       6.909   4.570  14.391  0.00  0.00    +0.000 A 
ATOM     27  C   UNL     1       6.136   3.582  13.750  0.00  0.00    +0.000 A 
BRANCH  22  29
ATOM     28  C   UNL     1       6.229   1.301  11.264  0.00  0.00    +0.000 C 
ATOM     29  O   UNL     1       5.528   2.482  11.628  0.00  0.00    +0.000 OA
ENDBRANCH  22  29
ENDBRANCH  21  26
ENDBRANCH  19  21
ENDBRANCH  18  19
ENDBRANCH   1  18
TORSDOF 8
ENDMDL
MODEL 9
REMARK VINA RESULT:      -7.4      2.862      8.555
REMARK  Name = 
REMARK  10 active torsions:
REMARK  status: ('A' for Active; 'I' for Inactive)
REMARK    1  A    between atoms: C_1  and  O_2
REMARK    2  A    between atoms: O_2  and  C_3
REMARK    3  A    between atoms: C_7  and  C_8
REMARK    4  A    between atoms: C_8  and  N_9
REMARK    5  A    between atoms: N_9  and  C_10
REMARK    6  A    between atoms: N_9  and  C_11
REMARK    7  A    between atoms: C_11  and  C_12
REMARK    8  A    between atoms: N_14  and  C_15
REMARK    9  A    between atoms: C_20  and  C_21
REMARK   10  A    between atoms: N_23  and  C_24
REMARK                            x       y       z     vdW  Elec       q    Type
REMARK                         _______ _______ _______ _____ _____    ______ ____
ROOT
ATOM      1  C   UNL     1       2.621   7.073  18.442  0.00  0.00    +0.000 C 
ATOM      2  O   UNL     1       1.913   6.458  17.647  0.00  0.00    +0.000 OA
ATOM      3  N   UNL     1       3.145   6.516  19.591  0.00  0.00    +0.000 N 
ATOM      4  H   UNL     1       3.253   7.188  20.344  0.00  0.00    +0.000 HD
ENDROOT
BRANCH   3   5
ATOM      5  C   UNL     1       2.998   5.153  19.937  0.00  0.00    +0.000 A 
ATOM      6  C   UNL     1       2.011   4.887  20.903  0.00  0.00    +0.000 A 
ATOM      7  C   UNL     1       1.783   3.591  21.372  0.00  0.00    +0.000 A 
ATOM      8  C   UNL     1       2.562   2.542  20.907  0.00  0.00    +0.000 A 
ATOM      9  C   UNL     1       3.573   2.790  19.977  0.00  0.00    +0.000 A 
ATOM     10  C   UNL     1       3.808   4.088  19.476  0.00  0.00    +0.000 A 
BRANCH  10  11
ATOM     11  C   UNL     1       5.077   4.216  18.692  0.00  0.00    +0.000 C 
ATOM     12  O   UNL     1       6.110   4.533  19.280  0.00  0.00    +0.000 OA
ATOM     13  N   UNL     1       5.043   3.927  17.349  0.00  0.00    +0.000 N 
ATOM     14  H   UNL     1       4.208   3.469  16.986  0.00  0.00    +0.000 HD
BRANCH  13  15
ATOM     15  C   UNL     1       6.157   4.105  16.473  0.00  0.00    +0.000 C 
ATOM     16  C   UNL     1       5.999   3.916  14.991  0.00  0.00    +0.000 C 
ATOM     17  C   UNL     1       6.212   5.293  15.547  0.00  0.00    +0.000 C 
ENDBRANCH  13  15
ENDBRANCH  10  11
ENDBRANCH   3   5
BRANCH   1  18
ATOM     18  C   UNL     1       2.924   8.560  18.238  0.00  0.00    +0.000 C 
BRANCH  18  19
ATOM     19  N   UNL     1       1.718   9.402  18.032  0.00  0.00    +0.000 NA
ATOM     20  C   UNL     1       2.174  10.784  17.804  0.00  0.00    +0.000 C 
BRANCH  19  21
ATOM     21  C   UNL     1       0.820   9.364  19.214  0.00  0.00    +0.000 C 
BRANCH  21  26
ATOM     22  C   UNL     1      -1.935  11.943  19.865  0.00  0.00    +0.000 A 
ATOM     23  C   UNL     1      -2.750  11.746  18.749  0.00  0.00    +0.000 A 
ATOM     24  C   UNL     1      -2.421  10.796  17.784  0.00  0.00    +0.000 A 
ATOM     25  C   UNL     1      -1.268  10.029  17.936  0.00  0.00    +0.000 A 
ATOM     26  C   UNL     1      -0.423  10.220  19.041  0.00  0.00    +0.000 A 
ATOM     27  C   UNL     1      -0.771  11.186  20.005  0.00  0.00    +0.000 A 
BRANCH  22  29
ATOM     28  C   UNL     1      -2.599  12.495  22.086  0.00  0.00    +0.000 C 
ATOM     29  O   UNL     1      -2.396  12.890  20.737  0.00  0.00    +0.000 OA
ENDBRANCH  22  29
ENDBRANCH  21  26
ENDBRANCH  19  21
ENDBRANCH  18  19
ENDBRANCH   1  18
TORSDOF 8
ENDMDL
