MODEL 1
REMARK VINA RESULT:      -7.4      0.000      0.000
REMARK  Name = 
REMARK  9 active torsions:
REMARK  status: ('A' for Active; 'I' for Inactive)
REMARK    1  A    between atoms: C_1  and  O_2
REMARK    2  A    between atoms: O_2  and  C_3
REMARK    3  A    between atoms: C_5  and  C_6
REMARK    4  A    between atoms: C_6  and  O_7
REMARK    5  A    between atoms: C_8  and  O_9
REMARK    6  A    between atoms: C_10  and  O_11
REMARK    7  A    between atoms: O_11  and  C_12
REMARK    8  A    between atoms: C_12  and  C_13
REMARK    9  A    between atoms: C_22  and  O_23
REMARK                            x       y       z     vdW  Elec       q    Type
REMARK                         _______ _______ _______ _____ _____    ______ ____
ROOT
ATOM      1  C   UNL     1       7.835   6.158  17.790  0.00  0.00    +0.000 C 
ATOM      2  O   UNL     1       8.051   4.964  17.022  0.00  0.00    +0.000 OA
ATOM      3  C   UNL     1       6.900   4.462  16.321  0.00  0.00    +0.000 C 
ATOM      4  C   UNL     1       5.721   4.220  17.285  0.00  0.00    +0.000 C 
ATOM      5  C   UNL     1       5.386   5.490  18.087  0.00  0.00    +0.000 C 
ATOM      6  C   UNL     1       6.674   5.967  18.796  0.00  0.00    +0.000 C 
ENDROOT
BRANCH   1   8
ATOM      7  C   UNL     1       7.824   8.531  17.664  0.00  0.00    +0.000 C 
ATOM      8  O   UNL     1       7.593   7.306  16.988  0.00  0.00    +0.000 OA
ENDBRANCH   1   8
BRANCH   4   9
ATOM      9  O   UNL     1       4.570   3.716  16.609  0.00  0.00    +0.000 OA
ATOM     10  H   UNL     1       4.256   4.448  16.032  0.00  0.00    +0.000 HD
ENDBRANCH   4   9
BRANCH   6  11
ATOM     11  O   UNL     1       7.036   5.025  19.822  0.00  0.00    +0.000 OA
ATOM     12  H   UNL     1       7.868   5.328  20.233  0.00  0.00    +0.000 HD
ENDBRANCH   6  11
BRANCH   3  13
ATOM     13  C   UNL     1       6.579   5.272  15.043  0.00  0.00    +0.000 C 
BRANCH  13  14
ATOM     14  O   UNL     1       7.735   5.589  14.278  0.00  0.00    +0.000 OA
ATOM     15  H   UNL     1       7.434   5.968  13.433  0.00  0.00    +0.000 HD
ENDBRANCH  13  14
ENDBRANCH   3  13
BRANCH   5  16
ATOM     16  O   UNL     1       4.828   6.430  17.160  0.00  0.00    +0.000 OA
BRANCH  16  17
ATOM     17  C   UNL     1       3.541   6.938  17.501  0.00  0.00    +0.000 C 
BRANCH  17  18
ATOM     18  C   UNL     1       2.878   5.917  18.360  0.00  0.00    +0.000 A 
ATOM     19  N   UNL     1       2.766   5.878  19.677  0.00  0.00    +0.000 NA
ATOM     20  C   UNL     1       2.058   4.724  19.907  0.00  0.00    +0.000 A 
ATOM     21  C   UNL     1       1.632   4.126  21.097  0.00  0.00    +0.000 A 
ATOM     22  C   UNL     1       0.896   2.933  21.014  0.00  0.00    +0.000 A 
ATOM     23  C   UNL     1       0.600   2.350  19.774  0.00  0.00    +0.000 A 
ATOM     24  C   UNL     1       1.026   2.934  18.575  0.00  0.00    +0.000 A 
ATOM     25  C   UNL     1       1.751   4.112  18.703  0.00  0.00    +0.000 A 
ATOM     26  O   UNL     1       2.269   4.876  17.700  0.00  0.00    +0.000 OA
ENDBRANCH  17  18
ENDBRANCH  16  17
ENDBRANCH   5  16
TORSDOF 8
ENDMDL
MODEL 2
REMARK VINA RESULT:      -7.3      0.724      1.238
REMARK  Name = 
REMARK  9 active torsions:
REMARK  status: ('A' for Active; 'I' for Inactive)
REMARK    1  A    between atoms: C_1  and  O_2
REMARK    2  A    between atoms: O_2  and  C_3
REMARK    3  A    between atoms: C_5  and  C_6
REMARK    4  A    between atoms: C_6  and  O_7
REMARK    5  A    between atoms: C_8  and  O_9
REMARK    6  A    between atoms: C_10  and  O_11
REMARK    7  A    between atoms: O_11  and  C_12
REMARK    8  A    between atoms: C_12  and  C_13
REMARK    9  A    between atoms: C_22  and  O_23
REMARK                            x       y       z     vdW  Elec       q    Type
REMARK                         _______ _______ _______ _____ _____    ______ ____
ROOT
ATOM      1  C   UNL     1       7.809   6.121  17.789  0.00  0.00    +0.000 C 
ATOM      2  O   UNL     1       8.004   4.922  17.022  0.00  0.00    +0.000 OA
ATOM      3  C   UNL     1       6.835   4.418  16.354  0.00  0.00    +0.000 C 
ATOM      4  C   UNL     1       5.680   4.182  17.350  0.00  0.00    +0.000 C 
ATOM      5  C   UNL     1       5.368   5.457  18.153  0.00  0.00    +0.000 C 
ATOM      6  C   UNL     1       6.674   5.936  18.825  0.00  0.00    +0.000 C 
ENDROOT
BRANCH   1   8
ATOM      7  C   UNL     1       7.813   8.493  17.644  0.00  0.00    +0.000 C 
ATOM      8  O   UNL     1       7.547   7.264  16.987  0.00  0.00    +0.000 OA
ENDBRANCH   1   8
BRANCH   4   9
ATOM      9  O   UNL     1       4.512   3.675  16.707  0.00  0.00    +0.000 OA
ATOM     10  H   UNL     1       3.859   4.410  16.721  0.00  0.00    +0.000 HD
ENDBRANCH   4   9
BRANCH   6  11
ATOM     11  O   UNL     1       7.063   4.999  19.847  0.00  0.00    +0.000 OA
ATOM     12  H   UNL     1       7.319   4.164  19.412  0.00  0.00    +0.000 HD
ENDBRANCH   6  11
BRANCH   3  13
ATOM     13  C   UNL     1       6.481   5.221  15.080  0.00  0.00    +0.000 C 
BRANCH  13  14
ATOM     14  O   UNL     1       7.622   5.589  14.317  0.00  0.00    +0.000 OA
ATOM     15  H   UNL     1       7.737   4.921  13.618  0.00  0.00    +0.000 HD
ENDBRANCH  13  14
ENDBRANCH   3  13
BRANCH   5  16
ATOM     16  O   UNL     1       4.786   6.392  17.236  0.00  0.00    +0.000 OA
BRANCH  16  17
ATOM     17  C   UNL     1       3.502   6.891  17.600  0.00  0.00    +0.000 C 
BRANCH  17  18
ATOM     18  C   UNL     1       2.797   5.800  18.328  0.00  0.00    +0.000 A 
ATOM     19  N   UNL     1       1.995   4.861  17.855  0.00  0.00    +0.000 NA
ATOM     20  C   UNL     1       1.650   4.138  18.971  0.00  0.00    +0.000 A 
ATOM     21  C   UNL     1       0.818   3.025  19.126  0.00  0.00    +0.000 A 
ATOM     22  C   UNL     1       0.669   2.482  20.413  0.00  0.00    +0.000 A 
ATOM     23  C   UNL     1       1.329   3.043  21.516  0.00  0.00    +0.000 A 
ATOM     24  C   UNL     1       2.160   4.161  21.376  0.00  0.00    +0.000 A 
ATOM     25  C   UNL     1       2.278   4.666  20.087  0.00  0.00    +0.000 A 
ATOM     26  O   UNL     1       3.025   5.732  19.683  0.00  0.00    +0.000 OA
ENDBRANCH  17  18
ENDBRANCH  16  17
ENDBRANCH   5  16
TORSDOF 8
ENDMDL
MODEL 3
REMARK VINA RESULT:      -7.2      1.195      3.279
REMARK  Name = 
REMARK  9 active torsions:
REMARK  status: ('A' for Active; 'I' for Inactive)
REMARK    1  A    between atoms: C_1  and  O_2
REMARK    2  A    between atoms: O_2  and  C_3
REMARK    3  A    between atoms: C_5  and  C_6
REMARK    4  A    between atoms: C_6  and  O_7
REMARK    5  A    between atoms: C_8  and  O_9
REMARK    6  A    between atoms: C_10  and  O_11
REMARK    7  A    between atoms: O_11  and  C_12
REMARK    8  A    between atoms: C_12  and  C_13
REMARK    9  A    between atoms: C_22  and  O_23
REMARK                            x       y       z     vdW  Elec       q    Type
REMARK                         _______ _______ _______ _____ _____    ______ ____
ROOT
ATOM      1  C   UNL     1       6.241   4.310  16.716  0.00  0.00    +0.000 C 
ATOM      2  O   UNL     1       7.572   4.507  17.218  0.00  0.00    +0.000 OA
ATOM      3  C   UNL     1       7.769   5.701  17.995  0.00  0.00    +0.000 C 
ATOM      4  C   UNL     1       7.351   6.958  17.203  0.00  0.00    +0.000 C 
ATOM      5  C   UNL     1       5.901   6.842  16.699  0.00  0.00    +0.000 C 
ATOM      6  C   UNL     1       5.774   5.533  15.890  0.00  0.00    +0.000 C 
ENDROOT
BRANCH   1   8
ATOM      7  C   UNL     1       4.519   2.863  17.484  0.00  0.00    +0.000 C 
ATOM      8  O   UNL     1       5.292   4.026  17.735  0.00  0.00    +0.000 OA
ENDBRANCH   1   8
BRANCH   4   9
ATOM      9  O   UNL     1       7.545   8.155  17.954  0.00  0.00    +0.000 OA
ATOM     10  H   UNL     1       6.783   8.209  18.574  0.00  0.00    +0.000 HD
ENDBRANCH   4   9
BRANCH   6  11
ATOM     11  O   UNL     1       6.530   5.644  14.670  0.00  0.00    +0.000 OA
ATOM     12  H   UNL     1       7.478   5.641  14.899  0.00  0.00    +0.000 HD
ENDBRANCH   6  11
BRANCH   3  13
ATOM     13  C   UNL     1       7.204   5.582  19.429  0.00  0.00    +0.000 C 
BRANCH  13  14
ATOM     14  O   UNL     1       8.217   5.503  20.424  0.00  0.00    +0.000 OA
ATOM     15  H   UNL     1       9.042   5.232  19.983  0.00  0.00    +0.000 HD
ENDBRANCH  13  14
ENDBRANCH   3  13
BRANCH   5  16
ATOM     16  O   UNL     1       5.055   6.920  17.853  0.00  0.00    +0.000 OA
BRANCH  16  17
ATOM     17  C   UNL     1       3.666   7.095  17.586  0.00  0.00    +0.000 C 
BRANCH  17  18
ATOM     18  C   UNL     1       2.939   6.017  18.311  0.00  0.00    +0.000 A 
ATOM     19  N   UNL     1       2.037   5.164  17.855  0.00  0.00    +0.000 NA
ATOM     20  C   UNL     1       1.725   4.405  18.955  0.00  0.00    +0.000 A 
ATOM     21  C   UNL     1       0.827   3.345  19.119  0.00  0.00    +0.000 A 
ATOM     22  C   UNL     1       0.735   2.742  20.384  0.00  0.00    +0.000 A 
ATOM     23  C   UNL     1       1.516   3.191  21.458  0.00  0.00    +0.000 A 
ATOM     24  C   UNL     1       2.415   4.255  21.310  0.00  0.00    +0.000 A 
ATOM     25  C   UNL     1       2.472   4.822  20.044  0.00  0.00    +0.000 A 
ATOM     26  O   UNL     1       3.263   5.856  19.637  0.00  0.00    +0.000 OA
ENDBRANCH  17  18
ENDBRANCH  16  17
ENDBRANCH   5  16
TORSDOF 8
ENDMDL
MODEL 4
REMARK VINA RESULT:      -7.1      2.579      6.276
REMARK  Name = 
REMARK  9 active torsions:
REMARK  status: ('A' for Active; 'I' for Inactive)
REMARK    1  A    between atoms: C_1  and  O_2
REMARK    2  A    between atoms: O_2  and  C_3
REMARK    3  A    between atoms: C_5  and  C_6
REMARK    4  A    between atoms: C_6  and  O_7
REMARK    5  A    between atoms: C_8  and  O_9
REMARK    6  A    between atoms: C_10  and  O_11
REMARK    7  A    between atoms: O_11  and  C_12
REMARK    8  A    between atoms: C_12  and  C_13
REMARK    9  A    between atoms: C_22  and  O_23
REMARK                            x       y       z     vdW  Elec       q    Type
REMARK                         _______ _______ _______ _____ _____    ______ ____
ROOT
ATOM      1  C   UNL     1       1.703   4.404  19.421  0.00  0.00    +0.000 C 
ATOM      2  O   UNL     1       1.685   3.001  19.728  0.00  0.00    +0.000 OA
ATOM      3  C   UNL     1       2.860   2.268  19.340  0.00  0.00    +0.000 C 
ATOM      4  C   UNL     1       3.153   2.438  17.835  0.00  0.00    +0.000 C 
ATOM      5  C   UNL     1       3.261   3.925  17.453  0.00  0.00    +0.000 C 
ATOM      6  C   UNL     1       1.970   4.637  17.915  0.00  0.00    +0.000 C 
ENDROOT
BRANCH   1   8
ATOM      7  C   UNL     1       2.493   6.543  20.088  0.00  0.00    +0.000 C 
ATOM      8  O   UNL     1       2.642   5.137  20.196  0.00  0.00    +0.000 OA
ENDBRANCH   1   8
BRANCH   4   9
ATOM      9  O   UNL     1       4.312   1.713  17.428  0.00  0.00    +0.000 OA
ATOM     10  H   UNL     1       4.534   2.045  16.530  0.00  0.00    +0.000 HD
ENDBRANCH   4   9
BRANCH   6  11
ATOM     11  O   UNL     1       0.858   4.181  17.122  0.00  0.00    +0.000 OA
ATOM     12  H   UNL     1       0.761   4.782  16.360  0.00  0.00    +0.000 HD
ENDBRANCH   6  11
BRANCH   3  13
ATOM     13  C   UNL     1       4.054   2.501  20.296  0.00  0.00    +0.000 C 
BRANCH  13  14
ATOM     14  O   UNL     1       5.147   1.628  20.047  0.00  0.00    +0.000 OA
ATOM     15  H   UNL     1       5.121   0.924  20.719  0.00  0.00    +0.000 HD
ENDBRANCH  13  14
ENDBRANCH   3  13
BRANCH   5  16
ATOM     16  O   UNL     1       4.466   4.419  18.050  0.00  0.00    +0.000 OA
BRANCH  16  17
ATOM     17  C   UNL     1       4.967   5.637  17.505  0.00  0.00    +0.000 C 
BRANCH  17  18
ATOM     18  C   UNL     1       5.577   5.310  16.187  0.00  0.00    +0.000 A 
ATOM     19  N   UNL     1       6.686   5.779  15.639  0.00  0.00    +0.000 NA
ATOM     20  C   UNL     1       6.754   5.124  14.435  0.00  0.00    +0.000 A 
ATOM     21  C   UNL     1       7.689   5.197  13.397  0.00  0.00    +0.000 A 
ATOM     22  C   UNL     1       7.500   4.376  12.274  0.00  0.00    +0.000 A 
ATOM     23  C   UNL     1       6.402   3.509  12.187  0.00  0.00    +0.000 A 
ATOM     24  C   UNL     1       5.454   3.430  13.215  0.00  0.00    +0.000 A 
ATOM     25  C   UNL     1       5.679   4.259  14.307  0.00  0.00    +0.000 A 
ATOM     26  O   UNL     1       4.919   4.367  15.433  0.00  0.00    +0.000 OA
ENDBRANCH  17  18
ENDBRANCH  16  17
ENDBRANCH   5  16
TORSDOF 8
ENDMDL
MODEL 5
REMARK VINA RESULT:      -7.0      0.956      3.046
REMARK  Name = 
REMARK  9 active torsions:
REMARK  status: ('A' for Active; 'I' for Inactive)
REMARK    1  A    between atoms: C_1  and  O_2
REMARK    2  A    between atoms: O_2  and  C_3
REMARK    3  A    between atoms: C_5  and  C_6
REMARK    4  A    between atoms: C_6  and  O_7
REMARK    5  A    between atoms: C_8  and  O_9
REMARK    6  A    between atoms: C_10  and  O_11
REMARK    7  A    between atoms: O_11  and  C_12
REMARK    8  A    between atoms: C_12  and  C_13
REMARK    9  A    between atoms: C_22  and  O_23
REMARK                            x       y       z     vdW  Elec       q    Type
REMARK                         _______ _______ _______ _____ _____    ______ ____
ROOT
ATOM      1  C   UNL     1       6.233   4.336  16.716  0.00  0.00    +0.000 C 
ATOM      2  O   UNL     1       7.568   4.492  17.223  0.00  0.00    +0.000 OA
ATOM      3  C   UNL     1       7.802   5.682  17.995  0.00  0.00    +0.000 C 
ATOM      4  C   UNL     1       7.428   6.949  17.197  0.00  0.00    +0.000 C 
ATOM      5  C   UNL     1       5.977   6.879  16.689  0.00  0.00    +0.000 C 
ATOM      6  C   UNL     1       5.809   5.571  15.884  0.00  0.00    +0.000 C 
ENDROOT
BRANCH   1   8
ATOM      7  C   UNL     1       4.648   2.819  17.628  0.00  0.00    +0.000 C 
ATOM      8  O   UNL     1       5.272   4.089  17.734  0.00  0.00    +0.000 OA
ENDBRANCH   1   8
BRANCH   4   9
ATOM      9  O   UNL     1       7.659   8.142  17.944  0.00  0.00    +0.000 OA
ATOM     10  H   UNL     1       7.147   8.846  17.489  0.00  0.00    +0.000 HD
ENDBRANCH   4   9
BRANCH   6  11
ATOM     11  O   UNL     1       6.573   5.652  14.666  0.00  0.00    +0.000 OA
ATOM     12  H   UNL     1       6.042   5.261  13.948  0.00  0.00    +0.000 HD
ENDBRANCH   6  11
BRANCH   3  13
ATOM     13  C   UNL     1       7.228   5.588  19.428  0.00  0.00    +0.000 C 
BRANCH  13  14
ATOM     14  O   UNL     1       8.235   5.521  20.430  0.00  0.00    +0.000 OA
ATOM     15  H   UNL     1       9.060   5.866  20.042  0.00  0.00    +0.000 HD
ENDBRANCH  13  14
ENDBRANCH   3  13
BRANCH   5  16
ATOM     16  O   UNL     1       5.130   6.989  17.839  0.00  0.00    +0.000 OA
BRANCH  16  17
ATOM     17  C   UNL     1       3.732   7.054  17.569  0.00  0.00    +0.000 C 
BRANCH  17  18
ATOM     18  C   UNL     1       3.073   6.022  18.415  0.00  0.00    +0.000 A 
ATOM     19  N   UNL     1       3.151   5.838  19.723  0.00  0.00    +0.000 NA
ATOM     20  C   UNL     1       2.336   4.755  19.946  0.00  0.00    +0.000 A 
ATOM     21  C   UNL     1       2.014   4.072  21.123  0.00  0.00    +0.000 A 
ATOM     22  C   UNL     1       1.119   2.992  21.040  0.00  0.00    +0.000 A 
ATOM     23  C   UNL     1       0.568   2.602  19.812  0.00  0.00    +0.000 A 
ATOM     24  C   UNL     1       0.888   3.272  18.625  0.00  0.00    +0.000 A 
ATOM     25  C   UNL     1       1.776   4.333  18.752  0.00  0.00    +0.000 A 
ATOM     26  O   UNL     1       2.238   5.147  17.761  0.00  0.00    +0.000 OA
ENDBRANCH  17  18
ENDBRANCH  16  17
ENDBRANCH   5  16
TORSDOF 8
ENDMDL
MODEL 6
REMARK VINA RESULT:      -6.9      2.418      6.456
REMARK  Name = 
REMARK  9 active torsions:
REMARK  status: ('A' for Active; 'I' for Inactive)
REMARK    1  A    between atoms: C_1  and  O_2
REMARK    2  A    between atoms: O_2  and  C_3
REMARK    3  A    between atoms: C_5  and  C_6
REMARK    4  A    between atoms: C_6  and  O_7
REMARK    5  A    between atoms: C_8  and  O_9
REMARK    6  A    between atoms: C_10  and  O_11
REMARK    7  A    between atoms: O_11  and  C_12
REMARK    8  A    between atoms: C_12  and  C_13
REMARK    9  A    between atoms: C_22  and  O_23
REMARK                            x       y       z     vdW  Elec       q    Type
REMARK                         _______ _______ _______ _____ _____    ______ ____
ROOT
ATOM      1  C   UNL     1       1.809   4.610  19.348  0.00  0.00    +0.000 C 
ATOM      2  O   UNL     1       1.590   3.286  19.861  0.00  0.00    +0.000 OA
ATOM      3  C   UNL     1       2.653   2.347  19.626  0.00  0.00    +0.000 C 
ATOM      4  C   UNL     1       2.984   2.243  18.123  0.00  0.00    +0.000 C 
ATOM      5  C   UNL     1       3.306   3.625  17.526  0.00  0.00    +0.000 C 
ATOM      6  C   UNL     1       2.124   4.571  17.833  0.00  0.00    +0.000 C 
ENDROOT
BRANCH   1   8
ATOM      7  C   UNL     1       2.592   6.709  20.139  0.00  0.00    +0.000 C 
ATOM      8  O   UNL     1       2.834   5.315  20.035  0.00  0.00    +0.000 OA
ENDBRANCH   1   8
BRANCH   4   9
ATOM      9  O   UNL     1       4.034   1.311  17.868  0.00  0.00    +0.000 OA
ATOM     10  H   UNL     1       4.009   0.669  18.612  0.00  0.00    +0.000 HD
ENDBRANCH   4   9
BRANCH   6  11
ATOM     11  O   UNL     1       0.968   4.158  17.082  0.00  0.00    +0.000 OA
ATOM     12  H   UNL     1       0.520   4.958  16.748  0.00  0.00    +0.000 HD
ENDBRANCH   6  11
BRANCH   3  13
ATOM     13  C   UNL     1       3.857   2.557  20.575  0.00  0.00    +0.000 C 
BRANCH  13  14
ATOM     14  O   UNL     1       5.070   2.019  20.064  0.00  0.00    +0.000 OA
ATOM     15  H   UNL     1       5.679   1.903  20.815  0.00  0.00    +0.000 HD
ENDBRANCH  13  14
ENDBRANCH   3  13
BRANCH   5  16
ATOM     16  O   UNL     1       4.562   4.033  18.082  0.00  0.00    +0.000 OA
BRANCH  16  17
ATOM     17  C   UNL     1       5.129   5.213  17.518  0.00  0.00    +0.000 C 
BRANCH  17  18
ATOM     18  C   UNL     1       5.568   4.873  16.136  0.00  0.00    +0.000 A 
ATOM     19  N   UNL     1       5.048   4.005  15.284  0.00  0.00    +0.000 NA
ATOM     20  C   UNL     1       5.851   4.119  14.176  0.00  0.00    +0.000 A 
ATOM     21  C   UNL     1       5.823   3.457  12.945  0.00  0.00    +0.000 A 
ATOM     22  C   UNL     1       6.782   3.806  11.981  0.00  0.00    +0.000 A 
ATOM     23  C   UNL     1       7.748   4.787  12.243  0.00  0.00    +0.000 A 
ATOM     24  C   UNL     1       7.793   5.454  13.474  0.00  0.00    +0.000 A 
ATOM     25  C   UNL     1       6.827   5.077  14.398  0.00  0.00    +0.000 A 
ATOM     26  O   UNL     1       6.649   5.573  15.656  0.00  0.00    +0.000 OA
ENDBRANCH  17  18
ENDBRANCH  16  17
ENDBRANCH   5  16
TORSDOF 8
ENDMDL
MODEL 7
REMARK VINA RESULT:      -6.8      3.205      5.049
REMARK  Name = 
REMARK  9 active torsions:
REMARK  status: ('A' for Active; 'I' for Inactive)
REMARK    1  A    between atoms: C_1  and  O_2
REMARK    2  A    between atoms: O_2  and  C_3
REMARK    3  A    between atoms: C_5  and  C_6
REMARK    4  A    between atoms: C_6  and  O_7
REMARK    5  A    between atoms: C_8  and  O_9
REMARK    6  A    between atoms: C_10  and  O_11
REMARK    7  A    between atoms: O_11  and  C_12
REMARK    8  A    between atoms: C_12  and  C_13
REMARK    9  A    between atoms: C_22  and  O_23
REMARK                            x       y       z     vdW  Elec       q    Type
REMARK                         _______ _______ _______ _____ _____    ______ ____
ROOT
ATOM      1  C   UNL     1       5.044   3.679  18.037  0.00  0.00    +0.000 C 
ATOM      2  O   UNL     1       4.310   2.852  18.954  0.00  0.00    +0.000 OA
ATOM      3  C   UNL     1       3.109   3.435  19.487  0.00  0.00    +0.000 C 
ATOM      4  C   UNL     1       3.399   4.788  20.170  0.00  0.00    +0.000 C 
ATOM      5  C   UNL     1       4.119   5.753  19.211  0.00  0.00    +0.000 C 
ATOM      6  C   UNL     1       5.386   5.047  18.676  0.00  0.00    +0.000 C 
ENDROOT
BRANCH   1   8
ATOM      7  C   UNL     1       5.201   4.417  15.783  0.00  0.00    +0.000 C 
ATOM      8  O   UNL     1       4.371   3.880  16.801  0.00  0.00    +0.000 OA
ENDBRANCH   1   8
BRANCH   4   9
ATOM      9  O   UNL     1       2.220   5.379  20.712  0.00  0.00    +0.000 OA
ATOM     10  H   UNL     1       1.675   5.647  19.938  0.00  0.00    +0.000 HD
ENDBRANCH   4   9
BRANCH   6  11
ATOM     11  O   UNL     1       6.336   4.887  19.746  0.00  0.00    +0.000 OA
ATOM     12  H   UNL     1       5.852   4.931  20.591  0.00  0.00    +0.000 HD
ENDBRANCH   6  11
BRANCH   3  13
ATOM     13  C   UNL     1       1.937   3.420  18.477  0.00  0.00    +0.000 C 
BRANCH  13  14
ATOM     14  O   UNL     1       1.886   2.231  17.700  0.00  0.00    +0.000 OA
ATOM     15  H   UNL     1       2.062   1.481  18.296  0.00  0.00    +0.000 HD
ENDBRANCH  13  14
ENDBRANCH   3  13
BRANCH   5  16
ATOM     16  O   UNL     1       3.168   6.122  18.205  0.00  0.00    +0.000 OA
BRANCH  16  17
ATOM     17  C   UNL     1       3.379   7.394  17.598  0.00  0.00    +0.000 C 
BRANCH  17  18
ATOM     18  C   UNL     1       2.381   8.332  18.183  0.00  0.00    +0.000 A 
ATOM     19  N   UNL     1       1.757   9.350  17.615  0.00  0.00    +0.000 NA
ATOM     20  C   UNL     1       0.958   9.840  18.619  0.00  0.00    +0.000 A 
ATOM     21  C   UNL     1       0.068  10.918  18.644  0.00  0.00    +0.000 A 
ATOM     22  C   UNL     1      -0.636  11.170  19.833  0.00  0.00    +0.000 A 
ATOM     23  C   UNL     1      -0.448  10.370  20.969  0.00  0.00    +0.000 A 
ATOM     24  C   UNL     1       0.445   9.291  20.960  0.00  0.00    +0.000 A 
ATOM     25  C   UNL     1       1.120   9.078  19.764  0.00  0.00    +0.000 A 
ATOM     26  O   UNL     1       2.030   8.100  19.492  0.00  0.00    +0.000 OA
ENDBRANCH  17  18
ENDBRANCH  16  17
ENDBRANCH   5  16
TORSDOF 8
ENDMDL
MODEL 8
REMARK VINA RESULT:      -6.7      3.383      4.975
REMARK  Name = 
REMARK  9 active torsions:
REMARK  status: ('A' for Active; 'I' for Inactive)
REMARK    1  A    between atoms: C_1  and  O_2
REMARK    2  A    between atoms: O_2  and  C_3
REMARK    3  A    between atoms: C_5  and  C_6
REMARK    4  A    between atoms: C_6  and  O_7
REMARK    5  A    between atoms: C_8  and  O_9
REMARK    6  A    between atoms: C_10  and  O_11
REMARK    7  A    between atoms: O_11  and  C_12
REMARK    8  A    between atoms: C_12  and  C_13
REMARK    9  A    between atoms: C_22  and  O_23
REMARK                            x       y       z     vdW  Elec       q    Type
REMARK                         _______ _______ _______ _____ _____    ______ ____
ROOT
ATOM      1  C   UNL     1       5.002   3.917  17.963  0.00  0.00    +0.000 C 
ATOM      2  O   UNL     1       4.418   2.879  18.766  0.00  0.00    +0.000 OA
ATOM      3  C   UNL     1       3.166   3.211  19.392  0.00  0.00    +0.000 C 
ATOM      4  C   UNL     1       3.292   4.485  20.252  0.00  0.00    +0.000 C 
ATOM      5  C   UNL     1       3.844   5.662  19.427  0.00  0.00    +0.000 C 
ATOM      6  C   UNL     1       5.176   5.218  18.783  0.00  0.00    +0.000 C 
ENDROOT
BRANCH   1   8
ATOM      7  C   UNL     1       5.089   4.428  15.644  0.00  0.00    +0.000 C 
ATOM      8  O   UNL     1       4.269   4.189  16.777  0.00  0.00    +0.000 OA
ENDBRANCH   1   8
BRANCH   4   9
ATOM      9  O   UNL     1       2.062   4.828  20.887  0.00  0.00    +0.000 OA
ATOM     10  H   UNL     1       2.257   4.859  21.850  0.00  0.00    +0.000 HD
ENDBRANCH   4   9
BRANCH   6  11
ATOM     11  O   UNL     1       6.173   5.048  19.807  0.00  0.00    +0.000 OA
ATOM     12  H   UNL     1       6.855   4.438  19.468  0.00  0.00    +0.000 HD
ENDBRANCH   6  11
BRANCH   3  13
ATOM     13  C   UNL     1       1.975   3.172  18.405  0.00  0.00    +0.000 C 
BRANCH  13  14
ATOM     14  O   UNL     1       2.044   2.085  17.491  0.00  0.00    +0.000 OA
ATOM     15  H   UNL     1       2.556   1.374  17.915  0.00  0.00    +0.000 HD
ENDBRANCH  13  14
ENDBRANCH   3  13
BRANCH   5  16
ATOM     16  O   UNL     1       2.819   6.030  18.496  0.00  0.00    +0.000 OA
BRANCH  16  17
ATOM     17  C   UNL     1       2.789   7.407  18.127  0.00  0.00    +0.000 C 
BRANCH  17  18
ATOM     18  C   UNL     1       1.973   8.118  19.149  0.00  0.00    +0.000 A 
ATOM     19  N   UNL     1       1.773   7.813  20.420  0.00  0.00    +0.000 NA
ATOM     20  C   UNL     1       0.951   8.817  20.868  0.00  0.00    +0.000 A 
ATOM     21  C   UNL     1       0.379   9.049  22.123  0.00  0.00    +0.000 A 
ATOM     22  C   UNL     1      -0.419  10.192  22.288  0.00  0.00    +0.000 A 
ATOM     23  C   UNL     1      -0.646  11.077  21.224  0.00  0.00    +0.000 A 
ATOM     24  C   UNL     1      -0.085  10.853  19.960  0.00  0.00    +0.000 A 
ATOM     25  C   UNL     1       0.696   9.711  19.841  0.00  0.00    +0.000 A 
ATOM     26  O   UNL     1       1.356   9.273  18.731  0.00  0.00    +0.000 OA
ENDBRANCH  17  18
ENDBRANCH  16  17
ENDBRANCH   5  16
TORSDOF 8
ENDMDL
MODEL 9
REMARK VINA RESULT:      -6.6      2.617      5.984
REMARK  Name = 
REMARK  9 active torsions:
REMARK  status: ('A' for Active; 'I' for Inactive)
REMARK    1  A    between atoms: C_1  and  O_2
REMARK    2  A    between atoms: O_2  and  C_3
REMARK    3  A    between atoms: C_5  and  C_6
REMARK    4  A    between atoms: C_6  and  O_7
REMARK    5  A    between atoms: C_8  and  O_9
REMARK    6  A    between atoms: C_10  and  O_11
REMARK    7  A    between atoms: O_11  and  C_12
REMARK    8  A    between atoms: C_12  and  C_13
REMARK    9  A    between atoms: C_22  and  O_23
REMARK                            x       y       z     vdW  Elec       q    Type
REMARK                         _______ _______ _______ _____ _____    ______ ____
ROOT
ATOM      1  C   UNL     1       4.146   3.994  20.121  0.00  0.00    +0.000 C 
ATOM      2  O   UNL     1       3.136   2.973  20.115  0.00  0.00    +0.000 OA
ATOM      3  C   UNL     1       2.434   2.804  18.871  0.00  0.00    +0.000 C 
ATOM      4  C   UNL     1       1.797   4.129  18.405  0.00  0.00    +0.000 C 
ATOM      5  C   UNL     1       2.847   5.252  18.316  0.00  0.00    +0.000 C 
ATOM      6  C   UNL     1       3.558   5.357  19.683  0.00  0.00    +0.000 C 
ENDROOT
BRANCH   1   8
ATOM      7  C   UNL     1       6.306   4.644  19.374  0.00  0.00    +0.000 C 
ATOM      8  O   UNL     1       5.272   3.674  19.316  0.00  0.00    +0.000 OA
ENDBRANCH   1   8
BRANCH   4   9
ATOM      9  O   UNL     1       1.090   3.981  17.175  0.00  0.00    +0.000 OA
ATOM     10  H   UNL     1       0.187   3.681  17.419  0.00  0.00    +0.000 HD
ENDBRANCH   4   9
BRANCH   6  11
ATOM     11  O   UNL     1       2.636   5.857  20.669  0.00  0.00    +0.000 OA
ATOM     12  H   UNL     1       1.921   5.202  20.776  0.00  0.00    +0.000 HD
ENDBRANCH   6  11
BRANCH   3  13
ATOM     13  C   UNL     1       3.266   2.040  17.814  0.00  0.00    +0.000 C 
BRANCH  13  14
ATOM     14  O   UNL     1       4.043   0.987  18.370  0.00  0.00    +0.000 OA
ATOM     15  H   UNL     1       3.903   0.995  19.333  0.00  0.00    +0.000 HD
ENDBRANCH  13  14
ENDBRANCH   3  13
BRANCH   5  16
ATOM     16  O   UNL     1       3.705   4.928  17.215  0.00  0.00    +0.000 OA
BRANCH  16  17
ATOM     17  C   UNL     1       4.715   5.890  16.920  0.00  0.00    +0.000 C 
BRANCH  17  18
ATOM     18  C   UNL     1       5.403   5.438  15.680  0.00  0.00    +0.000 A 
ATOM     19  N   UNL     1       6.555   5.841  15.169  0.00  0.00    +0.000 NA
ATOM     20  C   UNL     1       6.689   5.080  14.034  0.00  0.00    +0.000 A 
ATOM     21  C   UNL     1       7.691   5.048  13.060  0.00  0.00    +0.000 A 
ATOM     22  C   UNL     1       7.560   4.133  12.002  0.00  0.00    +0.000 A 
ATOM     23  C   UNL     1       6.452   3.278  11.918  0.00  0.00    +0.000 A 
ATOM     24  C   UNL     1       5.438   3.304  12.883  0.00  0.00    +0.000 A 
ATOM     25  C   UNL     1       5.607   4.224  13.910  0.00  0.00    +0.000 A 
ATOM     26  O   UNL     1       4.777   4.442  14.969  0.00  0.00    +0.000 OA
ENDBRANCH  17  18
ENDBRANCH  16  17
ENDBRANCH   5  16
TORSDOF 8
ENDMDL
