MODEL 1
REMARK VINA RESULT:      -8.2      0.000      0.000
REMARK  Name = 
REMARK  3 active torsions:
REMARK  status: ('A' for Active; 'I' for Inactive)
REMARK    1  A    between atoms: C_5  and  N_6
REMARK    2  A    between atoms: N_6  and  C_7
REMARK    3  A    between atoms: C_15  and  C_16
REMARK                            x       y       z     vdW  Elec       q    Type
REMARK                         _______ _______ _______ _____ _____    ______ ____
ROOT
ATOM      1  O   UNL     1       0.573   3.130  19.153  0.00  0.00    +0.000 OA
ATOM      2  C   UNL     1       1.780   2.969  19.203  0.00  0.00    +0.000 C 
ATOM      3  O   UNL     1       2.381   1.753  19.322  0.00  0.00    +0.000 OA
ATOM      4  C   UNL     1       3.788   1.934  19.355  0.00  0.00    +0.000 C 
ATOM      5  C   UNL     1       3.988   3.403  19.257  0.00  0.00    +0.000 C 
ATOM      6  C   UNL     1       2.809   4.035  19.168  0.00  0.00    +0.000 C 
ENDROOT
BRANCH   6   7
ATOM      7  C   UNL     1       2.556   5.481  19.076  0.00  0.00    +0.000 A 
ATOM      8  C   UNL     1       2.800   6.189  17.889  0.00  0.00    +0.000 A 
ATOM      9  C   UNL     1       2.566   7.567  17.805  0.00  0.00    +0.000 A 
ATOM     10  C   UNL     1       2.097   8.265  18.916  0.00  0.00    +0.000 A 
ATOM     11  C   UNL     1       1.844   7.578  20.096  0.00  0.00    +0.000 A 
ATOM     12 BR   UNL     1       1.210   8.512  21.613  0.00  0.00    +0.000 Br
ATOM     13  C   UNL     1       2.055   6.202  20.174  0.00  0.00    +0.000 A 
ENDBRANCH   6   7
BRANCH   5  14
ATOM     14  N   UNL     1       5.258   3.946  19.299  0.00  0.00    +0.000 N 
ATOM     15  H   UNL     1       5.931   3.360  19.795  0.00  0.00    +0.000 HD
BRANCH  14  16
ATOM     16  C   UNL     1       5.889   4.598  18.210  0.00  0.00    +0.000 A 
ATOM     17  C   UNL     1       5.823   4.134  16.890  0.00  0.00    +0.000 A 
ATOM     18  C   UNL     1       6.430   4.853  15.856  0.00  0.00    +0.000 A 
ATOM     19 BR   UNL     1       6.373   4.179  14.089  0.00  0.00    +0.000 Br
ATOM     20  C   UNL     1       7.080   6.057  16.108  0.00  0.00    +0.000 A 
ATOM     21  C   UNL     1       7.109   6.545  17.409  0.00  0.00    +0.000 A 
ATOM     22 BR   UNL     1       7.950   8.198  17.774  0.00  0.00    +0.000 Br
ATOM     23  C   UNL     1       6.515   5.830  18.451  0.00  0.00    +0.000 A 
ENDBRANCH  14  16
ENDBRANCH   5  14
TORSDOF 3
ENDMDL
MODEL 2
REMARK VINA RESULT:      -8.1      0.120      1.998
REMARK  Name = 
REMARK  3 active torsions:
REMARK  status: ('A' for Active; 'I' for Inactive)
REMARK    1  A    between atoms: C_5  and  N_6
REMARK    2  A    between atoms: N_6  and  C_7
REMARK    3  A    between atoms: C_15  and  C_16
REMARK                            x       y       z     vdW  Elec       q    Type
REMARK                         _______ _______ _______ _____ _____    ______ ____
ROOT
ATOM      1  O   UNL     1       0.512   3.085  19.162  0.00  0.00    +0.000 OA
ATOM      2  C   UNL     1       1.714   2.891  19.187  0.00  0.00    +0.000 C 
ATOM      3  O   UNL     1       2.283   1.658  19.287  0.00  0.00    +0.000 OA
ATOM      4  C   UNL     1       3.695   1.799  19.293  0.00  0.00    +0.000 C 
ATOM      5  C   UNL     1       3.934   3.263  19.199  0.00  0.00    +0.000 C 
ATOM      6  C   UNL     1       2.772   3.928  19.137  0.00  0.00    +0.000 C 
ENDROOT
BRANCH   6   7
ATOM      7  C   UNL     1       2.557   5.381  19.058  0.00  0.00    +0.000 A 
ATOM      8  C   UNL     1       2.835   6.096  17.882  0.00  0.00    +0.000 A 
ATOM      9  C   UNL     1       2.638   7.480  17.811  0.00  0.00    +0.000 A 
ATOM     10  C   UNL     1       2.173   8.178  18.924  0.00  0.00    +0.000 A 
ATOM     11  C   UNL     1       1.887   7.485  20.093  0.00  0.00    +0.000 A 
ATOM     12 BR   UNL     1       1.259   8.418  21.613  0.00  0.00    +0.000 Br
ATOM     13  C   UNL     1       2.062   6.102  20.158  0.00  0.00    +0.000 A 
ENDBRANCH   6   7
BRANCH   5  14
ATOM     14  N   UNL     1       5.220   3.770  19.219  0.00  0.00    +0.000 N 
ATOM     15  H   UNL     1       5.911   3.103  19.564  0.00  0.00    +0.000 HD
BRANCH  14  16
ATOM     16  C   UNL     1       5.783   4.569  18.193  0.00  0.00    +0.000 A 
ATOM     17  C   UNL     1       6.471   5.765  18.437  0.00  0.00    +0.000 A 
ATOM     18  C   UNL     1       7.043   6.480  17.381  0.00  0.00    +0.000 A 
ATOM     19 BR   UNL     1       7.921   8.119  17.728  0.00  0.00    +0.000 Br
ATOM     20  C   UNL     1       6.973   6.006  16.075  0.00  0.00    +0.000 A 
ATOM     21  C   UNL     1       6.332   4.796  15.834  0.00  0.00    +0.000 A 
ATOM     22 BR   UNL     1       6.256   4.108  14.074  0.00  0.00    +0.000 Br
ATOM     23  C   UNL     1       5.748   4.079  16.879  0.00  0.00    +0.000 A 
ENDBRANCH  14  16
ENDBRANCH   5  14
TORSDOF 3
ENDMDL
MODEL 3
REMARK VINA RESULT:      -8.1      1.088      1.526
REMARK  Name = 
REMARK  3 active torsions:
REMARK  status: ('A' for Active; 'I' for Inactive)
REMARK    1  A    between atoms: C_5  and  N_6
REMARK    2  A    between atoms: N_6  and  C_7
REMARK    3  A    between atoms: C_15  and  C_16
REMARK                            x       y       z     vdW  Elec       q    Type
REMARK                         _______ _______ _______ _____ _____    ______ ____
ROOT
ATOM      1  O   UNL     1       0.468   2.586  18.989  0.00  0.00    +0.000 OA
ATOM      2  C   UNL     1       1.678   2.483  18.883  0.00  0.00    +0.000 C 
ATOM      3  O   UNL     1       2.318   1.323  18.571  0.00  0.00    +0.000 OA
ATOM      4  C   UNL     1       3.716   1.561  18.536  0.00  0.00    +0.000 C 
ATOM      5  C   UNL     1       3.868   3.000  18.878  0.00  0.00    +0.000 C 
ATOM      6  C   UNL     1       2.671   3.564  19.088  0.00  0.00    +0.000 C 
ENDROOT
BRANCH   6   7
ATOM      7  C   UNL     1       2.373   4.953  19.467  0.00  0.00    +0.000 A 
ATOM      8  C   UNL     1       1.875   5.271  20.741  0.00  0.00    +0.000 A 
ATOM      9  C   UNL     1       1.585   6.593  21.098  0.00  0.00    +0.000 A 
ATOM     10  C   UNL     1       1.775   7.623  20.178  0.00  0.00    +0.000 A 
ATOM     11  C   UNL     1       2.272   7.327  18.916  0.00  0.00    +0.000 A 
ATOM     12 BR   UNL     1       2.531   8.713  17.656  0.00  0.00    +0.000 Br
ATOM     13  C   UNL     1       2.583   6.012  18.567  0.00  0.00    +0.000 A 
ENDBRANCH   6   7
BRANCH   5  14
ATOM     14  N   UNL     1       5.123   3.572  18.974  0.00  0.00    +0.000 N 
ATOM     15  H   UNL     1       5.800   2.980  19.457  0.00  0.00    +0.000 HD
BRANCH  14  16
ATOM     16  C   UNL     1       5.759   4.292  17.933  0.00  0.00    +0.000 A 
ATOM     17  C   UNL     1       5.719   3.901  16.588  0.00  0.00    +0.000 A 
ATOM     18  C   UNL     1       6.330   4.684  15.604  0.00  0.00    +0.000 A 
ATOM     19 BR   UNL     1       6.308   4.109  13.802  0.00  0.00    +0.000 Br
ATOM     20  C   UNL     1       6.958   5.882  15.932  0.00  0.00    +0.000 A 
ATOM     21  C   UNL     1       6.960   6.298  17.259  0.00  0.00    +0.000 A 
ATOM     22 BR   UNL     1       7.771   7.940  17.726  0.00  0.00    +0.000 Br
ATOM     23  C   UNL     1       6.363   5.518  18.251  0.00  0.00    +0.000 A 
ENDBRANCH  14  16
ENDBRANCH   5  14
TORSDOF 3
ENDMDL
MODEL 4
REMARK VINA RESULT:      -7.8      1.103      2.512
REMARK  Name = 
REMARK  3 active torsions:
REMARK  status: ('A' for Active; 'I' for Inactive)
REMARK    1  A    between atoms: C_5  and  N_6
REMARK    2  A    between atoms: N_6  and  C_7
REMARK    3  A    between atoms: C_15  and  C_16
REMARK                            x       y       z     vdW  Elec       q    Type
REMARK                         _______ _______ _______ _____ _____    ______ ____
ROOT
ATOM      1  O   UNL     1       0.370   2.848  18.502  0.00  0.00    +0.000 OA
ATOM      2  C   UNL     1       1.580   2.722  18.430  0.00  0.00    +0.000 C 
ATOM      3  O   UNL     1       2.204   1.581  18.026  0.00  0.00    +0.000 OA
ATOM      4  C   UNL     1       3.608   1.782  18.066  0.00  0.00    +0.000 C 
ATOM      5  C   UNL     1       3.781   3.175  18.555  0.00  0.00    +0.000 C 
ATOM      6  C   UNL     1       2.590   3.749  18.778  0.00  0.00    +0.000 C 
ENDROOT
BRANCH   6   7
ATOM      7  C   UNL     1       2.312   5.102  19.283  0.00  0.00    +0.000 A 
ATOM      8  C   UNL     1       1.915   5.316  20.612  0.00  0.00    +0.000 A 
ATOM      9  C   UNL     1       1.643   6.604  21.090  0.00  0.00    +0.000 A 
ATOM     10  C   UNL     1       1.750   7.702  20.238  0.00  0.00    +0.000 A 
ATOM     11  C   UNL     1       2.148   7.508  18.922  0.00  0.00    +0.000 A 
ATOM     12 BR   UNL     1       2.294   8.988  17.754  0.00  0.00    +0.000 Br
ATOM     13  C   UNL     1       2.441   6.228  18.451  0.00  0.00    +0.000 A 
ENDBRANCH   6   7
BRANCH   5  14
ATOM     14  N   UNL     1       5.045   3.700  18.754  0.00  0.00    +0.000 N 
ATOM     15  H   UNL     1       5.698   3.032  19.164  0.00  0.00    +0.000 HD
BRANCH  14  16
ATOM     16  C   UNL     1       5.719   4.540  17.832  0.00  0.00    +0.000 A 
ATOM     17  C   UNL     1       6.373   5.722  18.202  0.00  0.00    +0.000 A 
ATOM     18  C   UNL     1       7.059   6.479  17.248  0.00  0.00    +0.000 A 
ATOM     19 BR   UNL     1       7.891   8.099  17.761  0.00  0.00    +0.000 Br
ATOM     20  C   UNL     1       7.137   6.060  15.924  0.00  0.00    +0.000 A 
ATOM     21  C   UNL     1       6.529   4.864  15.561  0.00  0.00    +0.000 A 
ATOM     22 BR   UNL     1       6.653   4.250  13.777  0.00  0.00    +0.000 Br
ATOM     23  C   UNL     1       5.832   4.105  16.503  0.00  0.00    +0.000 A 
ENDBRANCH  14  16
ENDBRANCH   5  14
TORSDOF 3
ENDMDL
MODEL 5
REMARK VINA RESULT:      -7.7      3.140      5.979
REMARK  Name = 
REMARK  3 active torsions:
REMARK  status: ('A' for Active; 'I' for Inactive)
REMARK    1  A    between atoms: C_5  and  N_6
REMARK    2  A    between atoms: N_6  and  C_7
REMARK    3  A    between atoms: C_15  and  C_16
REMARK                            x       y       z     vdW  Elec       q    Type
REMARK                         _______ _______ _______ _____ _____    ______ ____
ROOT
ATOM      1  O   UNL     1       7.958   5.679  13.950  0.00  0.00    +0.000 OA
ATOM      2  C   UNL     1       7.091   4.936  14.375  0.00  0.00    +0.000 C 
ATOM      3  O   UNL     1       6.325   4.133  13.586  0.00  0.00    +0.000 OA
ATOM      4  C   UNL     1       5.419   3.410  14.404  0.00  0.00    +0.000 C 
ATOM      5  C   UNL     1       5.703   3.869  15.789  0.00  0.00    +0.000 C 
ATOM      6  C   UNL     1       6.691   4.775  15.793  0.00  0.00    +0.000 C 
ENDROOT
BRANCH   6   7
ATOM      7  C   UNL     1       7.263   5.493  16.941  0.00  0.00    +0.000 A 
ATOM      8  C   UNL     1       7.651   4.813  18.106  0.00  0.00    +0.000 A 
ATOM      9  C   UNL     1       8.188   5.498  19.202  0.00  0.00    +0.000 A 
ATOM     10  C   UNL     1       8.332   6.884  19.157  0.00  0.00    +0.000 A 
ATOM     11  C   UNL     1       7.959   7.572  18.010  0.00  0.00    +0.000 A 
ATOM     12 BR   UNL     1       8.145   9.452  17.936  0.00  0.00    +0.000 Br
ATOM     13  C   UNL     1       7.444   6.887  16.909  0.00  0.00    +0.000 A 
ENDBRANCH   6   7
BRANCH   5  14
ATOM     14  N   UNL     1       4.965   3.390  16.855  0.00  0.00    +0.000 N 
ATOM     15  H   UNL     1       5.503   2.793  17.483  0.00  0.00    +0.000 HD
BRANCH  14  16
ATOM     16  C   UNL     1       4.031   4.159  17.594  0.00  0.00    +0.000 A 
ATOM     17  C   UNL     1       3.835   5.532  17.397  0.00  0.00    +0.000 A 
ATOM     18  C   UNL     1       2.863   6.220  18.130  0.00  0.00    +0.000 A 
ATOM     19 BR   UNL     1       2.652   8.084  17.885  0.00  0.00    +0.000 Br
ATOM     20  C   UNL     1       2.048   5.554  19.039  0.00  0.00    +0.000 A 
ATOM     21  C   UNL     1       2.207   4.182  19.204  0.00  0.00    +0.000 A 
ATOM     22 BR   UNL     1       1.087   3.245  20.405  0.00  0.00    +0.000 Br
ATOM     23  C   UNL     1       3.182   3.487  18.487  0.00  0.00    +0.000 A 
ENDBRANCH  14  16
ENDBRANCH   5  14
TORSDOF 3
ENDMDL
MODEL 6
REMARK VINA RESULT:      -7.5      3.141      5.831
REMARK  Name = 
REMARK  3 active torsions:
REMARK  status: ('A' for Active; 'I' for Inactive)
REMARK    1  A    between atoms: C_5  and  N_6
REMARK    2  A    between atoms: N_6  and  C_7
REMARK    3  A    between atoms: C_15  and  C_16
REMARK                            x       y       z     vdW  Elec       q    Type
REMARK                         _______ _______ _______ _____ _____    ______ ____
ROOT
ATOM      1  O   UNL     1       7.894   5.671  13.933  0.00  0.00    +0.000 OA
ATOM      2  C   UNL     1       7.045   4.905  14.354  0.00  0.00    +0.000 C 
ATOM      3  O   UNL     1       6.284   4.103  13.559  0.00  0.00    +0.000 OA
ATOM      4  C   UNL     1       5.399   3.350  14.374  0.00  0.00    +0.000 C 
ATOM      5  C   UNL     1       5.691   3.789  15.763  0.00  0.00    +0.000 C 
ATOM      6  C   UNL     1       6.663   4.712  15.773  0.00  0.00    +0.000 C 
ENDROOT
BRANCH   6   7
ATOM      7  C   UNL     1       7.236   5.419  16.927  0.00  0.00    +0.000 A 
ATOM      8  C   UNL     1       7.624   4.728  18.086  0.00  0.00    +0.000 A 
ATOM      9  C   UNL     1       8.162   5.403  19.188  0.00  0.00    +0.000 A 
ATOM     10  C   UNL     1       8.307   6.789  19.156  0.00  0.00    +0.000 A 
ATOM     11  C   UNL     1       7.934   7.488  18.015  0.00  0.00    +0.000 A 
ATOM     12 BR   UNL     1       8.121   9.368  17.958  0.00  0.00    +0.000 Br
ATOM     13  C   UNL     1       7.419   6.813  16.908  0.00  0.00    +0.000 A 
ENDBRANCH   6   7
BRANCH   5  14
ATOM     14  N   UNL     1       4.973   3.279  16.829  0.00  0.00    +0.000 N 
ATOM     15  H   UNL     1       5.549   2.758  17.491  0.00  0.00    +0.000 HD
BRANCH  14  16
ATOM     16  C   UNL     1       3.951   3.979  17.516  0.00  0.00    +0.000 A 
ATOM     17  C   UNL     1       3.080   3.371  18.430  0.00  0.00    +0.000 A 
ATOM     18  C   UNL     1       2.122   4.132  19.108  0.00  0.00    +0.000 A 
ATOM     19 BR   UNL     1       0.922   3.280  20.297  0.00  0.00    +0.000 Br
ATOM     20  C   UNL     1       2.037   5.508  18.920  0.00  0.00    +0.000 A 
ATOM     21  C   UNL     1       2.930   6.122  18.049  0.00  0.00    +0.000 A 
ATOM     22 BR   UNL     1       2.863   7.996  17.804  0.00  0.00    +0.000 Br
ATOM     23  C   UNL     1       3.883   5.372  17.358  0.00  0.00    +0.000 A 
ENDBRANCH  14  16
ENDBRANCH   5  14
TORSDOF 3
ENDMDL
MODEL 7
REMARK VINA RESULT:      -7.4      2.149      5.655
REMARK  Name = 
REMARK  3 active torsions:
REMARK  status: ('A' for Active; 'I' for Inactive)
REMARK    1  A    between atoms: C_5  and  N_6
REMARK    2  A    between atoms: N_6  and  C_7
REMARK    3  A    between atoms: C_15  and  C_16
REMARK                            x       y       z     vdW  Elec       q    Type
REMARK                         _______ _______ _______ _____ _____    ______ ____
ROOT
ATOM      1  O   UNL     1       2.268   2.737  17.421  0.00  0.00    +0.000 OA
ATOM      2  C   UNL     1       1.969   3.354  18.428  0.00  0.00    +0.000 C 
ATOM      3  O   UNL     1       0.910   3.041  19.225  0.00  0.00    +0.000 OA
ATOM      4  C   UNL     1       0.853   3.964  20.302  0.00  0.00    +0.000 C 
ATOM      5  C   UNL     1       1.991   4.892  20.071  0.00  0.00    +0.000 C 
ATOM      6  C   UNL     1       2.664   4.548  18.964  0.00  0.00    +0.000 C 
ENDROOT
BRANCH   6   7
ATOM      7  C   UNL     1       3.834   5.209  18.368  0.00  0.00    +0.000 A 
ATOM      8  C   UNL     1       3.742   5.889  17.143  0.00  0.00    +0.000 A 
ATOM      9  C   UNL     1       4.858   6.512  16.573  0.00  0.00    +0.000 A 
ATOM     10  C   UNL     1       6.095   6.452  17.212  0.00  0.00    +0.000 A 
ATOM     11  C   UNL     1       6.203   5.788  18.427  0.00  0.00    +0.000 A 
ATOM     12 BR   UNL     1       7.875   5.694  19.305  0.00  0.00    +0.000 Br
ATOM     13  C   UNL     1       5.086   5.186  19.008  0.00  0.00    +0.000 A 
ENDBRANCH   6   7
BRANCH   5  14
ATOM     14  N   UNL     1       2.214   5.957  20.923  0.00  0.00    +0.000 N 
ATOM     15  H   UNL     1       3.187   6.040  21.219  0.00  0.00    +0.000 HD
BRANCH  14  16
ATOM     16  C   UNL     1       1.641   7.244  20.766  0.00  0.00    +0.000 A 
ATOM     17  C   UNL     1       0.910   7.891  21.771  0.00  0.00    +0.000 A 
ATOM     18  C   UNL     1       0.412   9.181  21.565  0.00  0.00    +0.000 A 
ATOM     19 BR   UNL     1      -0.617  10.013  22.917  0.00  0.00    +0.000 Br
ATOM     20  C   UNL     1       0.660   9.862  20.378  0.00  0.00    +0.000 A 
ATOM     21  C   UNL     1       1.425   9.243  19.395  0.00  0.00    +0.000 A 
ATOM     22 BR   UNL     1       1.810  10.161  17.788  0.00  0.00    +0.000 Br
ATOM     23  C   UNL     1       1.918   7.951  19.585  0.00  0.00    +0.000 A 
ENDBRANCH  14  16
ENDBRANCH   5  14
TORSDOF 3
ENDMDL
MODEL 8
REMARK VINA RESULT:      -7.3      2.152      5.491
REMARK  Name = 
REMARK  3 active torsions:
REMARK  status: ('A' for Active; 'I' for Inactive)
REMARK    1  A    between atoms: C_5  and  N_6
REMARK    2  A    between atoms: N_6  and  C_7
REMARK    3  A    between atoms: C_15  and  C_16
REMARK                            x       y       z     vdW  Elec       q    Type
REMARK                         _______ _______ _______ _____ _____    ______ ____
ROOT
ATOM      1  O   UNL     1       2.263   2.844  17.221  0.00  0.00    +0.000 OA
ATOM      2  C   UNL     1       1.963   3.425  18.250  0.00  0.00    +0.000 C 
ATOM      3  O   UNL     1       0.890   3.098  19.022  0.00  0.00    +0.000 OA
ATOM      4  C   UNL     1       0.836   3.976  20.135  0.00  0.00    +0.000 C 
ATOM      5  C   UNL     1       1.992   4.894  19.954  0.00  0.00    +0.000 C 
ATOM      6  C   UNL     1       2.672   4.584  18.841  0.00  0.00    +0.000 C 
ENDROOT
BRANCH   6   7
ATOM      7  C   UNL     1       3.859   5.249  18.286  0.00  0.00    +0.000 A 
ATOM      8  C   UNL     1       3.798   5.958  17.076  0.00  0.00    +0.000 A 
ATOM      9  C   UNL     1       4.931   6.584  16.543  0.00  0.00    +0.000 A 
ATOM     10  C   UNL     1       6.154   6.498  17.207  0.00  0.00    +0.000 A 
ATOM     11  C   UNL     1       6.231   5.805  18.408  0.00  0.00    +0.000 A 
ATOM     12 BR   UNL     1       7.883   5.677  19.319  0.00  0.00    +0.000 Br
ATOM     13  C   UNL     1       5.097   5.200  18.951  0.00  0.00    +0.000 A 
ENDBRANCH   6   7
BRANCH   5  14
ATOM     14  N   UNL     1       2.223   5.919  20.851  0.00  0.00    +0.000 N 
ATOM     15  H   UNL     1       3.171   5.918  21.230  0.00  0.00    +0.000 HD
BRANCH  14  16
ATOM     16  C   UNL     1       1.766   7.251  20.684  0.00  0.00    +0.000 A 
ATOM     17  C   UNL     1       1.952   7.988  19.508  0.00  0.00    +0.000 A 
ATOM     18  C   UNL     1       1.434   9.282  19.394  0.00  0.00    +0.000 A 
ATOM     19 BR   UNL     1       1.744  10.278  17.816  0.00  0.00    +0.000 Br
ATOM     20  C   UNL     1       0.694   9.849  20.427  0.00  0.00    +0.000 A 
ATOM     21  C   UNL     1       0.467   9.103  21.578  0.00  0.00    +0.000 A 
ATOM     22 BR   UNL     1      -0.568   9.835  22.981  0.00  0.00    +0.000 Br
ATOM     23  C   UNL     1       0.989   7.815  21.707  0.00  0.00    +0.000 A 
ENDBRANCH  14  16
ENDBRANCH   5  14
TORSDOF 3
ENDMDL
MODEL 9
REMARK VINA RESULT:      -7.1      1.846      5.590
REMARK  Name = 
REMARK  3 active torsions:
REMARK  status: ('A' for Active; 'I' for Inactive)
REMARK    1  A    between atoms: C_5  and  N_6
REMARK    2  A    between atoms: N_6  and  C_7
REMARK    3  A    between atoms: C_15  and  C_16
REMARK                            x       y       z     vdW  Elec       q    Type
REMARK                         _______ _______ _______ _____ _____    ______ ____
ROOT
ATOM      1  O   UNL     1       2.202   2.142  17.415  0.00  0.00    +0.000 OA
ATOM      2  C   UNL     1       1.925   2.859  18.361  0.00  0.00    +0.000 C 
ATOM      3  O   UNL     1       0.764   2.772  19.066  0.00  0.00    +0.000 OA
ATOM      4  C   UNL     1       0.770   3.755  20.090  0.00  0.00    +0.000 C 
ATOM      5  C   UNL     1       2.064   4.469  19.927  0.00  0.00    +0.000 C 
ATOM      6  C   UNL     1       2.763   3.953  18.906  0.00  0.00    +0.000 C 
ENDROOT
BRANCH   6   7
ATOM      7  C   UNL     1       4.075   4.377  18.396  0.00  0.00    +0.000 A 
ATOM      8  C   UNL     1       5.084   4.826  19.263  0.00  0.00    +0.000 A 
ATOM      9  C   UNL     1       6.330   5.236  18.776  0.00  0.00    +0.000 A 
ATOM     10  C   UNL     1       6.584   5.220  17.406  0.00  0.00    +0.000 A 
ATOM     11  C   UNL     1       5.599   4.773  16.534  0.00  0.00    +0.000 A 
ATOM     12 BR   UNL     1       5.928   4.748  14.672  0.00  0.00    +0.000 Br
ATOM     13  C   UNL     1       4.365   4.343  17.021  0.00  0.00    +0.000 A 
ENDBRANCH   6   7
BRANCH   5  14
ATOM     14  N   UNL     1       2.389   5.532  20.748  0.00  0.00    +0.000 N 
ATOM     15  H   UNL     1       3.367   5.535  21.037  0.00  0.00    +0.000 HD
BRANCH  14  16
ATOM     16  C   UNL     1       1.932   6.860  20.560  0.00  0.00    +0.000 A 
ATOM     17  C   UNL     1       2.133   7.584  19.377  0.00  0.00    +0.000 A 
ATOM     18  C   UNL     1       1.614   8.876  19.241  0.00  0.00    +0.000 A 
ATOM     19 BR   UNL     1       1.943   9.854  17.656  0.00  0.00    +0.000 Br
ATOM     20  C   UNL     1       0.860   9.454  20.258  0.00  0.00    +0.000 A 
ATOM     21  C   UNL     1       0.619   8.722  21.415  0.00  0.00    +0.000 A 
ATOM     22 BR   UNL     1      -0.435   9.468  22.796  0.00  0.00    +0.000 Br
ATOM     23  C   UNL     1       1.141   7.436  21.566  0.00  0.00    +0.000 A 
ENDBRANCH  14  16
ENDBRANCH   5  14
TORSDOF 3
ENDMDL
