MODEL 1
REMARK VINA RESULT:      -7.4      0.000      0.000
REMARK  Name = 
REMARK  8 active torsions:
REMARK  status: ('A' for Active; 'I' for Inactive)
REMARK    1  A    between atoms: C_1  and  O_2
REMARK    2  A    between atoms: O_2  and  C_3
REMARK    3  A    between atoms: C_6  and  C_7
REMARK    4  A    between atoms: N_9  and  C_10
REMARK    5  A    between atoms: C_10  and  C_11
REMARK    6  A    between atoms: C_17  and  C_18
REMARK    7  A    between atoms: C_22  and  O_23
REMARK    8  A    between atoms: O_23  and  C_24
REMARK                            x       y       z     vdW  Elec       q    Type
REMARK                         _______ _______ _______ _____ _____    ______ ____
ROOT
ATOM      1  C   UNL     1       2.924   5.443  18.615  0.00  0.00    +0.000 C 
ATOM      2  O   UNL     1       1.893   4.868  18.277  0.00  0.00    +0.000 OA
ATOM      3  N   UNL     1       3.012   6.183  19.774  0.00  0.00    +0.000 N 
ATOM      4  H   UNL     1       3.777   6.819  19.930  0.00  0.00    +0.000 HD
ENDROOT
BRANCH   1   8
ATOM      5  C   UNL     1       6.375   5.049  16.044  0.00  0.00    +0.000 A 
ATOM      6  C   UNL     1       5.501   3.978  16.278  0.00  0.00    +0.000 A 
ATOM      7  C   UNL     1       4.386   4.133  17.104  0.00  0.00    +0.000 A 
ATOM      8  C   UNL     1       4.140   5.349  17.749  0.00  0.00    +0.000 A 
ATOM      9  C   UNL     1       5.053   6.393  17.575  0.00  0.00    +0.000 A 
ATOM     10  C   UNL     1       6.172   6.256  16.731  0.00  0.00    +0.000 A 
BRANCH   5  12
ATOM     11  C   UNL     1       7.117   4.789  13.809  0.00  0.00    +0.000 C 
ATOM     12  O   UNL     1       7.438   4.922  15.193  0.00  0.00    +0.000 OA
ENDBRANCH   5  12
BRANCH  10  13
ATOM     13  O   UNL     1       6.924   7.401  16.697  0.00  0.00    +0.000 OA
ATOM     14  C   UNL     1       7.796   7.690  17.778  0.00  0.00    +0.000 C 
ENDBRANCH  10  13
ENDBRANCH   1   8
BRANCH   3  15
ATOM     15  C   UNL     1       1.866   6.363  20.638  0.00  0.00    +0.000 C 
BRANCH  15  16
ATOM     16  C   UNL     1       1.395   7.772  20.524  0.00  0.00    +0.000 A 
ATOM     17  C   UNL     1       1.599   8.664  19.491  0.00  0.00    +0.000 A 
ATOM     18  N   UNL     1       0.996   9.831  19.879  0.00  0.00    +0.000 N 
ATOM     19  C   UNL     1       0.922  11.046  19.210  0.00  0.00    +0.000 A 
ATOM     20  C   UNL     1       0.277  12.071  19.791  0.00  0.00    +0.000 A 
ATOM     21  C   UNL     1      -0.333  11.863  21.093  0.00  0.00    +0.000 A 
ATOM     22  C   UNL     1      -0.275  10.681  21.758  0.00  0.00    +0.000 A 
ATOM     23  C   UNL     1      -0.935  10.535  23.103  0.00  0.00    +0.000 C 
ATOM     24  C   UNL     1       0.432   9.599  21.128  0.00  0.00    +0.000 A 
ATOM     25  N   UNL     1       0.668   8.366  21.536  0.00  0.00    +0.000 NA
ENDBRANCH  15  16
ENDBRANCH   3  15
TORSDOF 5
ENDMDL
MODEL 2
REMARK VINA RESULT:      -7.4      3.957      8.689
REMARK  Name = 
REMARK  8 active torsions:
REMARK  status: ('A' for Active; 'I' for Inactive)
REMARK    1  A    between atoms: C_1  and  O_2
REMARK    2  A    between atoms: O_2  and  C_3
REMARK    3  A    between atoms: C_6  and  C_7
REMARK    4  A    between atoms: N_9  and  C_10
REMARK    5  A    between atoms: C_10  and  C_11
REMARK    6  A    between atoms: C_17  and  C_18
REMARK    7  A    between atoms: C_22  and  O_23
REMARK    8  A    between atoms: O_23  and  C_24
REMARK                            x       y       z     vdW  Elec       q    Type
REMARK                         _______ _______ _______ _____ _____    ______ ____
ROOT
ATOM      1  C   UNL     1       0.552   9.999  18.565  0.00  0.00    +0.000 C 
ATOM      2  O   UNL     1       1.114  10.549  19.507  0.00  0.00    +0.000 OA
ATOM      3  N   UNL     1       1.159   9.021  17.808  0.00  0.00    +0.000 N 
ATOM      4  H   UNL     1       0.781   8.738  16.919  0.00  0.00    +0.000 HD
ENDROOT
BRANCH   1   8
ATOM      5  C   UNL     1      -3.470  11.268  17.617  0.00  0.00    +0.000 A 
ATOM      6  C   UNL     1      -2.785  11.756  18.738  0.00  0.00    +0.000 A 
ATOM      7  C   UNL     1      -1.482  11.340  19.018  0.00  0.00    +0.000 A 
ATOM      8  C   UNL     1      -0.846  10.394  18.207  0.00  0.00    +0.000 A 
ATOM      9  C   UNL     1      -1.557   9.851  17.132  0.00  0.00    +0.000 A 
ATOM     10  C   UNL     1      -2.866  10.275  16.829  0.00  0.00    +0.000 A 
BRANCH   5  12
ATOM     11  C   UNL     1      -5.787  11.197  18.107  0.00  0.00    +0.000 C 
ATOM     12  O   UNL     1      -4.726  11.712  17.305  0.00  0.00    +0.000 OA
ENDBRANCH   5  12
BRANCH  10  13
ATOM     13  O   UNL     1      -3.368   9.624  15.733  0.00  0.00    +0.000 OA
ATOM     14  C   UNL     1      -3.221  10.212  14.450  0.00  0.00    +0.000 C 
ENDBRANCH  10  13
ENDBRANCH   1   8
BRANCH   3  15
ATOM     15  C   UNL     1       2.527   8.621  18.059  0.00  0.00    +0.000 C 
BRANCH  15  16
ATOM     16  C   UNL     1       2.526   7.264  18.674  0.00  0.00    +0.000 A 
ATOM     17  C   UNL     1       2.118   6.897  19.941  0.00  0.00    +0.000 A 
ATOM     18  N   UNL     1       2.346   5.549  20.031  0.00  0.00    +0.000 N 
ATOM     19  C   UNL     1       2.124   4.690  21.100  0.00  0.00    +0.000 A 
ATOM     20  C   UNL     1       2.432   3.390  20.965  0.00  0.00    +0.000 A 
ATOM     21  C   UNL     1       2.972   2.928  19.698  0.00  0.00    +0.000 A 
ATOM     22  C   UNL     1       3.190   3.752  18.641  0.00  0.00    +0.000 A 
ATOM     23  C   UNL     1       3.747   3.204  17.355  0.00  0.00    +0.000 C 
ATOM     24  C   UNL     1       2.868   5.144  18.808  0.00  0.00    +0.000 A 
ATOM     25  N   UNL     1       2.991   6.165  17.980  0.00  0.00    +0.000 NA
ENDBRANCH  15  16
ENDBRANCH   3  15
TORSDOF 5
ENDMDL
MODEL 3
REMARK VINA RESULT:      -7.2      3.880      8.461
REMARK  Name = 
REMARK  8 active torsions:
REMARK  status: ('A' for Active; 'I' for Inactive)
REMARK    1  A    between atoms: C_1  and  O_2
REMARK    2  A    between atoms: O_2  and  C_3
REMARK    3  A    between atoms: C_6  and  C_7
REMARK    4  A    between atoms: N_9  and  C_10
REMARK    5  A    between atoms: C_10  and  C_11
REMARK    6  A    between atoms: C_17  and  C_18
REMARK    7  A    between atoms: C_22  and  O_23
REMARK    8  A    between atoms: O_23  and  C_24
REMARK                            x       y       z     vdW  Elec       q    Type
REMARK                         _______ _______ _______ _____ _____    ______ ____
ROOT
ATOM      1  C   UNL     1       0.752   9.680  18.732  0.00  0.00    +0.000 C 
ATOM      2  O   UNL     1       1.733  10.085  18.115  0.00  0.00    +0.000 OA
ATOM      3  N   UNL     1       0.848   8.755  19.749  0.00  0.00    +0.000 N 
ATOM      4  H   UNL     1       0.034   8.272  20.094  0.00  0.00    +0.000 HD
ENDROOT
BRANCH   1   8
ATOM      5  C   UNL     1      -3.147  11.296  17.800  0.00  0.00    +0.000 A 
ATOM      6  C   UNL     1      -2.414  11.729  18.913  0.00  0.00    +0.000 A 
ATOM      7  C   UNL     1      -1.150  11.200  19.188  0.00  0.00    +0.000 A 
ATOM      8  C   UNL     1      -0.608  10.196  18.380  0.00  0.00    +0.000 A 
ATOM      9  C   UNL     1      -1.371   9.711  17.314  0.00  0.00    +0.000 A 
ATOM     10  C   UNL     1      -2.639  10.248  17.015  0.00  0.00    +0.000 A 
BRANCH   5  12
ATOM     11  C   UNL     1      -5.460  11.426  18.296  0.00  0.00    +0.000 C 
ATOM     12  O   UNL     1      -4.360  11.849  17.492  0.00  0.00    +0.000 OA
ENDBRANCH   5  12
BRANCH  10  13
ATOM     13  O   UNL     1      -3.205   9.637  15.928  0.00  0.00    +0.000 OA
ATOM     14  C   UNL     1      -3.011  10.198  14.639  0.00  0.00    +0.000 C 
ENDBRANCH  10  13
ENDBRANCH   1   8
BRANCH   3  15
ATOM     15  C   UNL     1       2.120   8.171  20.114  0.00  0.00    +0.000 C 
BRANCH  15  16
ATOM     16  C   UNL     1       2.146   6.753  19.660  0.00  0.00    +0.000 A 
ATOM     17  C   UNL     1       2.443   6.259  18.406  0.00  0.00    +0.000 A 
ATOM     18  N   UNL     1       2.296   4.899  18.494  0.00  0.00    +0.000 N 
ATOM     19  C   UNL     1       2.462   3.932  17.511  0.00  0.00    +0.000 A 
ATOM     20  C   UNL     1       2.255   2.643  17.825  0.00  0.00    +0.000 A 
ATOM     21  C   UNL     1       1.881   2.308  19.189  0.00  0.00    +0.000 A 
ATOM     22  C   UNL     1       1.720   3.240  20.163  0.00  0.00    +0.000 A 
ATOM     23  C   UNL     1       1.336   2.821  21.557  0.00  0.00    +0.000 C 
ATOM     24  C   UNL     1       1.930   4.617  19.806  0.00  0.00    +0.000 A 
ATOM     25  N   UNL     1       1.828   5.721  20.521  0.00  0.00    +0.000 NA
ENDBRANCH  15  16
ENDBRANCH   3  15
TORSDOF 5
ENDMDL
MODEL 4
REMARK VINA RESULT:      -7.2      1.087      1.109
REMARK  Name = 
REMARK  8 active torsions:
REMARK  status: ('A' for Active; 'I' for Inactive)
REMARK    1  A    between atoms: C_1  and  O_2
REMARK    2  A    between atoms: O_2  and  C_3
REMARK    3  A    between atoms: C_6  and  C_7
REMARK    4  A    between atoms: N_9  and  C_10
REMARK    5  A    between atoms: C_10  and  C_11
REMARK    6  A    between atoms: C_17  and  C_18
REMARK    7  A    between atoms: C_22  and  O_23
REMARK    8  A    between atoms: O_23  and  C_24
REMARK                            x       y       z     vdW  Elec       q    Type
REMARK                         _______ _______ _______ _____ _____    ______ ____
ROOT
ATOM      1  C   UNL     1       2.872   5.089  19.098  0.00  0.00    +0.000 C 
ATOM      2  O   UNL     1       1.899   4.359  18.935  0.00  0.00    +0.000 OA
ATOM      3  N   UNL     1       2.893   6.094  20.040  0.00  0.00    +0.000 N 
ATOM      4  H   UNL     1       3.594   6.817  20.019  0.00  0.00    +0.000 HD
ENDROOT
BRANCH   1   8
ATOM      5  C   UNL     1       6.306   4.570  16.526  0.00  0.00    +0.000 A 
ATOM      6  C   UNL     1       4.996   4.494  16.034  0.00  0.00    +0.000 A 
ATOM      7  C   UNL     1       3.901   4.676  16.883  0.00  0.00    +0.000 A 
ATOM      8  C   UNL     1       4.090   4.898  18.251  0.00  0.00    +0.000 A 
ATOM      9  C   UNL     1       5.395   4.899  18.753  0.00  0.00    +0.000 A 
ATOM     10  C   UNL     1       6.508   4.734  17.905  0.00  0.00    +0.000 A 
BRANCH   5  12
ATOM     11  C   UNL     1       7.152   4.776  14.322  0.00  0.00    +0.000 C 
ATOM     12  O   UNL     1       7.383   4.448  15.691  0.00  0.00    +0.000 OA
ENDBRANCH   5  12
BRANCH  10  13
ATOM     13  O   UNL     1       7.687   4.780  18.602  0.00  0.00    +0.000 OA
ATOM     14  C   UNL     1       7.898   5.826  19.536  0.00  0.00    +0.000 C 
ENDBRANCH  10  13
ENDBRANCH   1   8
BRANCH   3  15
ATOM     15  C   UNL     1       1.736   6.376  20.863  0.00  0.00    +0.000 C 
BRANCH  15  16
ATOM     16  C   UNL     1       1.333   7.795  20.658  0.00  0.00    +0.000 A 
ATOM     17  C   UNL     1       1.619   8.622  19.590  0.00  0.00    +0.000 A 
ATOM     18  N   UNL     1       1.053   9.832  19.892  0.00  0.00    +0.000 N 
ATOM     19  C   UNL     1       1.059  11.012  19.159  0.00  0.00    +0.000 A 
ATOM     20  C   UNL     1       0.438  12.092  19.660  0.00  0.00    +0.000 A 
ATOM     21  C   UNL     1      -0.233  11.979  20.944  0.00  0.00    +0.000 A 
ATOM     22  C   UNL     1      -0.254  10.833  21.670  0.00  0.00    +0.000 A 
ATOM     23  C   UNL     1      -0.973  10.786  22.992  0.00  0.00    +0.000 C 
ATOM     24  C   UNL     1       0.430   9.690  21.127  0.00  0.00    +0.000 A 
ATOM     25  N   UNL     1       0.594   8.472  21.607  0.00  0.00    +0.000 NA
ENDBRANCH  15  16
ENDBRANCH   3  15
TORSDOF 5
ENDMDL
MODEL 5
REMARK VINA RESULT:      -7.1      3.049      5.144
REMARK  Name = 
REMARK  8 active torsions:
REMARK  status: ('A' for Active; 'I' for Inactive)
REMARK    1  A    between atoms: C_1  and  O_2
REMARK    2  A    between atoms: O_2  and  C_3
REMARK    3  A    between atoms: C_6  and  C_7
REMARK    4  A    between atoms: N_9  and  C_10
REMARK    5  A    between atoms: C_10  and  C_11
REMARK    6  A    between atoms: C_17  and  C_18
REMARK    7  A    between atoms: C_22  and  O_23
REMARK    8  A    between atoms: O_23  and  C_24
REMARK                            x       y       z     vdW  Elec       q    Type
REMARK                         _______ _______ _______ _____ _____    ______ ____
ROOT
ATOM      1  C   UNL     1       2.029   8.418  18.475  0.00  0.00    +0.000 C 
ATOM      2  O   UNL     1       2.491   8.808  17.406  0.00  0.00    +0.000 OA
ATOM      3  N   UNL     1       1.329   9.245  19.324  0.00  0.00    +0.000 N 
ATOM      4  H   UNL     1       1.148   8.982  20.279  0.00  0.00    +0.000 HD
ENDROOT
BRANCH   1   8
ATOM      5  C   UNL     1       2.498   4.326  19.787  0.00  0.00    +0.000 A 
ATOM      6  C   UNL     1       2.030   5.330  20.647  0.00  0.00    +0.000 A 
ATOM      7  C   UNL     1       1.877   6.643  20.197  0.00  0.00    +0.000 A 
ATOM      8  C   UNL     1       2.225   6.993  18.888  0.00  0.00    +0.000 A 
ATOM      9  C   UNL     1       2.762   6.008  18.054  0.00  0.00    +0.000 A 
ATOM     10  C   UNL     1       2.906   4.676  18.490  0.00  0.00    +0.000 A 
BRANCH   5  12
ATOM     11  C   UNL     1       1.624   2.599  21.154  0.00  0.00    +0.000 C 
ATOM     12  O   UNL     1       2.599   3.027  20.204  0.00  0.00    +0.000 OA
ENDBRANCH   5  12
BRANCH  10  13
ATOM     13  O   UNL     1       3.439   3.878  17.512  0.00  0.00    +0.000 OA
ATOM     14  C   UNL     1       4.530   4.358  16.744  0.00  0.00    +0.000 C 
ENDBRANCH  10  13
ENDBRANCH   1   8
BRANCH   3  15
ATOM     15  C   UNL     1       1.142  10.647  19.020  0.00  0.00    +0.000 C 
BRANCH  15  16
ATOM     16  C   UNL     1      -0.297  10.886  18.717  0.00  0.00    +0.000 A 
ATOM     17  C   UNL     1      -1.229  11.574  19.468  0.00  0.00    +0.000 A 
ATOM     18  N   UNL     1      -2.409  11.480  18.777  0.00  0.00    +0.000 N 
ATOM     19  C   UNL     1      -3.660  11.987  19.104  0.00  0.00    +0.000 A 
ATOM     20  C   UNL     1      -4.690  11.765  18.271  0.00  0.00    +0.000 A 
ATOM     21  C   UNL     1      -4.450  11.015  17.049  0.00  0.00    +0.000 A 
ATOM     22  C   UNL     1      -3.233  10.518  16.712  0.00  0.00    +0.000 A 
ATOM     23  C   UNL     1      -3.056   9.755  15.427  0.00  0.00    +0.000 C 
ATOM     24  C   UNL     1      -2.145  10.752  17.623  0.00  0.00    +0.000 A 
ATOM     25  N   UNL     1      -0.880  10.379  17.573  0.00  0.00    +0.000 NA
ENDBRANCH  15  16
ENDBRANCH   3  15
TORSDOF 5
ENDMDL
MODEL 6
REMARK VINA RESULT:      -7.1      3.223      4.959
REMARK  Name = 
REMARK  8 active torsions:
REMARK  status: ('A' for Active; 'I' for Inactive)
REMARK    1  A    between atoms: C_1  and  O_2
REMARK    2  A    between atoms: O_2  and  C_3
REMARK    3  A    between atoms: C_6  and  C_7
REMARK    4  A    between atoms: N_9  and  C_10
REMARK    5  A    between atoms: C_10  and  C_11
REMARK    6  A    between atoms: C_17  and  C_18
REMARK    7  A    between atoms: C_22  and  O_23
REMARK    8  A    between atoms: O_23  and  C_24
REMARK                            x       y       z     vdW  Elec       q    Type
REMARK                         _______ _______ _______ _____ _____    ______ ____
ROOT
ATOM      1  C   UNL     1       1.498   8.136  20.376  0.00  0.00    +0.000 C 
ATOM      2  O   UNL     1       1.263   8.312  21.567  0.00  0.00    +0.000 OA
ATOM      3  N   UNL     1       1.202   9.077  19.415  0.00  0.00    +0.000 N 
ATOM      4  H   UNL     1       1.194   8.841  18.436  0.00  0.00    +0.000 HD
ENDROOT
BRANCH   1   8
ATOM      5  C   UNL     1       3.406   4.514  18.987  0.00  0.00    +0.000 A 
ATOM      6  C   UNL     1       3.397   5.686  18.219  0.00  0.00    +0.000 A 
ATOM      7  C   UNL     1       2.783   6.848  18.693  0.00  0.00    +0.000 A 
ATOM      8  C   UNL     1       2.129   6.854  19.929  0.00  0.00    +0.000 A 
ATOM      9  C   UNL     1       2.074   5.664  20.661  0.00  0.00    +0.000 A 
ATOM     10  C   UNL     1       2.704   4.491  20.202  0.00  0.00    +0.000 A 
BRANCH   5  12
ATOM     11  C   UNL     1       3.267   2.471  17.795  0.00  0.00    +0.000 C 
ATOM     12  O   UNL     1       4.053   3.389  18.554  0.00  0.00    +0.000 OA
ENDBRANCH   5  12
BRANCH  10  13
ATOM     13  O   UNL     1       2.536   3.450  21.078  0.00  0.00    +0.000 OA
ATOM     14  C   UNL     1       1.278   2.797  21.144  0.00  0.00    +0.000 C 
ENDBRANCH  10  13
ENDBRANCH   1   8
BRANCH   3  15
ATOM     15  C   UNL     1       0.545  10.319  19.760  0.00  0.00    +0.000 C 
BRANCH  15  16
ATOM     16  C   UNL     1      -0.651  10.489  18.889  0.00  0.00    +0.000 A 
ATOM     17  C   UNL     1      -0.833  10.063  17.588  0.00  0.00    +0.000 A 
ATOM     18  N   UNL     1      -2.083  10.490  17.226  0.00  0.00    +0.000 N 
ATOM     19  C   UNL     1      -2.747  10.336  16.016  0.00  0.00    +0.000 A 
ATOM     20  C   UNL     1      -3.981  10.850  15.880  0.00  0.00    +0.000 A 
ATOM     21  C   UNL     1      -4.581  11.534  17.013  0.00  0.00    +0.000 A 
ATOM     22  C   UNL     1      -3.948  11.689  18.204  0.00  0.00    +0.000 A 
ATOM     23  C   UNL     1      -4.632  12.405  19.338  0.00  0.00    +0.000 C 
ATOM     24  C   UNL     1      -2.622  11.146  18.327  0.00  0.00    +0.000 A 
ATOM     25  N   UNL     1      -1.771  11.162  19.336  0.00  0.00    +0.000 NA
ENDBRANCH  15  16
ENDBRANCH   3  15
TORSDOF 5
ENDMDL
MODEL 7
REMARK VINA RESULT:      -7.1      3.822      8.531
REMARK  Name = 
REMARK  8 active torsions:
REMARK  status: ('A' for Active; 'I' for Inactive)
REMARK    1  A    between atoms: C_1  and  O_2
REMARK    2  A    between atoms: O_2  and  C_3
REMARK    3  A    between atoms: C_6  and  C_7
REMARK    4  A    between atoms: N_9  and  C_10
REMARK    5  A    between atoms: C_10  and  C_11
REMARK    6  A    between atoms: C_17  and  C_18
REMARK    7  A    between atoms: C_22  and  O_23
REMARK    8  A    between atoms: O_23  and  C_24
REMARK                            x       y       z     vdW  Elec       q    Type
REMARK                         _______ _______ _______ _____ _____    ______ ____
ROOT
ATOM      1  C   UNL     1       1.061   9.873  18.386  0.00  0.00    +0.000 C 
ATOM      2  O   UNL     1       1.802  10.645  18.987  0.00  0.00    +0.000 OA
ATOM      3  N   UNL     1       1.495   8.663  17.892  0.00  0.00    +0.000 N 
ATOM      4  H   UNL     1       0.950   8.145  17.222  0.00  0.00    +0.000 HD
ENDROOT
BRANCH   1   8
ATOM      5  C   UNL     1      -3.058  11.070  17.848  0.00  0.00    +0.000 A 
ATOM      6  C   UNL     1      -2.290  11.527  18.928  0.00  0.00    +0.000 A 
ATOM      7  C   UNL     1      -0.957  11.135  19.075  0.00  0.00    +0.000 A 
ATOM      8  C   UNL     1      -0.372  10.244  18.169  0.00  0.00    +0.000 A 
ATOM      9  C   UNL     1      -1.161   9.730  17.136  0.00  0.00    +0.000 A 
ATOM     10  C   UNL     1      -2.501  10.130  16.966  0.00  0.00    +0.000 A 
BRANCH   5  12
ATOM     11  C   UNL     1      -5.352  10.732  18.335  0.00  0.00    +0.000 C 
ATOM     12  O   UNL     1      -4.346  11.492  17.667  0.00  0.00    +0.000 OA
ENDBRANCH   5  12
BRANCH  10  13
ATOM     13  O   UNL     1      -3.082   9.514  15.889  0.00  0.00    +0.000 OA
ATOM     14  C   UNL     1      -3.090  10.176  14.634  0.00  0.00    +0.000 C 
ENDBRANCH  10  13
ENDBRANCH   1   8
BRANCH   3  15
ATOM     15  C   UNL     1       2.877   8.255  18.017  0.00  0.00    +0.000 C 
BRANCH  15  16
ATOM     16  C   UNL     1       2.935   6.768  18.097  0.00  0.00    +0.000 A 
ATOM     17  C   UNL     1       3.725   5.900  17.370  0.00  0.00    +0.000 A 
ATOM     18  N   UNL     1       3.383   4.642  17.789  0.00  0.00    +0.000 N 
ATOM     19  C   UNL     1       3.870   3.412  17.366  0.00  0.00    +0.000 A 
ATOM     20  C   UNL     1       3.378   2.292  17.919  0.00  0.00    +0.000 A 
ATOM     21  C   UNL     1       2.364   2.411  18.953  0.00  0.00    +0.000 A 
ATOM     22  C   UNL     1       1.881   3.604  19.383  0.00  0.00    +0.000 A 
ATOM     23  C   UNL     1       0.834   3.654  20.463  0.00  0.00    +0.000 C 
ATOM     24  C   UNL     1       2.408   4.794  18.769  0.00  0.00    +0.000 A 
ATOM     25  N   UNL     1       2.120   6.067  18.962  0.00  0.00    +0.000 NA
ENDBRANCH  15  16
ENDBRANCH   3  15
TORSDOF 5
ENDMDL
MODEL 8
REMARK VINA RESULT:      -7.0      3.837      8.824
REMARK  Name = 
REMARK  8 active torsions:
REMARK  status: ('A' for Active; 'I' for Inactive)
REMARK    1  A    between atoms: C_1  and  O_2
REMARK    2  A    between atoms: O_2  and  C_3
REMARK    3  A    between atoms: C_6  and  C_7
REMARK    4  A    between atoms: N_9  and  C_10
REMARK    5  A    between atoms: C_10  and  C_11
REMARK    6  A    between atoms: C_17  and  C_18
REMARK    7  A    between atoms: C_22  and  O_23
REMARK    8  A    between atoms: O_23  and  C_24
REMARK                            x       y       z     vdW  Elec       q    Type
REMARK                         _______ _______ _______ _____ _____    ______ ____
ROOT
ATOM      1  C   UNL     1       0.660   9.852  18.739  0.00  0.00    +0.000 C 
ATOM      2  O   UNL     1       1.081  10.080  19.869  0.00  0.00    +0.000 OA
ATOM      3  N   UNL     1       1.406   9.185  17.792  0.00  0.00    +0.000 N 
ATOM      4  H   UNL     1       1.146   9.196  16.819  0.00  0.00    +0.000 HD
ENDROOT
BRANCH   1   8
ATOM      5  C   UNL     1      -3.282  11.300  17.714  0.00  0.00    +0.000 A 
ATOM      6  C   UNL     1      -2.589  11.773  18.837  0.00  0.00    +0.000 A 
ATOM      7  C   UNL     1      -1.311  11.298  19.142  0.00  0.00    +0.000 A 
ATOM      8  C   UNL     1      -0.712  10.309  18.355  0.00  0.00    +0.000 A 
ATOM      9  C   UNL     1      -1.435   9.784  17.279  0.00  0.00    +0.000 A 
ATOM     10  C   UNL     1      -2.717  10.266  16.951  0.00  0.00    +0.000 A 
BRANCH   5  12
ATOM     11  C   UNL     1      -5.631  11.166  17.991  0.00  0.00    +0.000 C 
ATOM     12  O   UNL     1      -4.510  11.800  17.378  0.00  0.00    +0.000 OA
ENDBRANCH   5  12
BRANCH  10  13
ATOM     13  O   UNL     1      -3.236   9.622  15.859  0.00  0.00    +0.000 OA
ATOM     14  C   UNL     1      -3.027  10.171  14.567  0.00  0.00    +0.000 C 
ENDBRANCH  10  13
ENDBRANCH   1   8
BRANCH   3  15
ATOM     15  C   UNL     1       2.760   8.757  18.070  0.00  0.00    +0.000 C 
BRANCH  15  16
ATOM     16  C   UNL     1       2.794   7.268  18.111  0.00  0.00    +0.000 A 
ATOM     17  C   UNL     1       2.017   6.413  18.866  0.00  0.00    +0.000 A 
ATOM     18  N   UNL     1       2.457   5.149  18.570  0.00  0.00    +0.000 N 
ATOM     19  C   UNL     1       2.020   3.929  19.069  0.00  0.00    +0.000 A 
ATOM     20  C   UNL     1       2.608   2.801  18.637  0.00  0.00    +0.000 A 
ATOM     21  C   UNL     1       3.670   2.902  17.649  0.00  0.00    +0.000 A 
ATOM     22  C   UNL     1       4.104   4.085  17.147  0.00  0.00    +0.000 A 
ATOM     23  C   UNL     1       5.206   4.115  16.122  0.00  0.00    +0.000 C 
ATOM     24  C   UNL     1       3.474   5.284  17.633  0.00  0.00    +0.000 A 
ATOM     25  N   UNL     1       3.697   6.553  17.349  0.00  0.00    +0.000 NA
ENDBRANCH  15  16
ENDBRANCH   3  15
TORSDOF 5
ENDMDL
MODEL 9
REMARK VINA RESULT:      -7.0      1.820      2.607
REMARK  Name = 
REMARK  8 active torsions:
REMARK  status: ('A' for Active; 'I' for Inactive)
REMARK    1  A    between atoms: C_1  and  O_2
REMARK    2  A    between atoms: O_2  and  C_3
REMARK    3  A    between atoms: C_6  and  C_7
REMARK    4  A    between atoms: N_9  and  C_10
REMARK    5  A    between atoms: C_10  and  C_11
REMARK    6  A    between atoms: C_17  and  C_18
REMARK    7  A    between atoms: C_22  and  O_23
REMARK    8  A    between atoms: O_23  and  C_24
REMARK                            x       y       z     vdW  Elec       q    Type
REMARK                         _______ _______ _______ _____ _____    ______ ____
ROOT
ATOM      1  C   UNL     1       2.105   6.004  20.190  0.00  0.00    +0.000 C 
ATOM      2  O   UNL     1       1.273   5.313  20.770  0.00  0.00    +0.000 OA
ATOM      3  N   UNL     1       2.208   7.363  20.391  0.00  0.00    +0.000 N 
ATOM      4  H   UNL     1       2.733   7.947  19.761  0.00  0.00    +0.000 HD
ENDROOT
BRANCH   1   8
ATOM      5  C   UNL     1       4.728   4.175  17.283  0.00  0.00    +0.000 A 
ATOM      6  C   UNL     1       3.339   4.221  17.100  0.00  0.00    +0.000 A 
ATOM      7  C   UNL     1       2.512   4.827  18.048  0.00  0.00    +0.000 A 
ATOM      8  C   UNL     1       3.050   5.366  19.221  0.00  0.00    +0.000 A 
ATOM      9  C   UNL     1       4.427   5.254  19.438  0.00  0.00    +0.000 A 
ATOM     10  C   UNL     1       5.274   4.660  18.482  0.00  0.00    +0.000 A 
BRANCH   5  12
ATOM     11  C   UNL     1       6.061   4.540  15.357  0.00  0.00    +0.000 C 
ATOM     12  O   UNL     1       5.550   3.633  16.333  0.00  0.00    +0.000 OA
ENDBRANCH   5  12
BRANCH  10  13
ATOM     13  O   UNL     1       6.581   4.665  18.890  0.00  0.00    +0.000 OA
ATOM     14  C   UNL     1       7.378   5.814  18.648  0.00  0.00    +0.000 C 
ENDBRANCH  10  13
ENDBRANCH   1   8
BRANCH   3  15
ATOM     15  C   UNL     1       1.297   8.062  21.273  0.00  0.00    +0.000 C 
BRANCH  15  16
ATOM     16  C   UNL     1       0.782   9.270  20.572  0.00  0.00    +0.000 A 
ATOM     17  C   UNL     1       1.055  10.598  20.836  0.00  0.00    +0.000 A 
ATOM     18  N   UNL     1       0.314  11.319  19.938  0.00  0.00    +0.000 N 
ATOM     19  C   UNL     1       0.215  12.696  19.785  0.00  0.00    +0.000 A 
ATOM     20  C   UNL     1      -0.588  13.189  18.829  0.00  0.00    +0.000 A 
ATOM     21  C   UNL     1      -1.313  12.260  17.978  0.00  0.00    +0.000 A 
ATOM     22  C   UNL     1      -1.223  10.912  18.110  0.00  0.00    +0.000 A 
ATOM     23  C   UNL     1      -1.999  10.008  17.189  0.00  0.00    +0.000 C 
ATOM     24  C   UNL     1      -0.370  10.401  19.149  0.00  0.00    +0.000 A 
ATOM     25  N   UNL     1      -0.107   9.162  19.520  0.00  0.00    +0.000 NA
ENDBRANCH  15  16
ENDBRANCH   3  15
TORSDOF 5
ENDMDL
