MODEL 1
REMARK VINA RESULT:      -8.0      0.000      0.000
REMARK  Name = 
REMARK  6 active torsions:
REMARK  status: ('A' for Active; 'I' for Inactive)
REMARK    1  A    between atoms: C_1  and  C_2
REMARK    2  A    between atoms: C_2  and  C_3
REMARK    3  A    between atoms: C_2  and  N_4
REMARK    4  A    between atoms: C_6  and  C_7
REMARK    5  A    between atoms: N_9  and  C_10
REMARK    6  A    between atoms: N_17  and  C_18
REMARK                            x       y       z     vdW  Elec       q    Type
REMARK                         _______ _______ _______ _____ _____    ______ ____
ROOT
ATOM      1  C   UNL     1       1.873   8.092  19.400  0.00  0.00    +0.000 C 
ATOM      2  O   UNL     1       2.727   8.096  18.518  0.00  0.00    +0.000 OA
ATOM      3  N   UNL     1       1.647   6.969  20.171  0.00  0.00    +0.000 N 
ATOM      4  H   UNL     1       0.885   7.021  20.837  0.00  0.00    +0.000 HD
ENDROOT
BRANCH   1   7
ATOM      5  N   UNL     1      -0.126  11.067  19.483  0.00  0.00    +0.000 N 
ATOM      6  N   UNL     1       0.655  10.207  18.765  0.00  0.00    +0.000 NA
ATOM      7  C   UNL     1       1.037   9.281  19.676  0.00  0.00    +0.000 A 
ATOM      8  C   UNL     1       0.521   9.584  20.969  0.00  0.00    +0.000 A 
ATOM      9  C   UNL     1       0.642   8.999  22.246  0.00  0.00    +0.000 A 
ATOM     10  C   UNL     1      -0.055   9.545  23.322  0.00  0.00    +0.000 A 
ATOM     11  C   UNL     1      -0.877  10.651  23.135  0.00  0.00    +0.000 A 
ATOM     12  C   UNL     1      -0.997  11.262  21.879  0.00  0.00    +0.000 A 
ATOM     13  C   UNL     1      -0.272  10.713  20.809  0.00  0.00    +0.000 A 
BRANCH   5  15
ATOM     14  C   UNL     1       0.393  13.255  18.417  0.00  0.00    +0.000 C 
ATOM     15  C   UNL     1      -0.687  12.272  18.868  0.00  0.00    +0.000 C 
ATOM     16  C   UNL     1      -1.665  11.961  17.737  0.00  0.00    +0.000 C 
ENDBRANCH   5  15
ENDBRANCH   1   7
BRANCH   3  17
ATOM     17  C   UNL     1       2.372   5.714  19.950  0.00  0.00    +0.000 C 
ATOM     18  C   UNL     1       2.222   4.714  21.125  0.00  0.00    +0.000 C 
ATOM     19  C   UNL     1       2.575   3.266  20.725  0.00  0.00    +0.000 C 
ATOM     20  C   UNL     1       1.386   2.501  20.107  0.00  0.00    +0.000 C 
ATOM     21  C   UNL     1       1.616   2.564  18.600  0.00  0.00    +0.000 C 
ATOM     22  C   UNL     1       2.704   3.631  18.465  0.00  0.00    +0.000 C 
ATOM     23  C   UNL     1       2.066   5.046  18.589  0.00  0.00    +0.000 C 
ATOM     24  N   UNL     1       3.567   3.380  19.641  0.00  0.00    +0.000 NA
ATOM     25  C   UNL     1       4.408   2.192  19.528  0.00  0.00    +0.000 C 
ENDBRANCH   3  17
TORSDOF 3
ENDMDL
MODEL 2
REMARK VINA RESULT:      -7.9      2.325      7.898
REMARK  Name = 
REMARK  6 active torsions:
REMARK  status: ('A' for Active; 'I' for Inactive)
REMARK    1  A    between atoms: C_1  and  C_2
REMARK    2  A    between atoms: C_2  and  C_3
REMARK    3  A    between atoms: C_2  and  N_4
REMARK    4  A    between atoms: C_6  and  C_7
REMARK    5  A    between atoms: N_9  and  C_10
REMARK    6  A    between atoms: N_17  and  C_18
REMARK                            x       y       z     vdW  Elec       q    Type
REMARK                         _______ _______ _______ _____ _____    ______ ____
ROOT
ATOM      1  C   UNL     1       2.091   7.636  19.209  0.00  0.00    +0.000 C 
ATOM      2  O   UNL     1       1.816   7.473  20.395  0.00  0.00    +0.000 OA
ATOM      3  N   UNL     1       1.598   8.715  18.504  0.00  0.00    +0.000 N 
ATOM      4  H   UNL     1       1.817   8.750  17.514  0.00  0.00    +0.000 HD
ENDROOT
BRANCH   1   7
ATOM      5  N   UNL     1       4.572   5.774  17.411  0.00  0.00    +0.000 N 
ATOM      6  N   UNL     1       4.159   6.969  17.930  0.00  0.00    +0.000 NA
ATOM      7  C   UNL     1       2.953   6.684  18.475  0.00  0.00    +0.000 A 
ATOM      8  C   UNL     1       2.600   5.319  18.267  0.00  0.00    +0.000 A 
ATOM      9  C   UNL     1       1.474   4.528  18.576  0.00  0.00    +0.000 A 
ATOM     10  C   UNL     1       1.477   3.172  18.257  0.00  0.00    +0.000 A 
ATOM     11  C   UNL     1       2.589   2.599  17.650  0.00  0.00    +0.000 A 
ATOM     12  C   UNL     1       3.712   3.368  17.315  0.00  0.00    +0.000 A 
ATOM     13  C   UNL     1       3.685   4.738  17.624  0.00  0.00    +0.000 A 
BRANCH   5  15
ATOM     14  C   UNL     1       5.599   5.714  15.145  0.00  0.00    +0.000 C 
ATOM     15  C   UNL     1       5.823   5.669  16.656  0.00  0.00    +0.000 C 
ATOM     16  C   UNL     1       6.868   6.691  17.096  0.00  0.00    +0.000 C 
ENDBRANCH   5  15
ENDBRANCH   1   7
BRANCH   3  17
ATOM     17  C   UNL     1       0.687   9.691  19.108  0.00  0.00    +0.000 C 
ATOM     18  C   UNL     1       1.411  10.967  19.609  0.00  0.00    +0.000 C 
ATOM     19  C   UNL     1       0.451  12.157  19.815  0.00  0.00    +0.000 C 
ATOM     20  C   UNL     1       0.210  12.971  18.526  0.00  0.00    +0.000 C 
ATOM     21  C   UNL     1      -1.131  12.478  17.993  0.00  0.00    +0.000 C 
ATOM     22  C   UNL     1      -1.378  11.209  18.810  0.00  0.00    +0.000 C 
ATOM     23  C   UNL     1      -0.534  10.039  18.224  0.00  0.00    +0.000 C 
ATOM     24  N   UNL     1      -0.856  11.564  20.148  0.00  0.00    +0.000 NA
ATOM     25  C   UNL     1      -1.707  12.480  20.903  0.00  0.00    +0.000 C 
ENDBRANCH   3  17
TORSDOF 3
ENDMDL
MODEL 3
REMARK VINA RESULT:      -7.9      1.913      8.119
REMARK  Name = 
REMARK  6 active torsions:
REMARK  status: ('A' for Active; 'I' for Inactive)
REMARK    1  A    between atoms: C_1  and  C_2
REMARK    2  A    between atoms: C_2  and  C_3
REMARK    3  A    between atoms: C_2  and  N_4
REMARK    4  A    between atoms: C_6  and  C_7
REMARK    5  A    between atoms: N_9  and  C_10
REMARK    6  A    between atoms: N_17  and  C_18
REMARK                            x       y       z     vdW  Elec       q    Type
REMARK                         _______ _______ _______ _____ _____    ______ ____
ROOT
ATOM      1  C   UNL     1       2.221   8.186  18.253  0.00  0.00    +0.000 C 
ATOM      2  O   UNL     1       2.553   8.814  17.252  0.00  0.00    +0.000 OA
ATOM      3  N   UNL     1       1.456   8.769  19.242  0.00  0.00    +0.000 N 
ATOM      4  H   UNL     1       1.274   8.209  20.067  0.00  0.00    +0.000 HD
ENDROOT
BRANCH   1   7
ATOM      5  N   UNL     1       2.761   4.750  19.124  0.00  0.00    +0.000 N 
ATOM      6  N   UNL     1       2.081   5.915  19.342  0.00  0.00    +0.000 NA
ATOM      7  C   UNL     1       2.632   6.779  18.457  0.00  0.00    +0.000 A 
ATOM      8  C   UNL     1       3.677   6.161  17.712  0.00  0.00    +0.000 A 
ATOM      9  C   UNL     1       4.583   6.598  16.724  0.00  0.00    +0.000 A 
ATOM     10  C   UNL     1       5.475   5.690  16.157  0.00  0.00    +0.000 A 
ATOM     11  C   UNL     1       5.462   4.357  16.552  0.00  0.00    +0.000 A 
ATOM     12  C   UNL     1       4.584   3.903  17.546  0.00  0.00    +0.000 A 
ATOM     13  C   UNL     1       3.706   4.834  18.123  0.00  0.00    +0.000 A 
BRANCH   5  15
ATOM     14  C   UNL     1       2.126   3.918  21.383  0.00  0.00    +0.000 C 
ATOM     15  C   UNL     1       2.510   3.564  19.947  0.00  0.00    +0.000 C 
ATOM     16  C   UNL     1       1.497   2.610  19.318  0.00  0.00    +0.000 C 
ENDBRANCH   5  15
ENDBRANCH   1   7
BRANCH   3  17
ATOM     17  C   UNL     1       1.040  10.174  19.179  0.00  0.00    +0.000 C 
ATOM     18  C   UNL     1      -0.249  10.387  18.343  0.00  0.00    +0.000 C 
ATOM     19  C   UNL     1      -0.937  11.736  18.641  0.00  0.00    +0.000 C 
ATOM     20  C   UNL     1      -1.898  11.672  19.847  0.00  0.00    +0.000 C 
ATOM     21  C   UNL     1      -1.107  12.258  21.013  0.00  0.00    +0.000 C 
ATOM     22  C   UNL     1       0.324  12.287  20.474  0.00  0.00    +0.000 C 
ATOM     23  C   UNL     1       0.943  10.860  20.561  0.00  0.00    +0.000 C 
ATOM     24  N   UNL     1       0.141  12.653  19.053  0.00  0.00    +0.000 NA
ATOM     25  C   UNL     1      -0.206  14.054  18.832  0.00  0.00    +0.000 C 
ENDBRANCH   3  17
TORSDOF 3
ENDMDL
MODEL 4
REMARK VINA RESULT:      -7.7      0.960      1.341
REMARK  Name = 
REMARK  6 active torsions:
REMARK  status: ('A' for Active; 'I' for Inactive)
REMARK    1  A    between atoms: C_1  and  C_2
REMARK    2  A    between atoms: C_2  and  C_3
REMARK    3  A    between atoms: C_2  and  N_4
REMARK    4  A    between atoms: C_6  and  C_7
REMARK    5  A    between atoms: N_9  and  C_10
REMARK    6  A    between atoms: N_17  and  C_18
REMARK                            x       y       z     vdW  Elec       q    Type
REMARK                         _______ _______ _______ _____ _____    ______ ____
ROOT
ATOM      1  C   UNL     1       1.930   8.012  19.150  0.00  0.00    +0.000 C 
ATOM      2  O   UNL     1       2.007   7.641  17.981  0.00  0.00    +0.000 OA
ATOM      3  N   UNL     1       2.338   7.196  20.185  0.00  0.00    +0.000 N 
ATOM      4  H   UNL     1       2.187   7.545  21.126  0.00  0.00    +0.000 HD
ENDROOT
BRANCH   1   7
ATOM      5  N   UNL     1       0.793  11.396  19.471  0.00  0.00    +0.000 N 
ATOM      6  N   UNL     1       1.460  10.456  18.740  0.00  0.00    +0.000 NA
ATOM      7  C   UNL     1       1.390   9.342  19.507  0.00  0.00    +0.000 A 
ATOM      8  C   UNL     1       0.709   9.599  20.731  0.00  0.00    +0.000 A 
ATOM      9  C   UNL     1       0.403   8.833  21.875  0.00  0.00    +0.000 A 
ATOM     10  C   UNL     1      -0.341   9.403  22.906  0.00  0.00    +0.000 A 
ATOM     11  C   UNL     1      -0.792  10.714  22.802  0.00  0.00    +0.000 A 
ATOM     12  C   UNL     1      -0.484  11.501  21.684  0.00  0.00    +0.000 A 
ATOM     13  C   UNL     1       0.285  10.920  20.663  0.00  0.00    +0.000 A 
BRANCH   5  15
ATOM     14  C   UNL     1       1.950  13.232  18.251  0.00  0.00    +0.000 C 
ATOM     15  C   UNL     1       0.703  12.785  19.015  0.00  0.00    +0.000 C 
ATOM     16  C   UNL     1      -0.569  13.067  18.218  0.00  0.00    +0.000 C 
ENDBRANCH   5  15
ENDBRANCH   1   7
BRANCH   3  17
ATOM     17  C   UNL     1       2.835   5.836  19.958  0.00  0.00    +0.000 C 
ATOM     18  C   UNL     1       1.701   4.817  19.676  0.00  0.00    +0.000 C 
ATOM     19  C   UNL     1       2.213   3.527  18.998  0.00  0.00    +0.000 C 
ATOM     20  C   UNL     1       2.299   3.643  17.462  0.00  0.00    +0.000 C 
ATOM     21  C   UNL     1       3.770   3.921  17.169  0.00  0.00    +0.000 C 
ATOM     22  C   UNL     1       4.331   4.278  18.547  0.00  0.00    +0.000 C 
ATOM     23  C   UNL     1       3.957   5.749  18.897  0.00  0.00    +0.000 C 
ATOM     24  N   UNL     1       3.605   3.361  19.453  0.00  0.00    +0.000 NA
ATOM     25  C   UNL     1       4.050   1.972  19.388  0.00  0.00    +0.000 C 
ENDBRANCH   3  17
TORSDOF 3
ENDMDL
MODEL 5
REMARK VINA RESULT:      -7.7      1.933      7.735
REMARK  Name = 
REMARK  6 active torsions:
REMARK  status: ('A' for Active; 'I' for Inactive)
REMARK    1  A    between atoms: C_1  and  C_2
REMARK    2  A    between atoms: C_2  and  C_3
REMARK    3  A    between atoms: C_2  and  N_4
REMARK    4  A    between atoms: C_6  and  C_7
REMARK    5  A    between atoms: N_9  and  C_10
REMARK    6  A    between atoms: N_17  and  C_18
REMARK                            x       y       z     vdW  Elec       q    Type
REMARK                         _______ _______ _______ _____ _____    ______ ____
ROOT
ATOM      1  C   UNL     1       1.813   7.883  20.043  0.00  0.00    +0.000 C 
ATOM      2  O   UNL     1       1.532   7.880  21.238  0.00  0.00    +0.000 OA
ATOM      3  N   UNL     1       1.495   8.957  19.237  0.00  0.00    +0.000 N 
ATOM      4  H   UNL     1       1.703   8.862  18.249  0.00  0.00    +0.000 HD
ENDROOT
BRANCH   1   7
ATOM      5  N   UNL     1       3.820   5.516  18.248  0.00  0.00    +0.000 N 
ATOM      6  N   UNL     1       3.500   6.820  18.498  0.00  0.00    +0.000 NA
ATOM      7  C   UNL     1       2.497   6.737  19.405  0.00  0.00    +0.000 A 
ATOM      8  C   UNL     1       2.171   5.381  19.693  0.00  0.00    +0.000 A 
ATOM      9  C   UNL     1       1.209   4.743  20.503  0.00  0.00    +0.000 A 
ATOM     10  C   UNL     1       1.195   3.353  20.591  0.00  0.00    +0.000 A 
ATOM     11  C   UNL     1       2.134   2.598  19.896  0.00  0.00    +0.000 A 
ATOM     12  C   UNL     1       3.087   3.208  19.069  0.00  0.00    +0.000 A 
ATOM     13  C   UNL     1       3.075   4.609  18.974  0.00  0.00    +0.000 A 
BRANCH   5  15
ATOM     14  C   UNL     1       5.015   6.256  16.194  0.00  0.00    +0.000 C 
ATOM     15  C   UNL     1       4.830   5.164  17.247  0.00  0.00    +0.000 C 
ATOM     16  C   UNL     1       6.164   4.756  17.868  0.00  0.00    +0.000 C 
ENDBRANCH   5  15
ENDBRANCH   1   7
BRANCH   3  17
ATOM     17  C   UNL     1       0.765  10.123  19.744  0.00  0.00    +0.000 C 
ATOM     18  C   UNL     1       1.420  11.469  19.343  0.00  0.00    +0.000 C 
ATOM     19  C   UNL     1       0.450  12.664  19.464  0.00  0.00    +0.000 C 
ATOM     20  C   UNL     1      -0.416  12.871  18.204  0.00  0.00    +0.000 C 
ATOM     21  C   UNL     1      -1.763  12.240  18.542  0.00  0.00    +0.000 C 
ATOM     22  C   UNL     1      -1.455  11.437  19.807  0.00  0.00    +0.000 C 
ATOM     23  C   UNL     1      -0.747  10.104  19.419  0.00  0.00    +0.000 C 
ATOM     24  N   UNL     1      -0.499  12.303  20.531  0.00  0.00    +0.000 NA
ATOM     25  C   UNL     1      -1.104  13.475  21.158  0.00  0.00    +0.000 C 
ENDBRANCH   3  17
TORSDOF 3
ENDMDL
MODEL 6
REMARK VINA RESULT:      -7.7      2.306      7.942
REMARK  Name = 
REMARK  6 active torsions:
REMARK  status: ('A' for Active; 'I' for Inactive)
REMARK    1  A    between atoms: C_1  and  C_2
REMARK    2  A    between atoms: C_2  and  C_3
REMARK    3  A    between atoms: C_2  and  N_4
REMARK    4  A    between atoms: C_6  and  C_7
REMARK    5  A    between atoms: N_9  and  C_10
REMARK    6  A    between atoms: N_17  and  C_18
REMARK                            x       y       z     vdW  Elec       q    Type
REMARK                         _______ _______ _______ _____ _____    ______ ____
ROOT
ATOM      1  C   UNL     1       2.519   7.562  18.505  0.00  0.00    +0.000 C 
ATOM      2  O   UNL     1       2.263   7.715  19.696  0.00  0.00    +0.000 OA
ATOM      3  N   UNL     1       2.123   8.490  17.564  0.00  0.00    +0.000 N 
ATOM      4  H   UNL     1       2.315   8.266  16.594  0.00  0.00    +0.000 HD
ENDROOT
BRANCH   1   7
ATOM      5  N   UNL     1       4.747   5.059  17.231  0.00  0.00    +0.000 N 
ATOM      6  N   UNL     1       4.496   6.378  17.480  0.00  0.00    +0.000 NA
ATOM      7  C   UNL     1       3.253   6.374  18.017  0.00  0.00    +0.000 A 
ATOM      8  C   UNL     1       2.717   5.055  18.070  0.00  0.00    +0.000 A 
ATOM      9  C   UNL     1       1.487   4.500  18.481  0.00  0.00    +0.000 A 
ATOM     10  C   UNL     1       1.307   3.119  18.440  0.00  0.00    +0.000 A 
ATOM     11  C   UNL     1       2.338   2.291  18.011  0.00  0.00    +0.000 A 
ATOM     12  C   UNL     1       3.563   2.820  17.579  0.00  0.00    +0.000 A 
ATOM     13  C   UNL     1       3.722   4.215  17.606  0.00  0.00    +0.000 A 
BRANCH   5  15
ATOM     14  C   UNL     1       6.139   5.245  15.176  0.00  0.00    +0.000 C 
ATOM     15  C   UNL     1       5.984   4.636  16.569  0.00  0.00    +0.000 C 
ATOM     16  C   UNL     1       7.226   4.878  17.425  0.00  0.00    +0.000 C 
ENDBRANCH   5  15
ENDBRANCH   1   7
BRANCH   3  17
ATOM     17  C   UNL     1       1.339   9.677  17.921  0.00  0.00    +0.000 C 
ATOM     18  C   UNL     1       0.287   9.398  19.025  0.00  0.00    +0.000 C 
ATOM     19  C   UNL     1      -0.207  10.686  19.718  0.00  0.00    +0.000 C 
ATOM     20  C   UNL     1       0.696  11.128  20.888  0.00  0.00    +0.000 C 
ATOM     21  C   UNL     1       1.574  12.235  20.313  0.00  0.00    +0.000 C 
ATOM     22  C   UNL     1       1.349  12.100  18.806  0.00  0.00    +0.000 C 
ATOM     23  C   UNL     1       2.200  10.918  18.255  0.00  0.00    +0.000 C 
ATOM     24  N   UNL     1      -0.086  11.754  18.711  0.00  0.00    +0.000 NA
ATOM     25  C   UNL     1      -0.993  12.869  18.970  0.00  0.00    +0.000 C 
ENDBRANCH   3  17
TORSDOF 3
ENDMDL
MODEL 7
REMARK VINA RESULT:      -7.7      1.764      7.999
REMARK  Name = 
REMARK  6 active torsions:
REMARK  status: ('A' for Active; 'I' for Inactive)
REMARK    1  A    between atoms: C_1  and  C_2
REMARK    2  A    between atoms: C_2  and  C_3
REMARK    3  A    between atoms: C_2  and  N_4
REMARK    4  A    between atoms: C_6  and  C_7
REMARK    5  A    between atoms: N_9  and  C_10
REMARK    6  A    between atoms: N_17  and  C_18
REMARK                            x       y       z     vdW  Elec       q    Type
REMARK                         _______ _______ _______ _____ _____    ______ ____
ROOT
ATOM      1  C   UNL     1       1.808   7.821  20.322  0.00  0.00    +0.000 C 
ATOM      2  O   UNL     1       1.833   8.115  21.514  0.00  0.00    +0.000 OA
ATOM      3  N   UNL     1       1.425   8.742  19.368  0.00  0.00    +0.000 N 
ATOM      4  H   UNL     1       1.369   8.409  18.412  0.00  0.00    +0.000 HD
ENDROOT
BRANCH   1   7
ATOM      5  N   UNL     1       2.305   4.351  19.572  0.00  0.00    +0.000 N 
ATOM      6  N   UNL     1       1.720   5.301  20.360  0.00  0.00    +0.000 NA
ATOM      7  C   UNL     1       2.177   6.469  19.849  0.00  0.00    +0.000 A 
ATOM      8  C   UNL     1       3.072   6.244  18.764  0.00  0.00    +0.000 A 
ATOM      9  C   UNL     1       3.845   7.076  17.928  0.00  0.00    +0.000 A 
ATOM     10  C   UNL     1       4.601   6.511  16.903  0.00  0.00    +0.000 A 
ATOM     11  C   UNL     1       4.583   5.136  16.696  0.00  0.00    +0.000 A 
ATOM     12  C   UNL     1       3.838   4.286  17.527  0.00  0.00    +0.000 A 
ATOM     13  C   UNL     1       3.098   4.869  18.568  0.00  0.00    +0.000 A 
BRANCH   5  15
ATOM     14  C   UNL     1       1.849   2.642  21.323  0.00  0.00    +0.000 C 
ATOM     15  C   UNL     1       2.121   2.924  19.845  0.00  0.00    +0.000 C 
ATOM     16  C   UNL     1       1.064   2.280  18.951  0.00  0.00    +0.000 C 
ENDBRANCH   5  15
ENDBRANCH   1   7
BRANCH   3  17
ATOM     17  C   UNL     1       0.982  10.093  19.722  0.00  0.00    +0.000 C 
ATOM     18  C   UNL     1       1.184  11.117  18.576  0.00  0.00    +0.000 C 
ATOM     19  C   UNL     1       0.329  12.389  18.754  0.00  0.00    +0.000 C 
ATOM     20  C   UNL     1      -1.098  12.245  18.184  0.00  0.00    +0.000 C 
ATOM     21  C   UNL     1      -1.979  11.949  19.394  0.00  0.00    +0.000 C 
ATOM     22  C   UNL     1      -0.960  11.612  20.484  0.00  0.00    +0.000 C 
ATOM     23  C   UNL     1      -0.455  10.151  20.292  0.00  0.00    +0.000 C 
ATOM     24  N   UNL     1       0.150  12.552  20.208  0.00  0.00    +0.000 NA
ATOM     25  C   UNL     1      -0.125  13.935  20.584  0.00  0.00    +0.000 C 
ENDBRANCH   3  17
TORSDOF 3
ENDMDL
MODEL 8
REMARK VINA RESULT:      -7.6      1.585      3.014
REMARK  Name = 
REMARK  6 active torsions:
REMARK  status: ('A' for Active; 'I' for Inactive)
REMARK    1  A    between atoms: C_1  and  C_2
REMARK    2  A    between atoms: C_2  and  C_3
REMARK    3  A    between atoms: C_2  and  N_4
REMARK    4  A    between atoms: C_6  and  C_7
REMARK    5  A    between atoms: N_9  and  C_10
REMARK    6  A    between atoms: N_17  and  C_18
REMARK                            x       y       z     vdW  Elec       q    Type
REMARK                         _______ _______ _______ _____ _____    ______ ____
ROOT
ATOM      1  C   UNL     1       1.432   9.075  19.232  0.00  0.00    +0.000 C 
ATOM      2  O   UNL     1       2.211   9.285  18.306  0.00  0.00    +0.000 OA
ATOM      3  N   UNL     1       1.471   7.894  19.944  0.00  0.00    +0.000 N 
ATOM      4  H   UNL     1       0.757   7.766  20.653  0.00  0.00    +0.000 HD
ENDROOT
BRANCH   1   7
ATOM      5  N   UNL     1      -0.693  11.597  20.639  0.00  0.00    +0.000 N 
ATOM      6  N   UNL     1       0.422  10.817  20.751  0.00  0.00    +0.000 NA
ATOM      7  C   UNL     1       0.408  10.068  19.623  0.00  0.00    +0.000 A 
ATOM      8  C   UNL     1      -0.735  10.360  18.824  0.00  0.00    +0.000 A 
ATOM      9  C   UNL     1      -1.251   9.859  17.610  0.00  0.00    +0.000 A 
ATOM     10  C   UNL     1      -2.406  10.420  17.070  0.00  0.00    +0.000 A 
ATOM     11  C   UNL     1      -3.038  11.477  17.714  0.00  0.00    +0.000 A 
ATOM     12  C   UNL     1      -2.556  11.980  18.931  0.00  0.00    +0.000 A 
ATOM     13  C   UNL     1      -1.403  11.390  19.474  0.00  0.00    +0.000 A 
BRANCH   5  15
ATOM     14  C   UNL     1      -1.419  11.785  23.012  0.00  0.00    +0.000 C 
ATOM     15  C   UNL     1      -1.085  12.515  21.711  0.00  0.00    +0.000 C 
ATOM     16  C   UNL     1      -0.065  13.628  21.943  0.00  0.00    +0.000 C 
ENDBRANCH   5  15
ENDBRANCH   1   7
BRANCH   3  17
ATOM     17  C   UNL     1       2.403   6.813  19.610  0.00  0.00    +0.000 C 
ATOM     18  C   UNL     1       2.250   5.575  20.531  0.00  0.00    +0.000 C 
ATOM     19  C   UNL     1       2.873   4.299  19.925  0.00  0.00    +0.000 C 
ATOM     20  C   UNL     1       1.910   3.544  18.986  0.00  0.00    +0.000 C 
ATOM     21  C   UNL     1       2.330   3.953  17.577  0.00  0.00    +0.000 C 
ATOM     22  C   UNL     1       3.249   5.149  17.829  0.00  0.00    +0.000 C 
ATOM     23  C   UNL     1       2.391   6.416  18.115  0.00  0.00    +0.000 C 
ATOM     24  N   UNL     1       3.973   4.762  19.061  0.00  0.00    +0.000 NA
ATOM     25  C   UNL     1       4.994   3.737  18.863  0.00  0.00    +0.000 C 
ENDBRANCH   3  17
TORSDOF 3
ENDMDL
MODEL 9
REMARK VINA RESULT:      -7.6      1.478      2.105
REMARK  Name = 
REMARK  6 active torsions:
REMARK  status: ('A' for Active; 'I' for Inactive)
REMARK    1  A    between atoms: C_1  and  C_2
REMARK    2  A    between atoms: C_2  and  C_3
REMARK    3  A    between atoms: C_2  and  N_4
REMARK    4  A    between atoms: C_6  and  C_7
REMARK    5  A    between atoms: N_9  and  C_10
REMARK    6  A    between atoms: N_17  and  C_18
REMARK                            x       y       z     vdW  Elec       q    Type
REMARK                         _______ _______ _______ _____ _____    ______ ____
ROOT
ATOM      1  C   UNL     1       1.487   7.779  20.294  0.00  0.00    +0.000 C 
ATOM      2  O   UNL     1       1.071   7.025  21.170  0.00  0.00    +0.000 OA
ATOM      3  N   UNL     1       2.288   7.313  19.272  0.00  0.00    +0.000 N 
ATOM      4  H   UNL     1       2.644   8.005  18.622  0.00  0.00    +0.000 HD
ENDROOT
BRANCH   1   7
ATOM      5  N   UNL     1       0.959  11.285  19.766  0.00  0.00    +0.000 N 
ATOM      6  N   UNL     1       1.527  10.116  19.347  0.00  0.00    +0.000 NA
ATOM      7  C   UNL     1       1.161   9.222  20.296  0.00  0.00    +0.000 A 
ATOM      8  C   UNL     1       0.393   9.842  21.322  0.00  0.00    +0.000 A 
ATOM      9  C   UNL     1      -0.187   9.403  22.531  0.00  0.00    +0.000 A 
ATOM     10  C   UNL     1      -0.934  10.292  23.299  0.00  0.00    +0.000 A 
ATOM     11  C   UNL     1      -1.121  11.602  22.872  0.00  0.00    +0.000 A 
ATOM     12  C   UNL     1      -0.538  12.068  21.685  0.00  0.00    +0.000 A 
ATOM     13  C   UNL     1       0.230  11.165  20.931  0.00  0.00    +0.000 A 
BRANCH   5  15
ATOM     14  C   UNL     1       2.413  12.476  18.134  0.00  0.00    +0.000 C 
ATOM     15  C   UNL     1       1.183  12.538  19.039  0.00  0.00    +0.000 C 
ATOM     16  C   UNL     1      -0.051  13.007  18.272  0.00  0.00    +0.000 C 
ENDBRANCH   5  15
ENDBRANCH   1   7
BRANCH   3  17
ATOM     17  C   UNL     1       2.725   5.916  19.199  0.00  0.00    +0.000 C 
ATOM     18  C   UNL     1       2.186   5.177  17.948  0.00  0.00    +0.000 C 
ATOM     19  C   UNL     1       2.984   3.896  17.621  0.00  0.00    +0.000 C 
ATOM     20  C   UNL     1       4.230   4.164  16.752  0.00  0.00    +0.000 C 
ATOM     21  C   UNL     1       5.399   4.179  17.733  0.00  0.00    +0.000 C 
ATOM     22  C   UNL     1       4.703   4.263  19.092  0.00  0.00    +0.000 C 
ATOM     23  C   UNL     1       4.253   5.729  19.358  0.00  0.00    +0.000 C 
ATOM     24  N   UNL     1       3.507   3.411  18.910  0.00  0.00    +0.000 NA
ATOM     25  C   UNL     1       3.786   1.977  18.893  0.00  0.00    +0.000 C 
ENDBRANCH   3  17
TORSDOF 3
ENDMDL
