MODEL 1
REMARK VINA RESULT:      -7.0      0.000      0.000
REMARK  Name = 
REMARK  4 active torsions:
REMARK  status: ('A' for Active; 'I' for Inactive)
REMARK    1  A    between atoms: C_2  and  O_3
REMARK    2  A    between atoms: C_2  and  C_4
REMARK    3  A    between atoms: C_7  and  C_8
REMARK    4  A    between atoms: C_14  and  O_15
REMARK                            x       y       z     vdW  Elec       q    Type
REMARK                         _______ _______ _______ _____ _____    ______ ____
ROOT
ATOM      1  C   UNK     1       3.084   2.658  19.715  0.00  0.00    +0.000 C 
ATOM      2  C   UNK     1       2.165   2.441  18.516  0.00  0.00    +0.000 C 
ATOM      3  S   UNK     1       2.058   4.042  17.682  0.00  0.00    +0.000 S 
ATOM      4  C   UNK     1       3.533   4.677  18.483  0.00  0.00    +0.000 C 
ATOM      5  N   UNK     1       3.575   4.078  19.835  0.00  0.00    +0.000 NA
ATOM      6  H   UNK     1       2.845   4.576  20.352  0.00  0.00    +0.000 HD
ENDROOT
BRANCH   4   7
ATOM      7  C   UNK     1       4.866   4.588  17.760  0.00  0.00    +0.000 A 
ATOM      8  C   UNK     1       4.825   4.350  16.367  0.00  0.00    +0.000 A 
ATOM      9  C   UNK     1       5.992   4.295  15.600  0.00  0.00    +0.000 A 
ATOM     10 CL   UNK     1       5.891   4.008  13.908  0.00  0.00    +0.000 Cl
ATOM     11  C   UNK     1       7.234   4.476  16.196  0.00  0.00    +0.000 A 
ATOM     12  C   UNK     1       7.305   4.717  17.564  0.00  0.00    +0.000 A 
ATOM     13  C   UNK     1       6.135   4.784  18.328  0.00  0.00    +0.000 A 
BRANCH  13  14
ATOM     14  O   UNK     1       6.262   5.066  19.654  0.00  0.00    +0.000 OA
ATOM     15  H   UNK     1       7.158   4.834  19.954  0.00  0.00    +0.000 HD
ENDBRANCH  13  14
ENDBRANCH   4   7
BRANCH   1  17
ATOM     16  O   UNK     1       5.188   1.704  20.538  0.00  0.00    +0.000 OA
ATOM     17  C   UNK     1       4.280   1.698  19.729  0.00  0.00    +0.000 C 
BRANCH  17  18
ATOM     18  O   UNK     1       4.263   0.875  18.641  0.00  0.00    +0.000 OA
ATOM     19  H   UNK     1       5.190   0.563  18.511  0.00  0.00    +0.000 HD
ENDBRANCH  17  18
ENDBRANCH   1  17
TORSDOF 4
ENDMDL
MODEL 2
REMARK VINA RESULT:      -6.7      2.797      4.827
REMARK  Name = 
REMARK  4 active torsions:
REMARK  status: ('A' for Active; 'I' for Inactive)
REMARK    1  A    between atoms: C_2  and  O_3
REMARK    2  A    between atoms: C_2  and  C_4
REMARK    3  A    between atoms: C_7  and  C_8
REMARK    4  A    between atoms: C_14  and  O_15
REMARK                            x       y       z     vdW  Elec       q    Type
REMARK                         _______ _______ _______ _____ _____    ______ ____
ROOT
ATOM      1  C   UNK     1       7.469   4.996  17.715  0.00  0.00    +0.000 C 
ATOM      2  C   UNK     1       7.244   5.923  16.523  0.00  0.00    +0.000 C 
ATOM      3  S   UNK     1       5.725   5.344  15.730  0.00  0.00    +0.000 S 
ATOM      4  C   UNK     1       5.192   4.429  17.179  0.00  0.00    +0.000 C 
ATOM      5  N   UNK     1       6.416   3.926  17.839  0.00  0.00    +0.000 NA
ATOM      6  H   UNK     1       6.730   3.162  17.234  0.00  0.00    +0.000 HD
ENDROOT
BRANCH   4   7
ATOM      7  C   UNK     1       4.225   5.080  18.153  0.00  0.00    +0.000 A 
ATOM      8  C   UNK     1       3.686   6.333  17.780  0.00  0.00    +0.000 A 
ATOM      9  C   UNK     1       2.754   6.996  18.583  0.00  0.00    +0.000 A 
ATOM     10 CL   UNK     1       2.122   8.515  18.084  0.00  0.00    +0.000 Cl
ATOM     11  C   UNK     1       2.331   6.433  19.780  0.00  0.00    +0.000 A 
ATOM     12  C   UNK     1       2.840   5.198  20.171  0.00  0.00    +0.000 A 
ATOM     13  C   UNK     1       3.764   4.530  19.359  0.00  0.00    +0.000 A 
BRANCH  13  14
ATOM     14  O   UNK     1       4.196   3.306  19.771  0.00  0.00    +0.000 OA
ATOM     15  H   UNK     1       3.500   2.872  20.295  0.00  0.00    +0.000 HD
ENDBRANCH  13  14
ENDBRANCH   4   7
BRANCH   1  17
ATOM     16  O   UNK     1       7.091   5.422  20.100  0.00  0.00    +0.000 OA
ATOM     17  C   UNK     1       7.591   5.754  19.042  0.00  0.00    +0.000 C 
BRANCH  17  18
ATOM     18  O   UNK     1       8.260   6.931  18.877  0.00  0.00    +0.000 OA
ATOM     19  H   UNK     1       7.575   7.623  18.711  0.00  0.00    +0.000 HD
ENDBRANCH  17  18
ENDBRANCH   1  17
TORSDOF 4
ENDMDL
MODEL 3
REMARK VINA RESULT:      -6.5      2.507      3.098
REMARK  Name = 
REMARK  4 active torsions:
REMARK  status: ('A' for Active; 'I' for Inactive)
REMARK    1  A    between atoms: C_2  and  O_3
REMARK    2  A    between atoms: C_2  and  C_4
REMARK    3  A    between atoms: C_7  and  C_8
REMARK    4  A    between atoms: C_14  and  O_15
REMARK                            x       y       z     vdW  Elec       q    Type
REMARK                         _______ _______ _______ _____ _____    ______ ____
ROOT
ATOM      1  C   UNK     1       2.406   2.108  19.521  0.00  0.00    +0.000 C 
ATOM      2  C   UNK     1       1.029   2.761  19.613  0.00  0.00    +0.000 C 
ATOM      3  S   UNK     1       1.255   4.243  20.625  0.00  0.00    +0.000 S 
ATOM      4  C   UNK     1       3.033   4.266  20.384  0.00  0.00    +0.000 C 
ATOM      5  N   UNK     1       3.468   2.856  20.285  0.00  0.00    +0.000 NA
ATOM      6  H   UNK     1       3.409   2.508  21.246  0.00  0.00    +0.000 HD
ENDROOT
BRANCH   4   7
ATOM      7  C   UNK     1       3.622   5.140  19.289  0.00  0.00    +0.000 A 
ATOM      8  C   UNK     1       2.884   6.288  18.919  0.00  0.00    +0.000 A 
ATOM      9  C   UNK     1       3.357   7.182  17.956  0.00  0.00    +0.000 A 
ATOM     10 CL   UNK     1       2.427   8.568  17.543  0.00  0.00    +0.000 Cl
ATOM     11  C   UNK     1       4.578   6.961  17.331  0.00  0.00    +0.000 A 
ATOM     12  C   UNK     1       5.329   5.841  17.678  0.00  0.00    +0.000 A 
ATOM     13  C   UNK     1       4.859   4.954  18.652  0.00  0.00    +0.000 A 
BRANCH  13  14
ATOM     14  O   UNK     1       5.655   3.900  18.982  0.00  0.00    +0.000 OA
ATOM     15  H   UNK     1       6.503   3.970  18.511  0.00  0.00    +0.000 HD
ENDBRANCH  13  14
ENDBRANCH   4   7
BRANCH   1  17
ATOM     16  O   UNK     1       2.214   2.137  17.077  0.00  0.00    +0.000 OA
ATOM     17  C   UNK     1       2.867   1.895  18.074  0.00  0.00    +0.000 C 
BRANCH  17  18
ATOM     18  O   UNK     1       4.089   1.291  18.031  0.00  0.00    +0.000 OA
ATOM     19  H   UNK     1       4.705   1.935  17.604  0.00  0.00    +0.000 HD
ENDBRANCH  17  18
ENDBRANCH   1  17
TORSDOF 4
ENDMDL
MODEL 4
REMARK VINA RESULT:      -6.2      1.080      1.348
REMARK  Name = 
REMARK  4 active torsions:
REMARK  status: ('A' for Active; 'I' for Inactive)
REMARK    1  A    between atoms: C_2  and  O_3
REMARK    2  A    between atoms: C_2  and  C_4
REMARK    3  A    between atoms: C_7  and  C_8
REMARK    4  A    between atoms: C_14  and  O_15
REMARK                            x       y       z     vdW  Elec       q    Type
REMARK                         _______ _______ _______ _____ _____    ______ ____
ROOT
ATOM      1  C   UNK     1       2.818   4.096  20.032  0.00  0.00    +0.000 C 
ATOM      2  C   UNK     1       1.830   4.236  18.877  0.00  0.00    +0.000 C 
ATOM      3  S   UNK     1       2.260   5.784  18.047  0.00  0.00    +0.000 S 
ATOM      4  C   UNK     1       3.897   5.844  18.779  0.00  0.00    +0.000 C 
ATOM      5  N   UNK     1       3.784   5.248  20.128  0.00  0.00    +0.000 NA
ATOM      6  H   UNK     1       3.301   5.964  20.677  0.00  0.00    +0.000 HD
ENDROOT
BRANCH   4   7
ATOM      7  C   UNK     1       5.081   5.302  17.995  0.00  0.00    +0.000 A 
ATOM      8  C   UNK     1       4.871   5.032  16.623  0.00  0.00    +0.000 A 
ATOM      9  C   UNK     1       5.904   4.573  15.802  0.00  0.00    +0.000 A 
ATOM     10 CL   UNK     1       5.602   4.264  14.138  0.00  0.00    +0.000 Cl
ATOM     11  C   UNK     1       7.177   4.369  16.321  0.00  0.00    +0.000 A 
ATOM     12  C   UNK     1       7.414   4.632  17.667  0.00  0.00    +0.000 A 
ATOM     13  C   UNK     1       6.381   5.103  18.484  0.00  0.00    +0.000 A 
BRANCH  13  14
ATOM     14  O   UNK     1       6.682   5.383  19.782  0.00  0.00    +0.000 OA
ATOM     15  H   UNK     1       7.635   5.556  19.868  0.00  0.00    +0.000 HD
ENDBRANCH  13  14
ENDBRANCH   4   7
BRANCH   1  17
ATOM     16  O   UNK     1       3.869   2.141  18.990  0.00  0.00    +0.000 OA
ATOM     17  C   UNK     1       3.596   2.775  19.991  0.00  0.00    +0.000 C 
BRANCH  17  18
ATOM     18  O   UNK     1       3.870   2.325  21.249  0.00  0.00    +0.000 OA
ATOM     19  H   UNK     1       3.001   2.211  21.702  0.00  0.00    +0.000 HD
ENDBRANCH  17  18
ENDBRANCH   1  17
TORSDOF 4
ENDMDL
MODEL 5
REMARK VINA RESULT:      -6.1      3.550      5.035
REMARK  Name = 
REMARK  4 active torsions:
REMARK  status: ('A' for Active; 'I' for Inactive)
REMARK    1  A    between atoms: C_2  and  O_3
REMARK    2  A    between atoms: C_2  and  C_4
REMARK    3  A    between atoms: C_7  and  C_8
REMARK    4  A    between atoms: C_14  and  O_15
REMARK                            x       y       z     vdW  Elec       q    Type
REMARK                         _______ _______ _______ _____ _____    ______ ____
ROOT
ATOM      1  C   UNK     1       7.436   4.686  17.721  0.00  0.00    +0.000 C 
ATOM      2  C   UNK     1       7.313   4.794  16.203  0.00  0.00    +0.000 C 
ATOM      3  S   UNK     1       5.745   4.000  15.779  0.00  0.00    +0.000 S 
ATOM      4  C   UNK     1       5.115   4.110  17.455  0.00  0.00    +0.000 C 
ATOM      5  N   UNK     1       6.277   3.966  18.359  0.00  0.00    +0.000 NA
ATOM      6  H   UNK     1       6.512   2.971  18.306  0.00  0.00    +0.000 HD
ENDROOT
BRANCH   4   7
ATOM      7  C   UNK     1       4.217   5.276  17.836  0.00  0.00    +0.000 A 
ATOM      8  C   UNK     1       3.383   5.100  18.964  0.00  0.00    +0.000 A 
ATOM      9  C   UNK     1       2.553   6.125  19.425  0.00  0.00    +0.000 A 
ATOM     10 CL   UNK     1       1.560   5.866  20.805  0.00  0.00    +0.000 Cl
ATOM     11  C   UNK     1       2.528   7.354  18.779  0.00  0.00    +0.000 A 
ATOM     12  C   UNK     1       3.342   7.558  17.669  0.00  0.00    +0.000 A 
ATOM     13  C   UNK     1       4.182   6.535  17.216  0.00  0.00    +0.000 A 
BRANCH  13  14
ATOM     14  O   UNK     1       4.988   6.804  16.152  0.00  0.00    +0.000 OA
ATOM     15  H   UNK     1       4.628   7.557  15.651  0.00  0.00    +0.000 HD
ENDBRANCH  13  14
ENDBRANCH   4   7
BRANCH   1  17
ATOM     16  O   UNK     1       7.511   7.132  17.864  0.00  0.00    +0.000 OA
ATOM     17  C   UNK     1       7.632   6.047  18.400  0.00  0.00    +0.000 C 
BRANCH  17  18
ATOM     18  O   UNK     1       8.069   5.899  19.683  0.00  0.00    +0.000 OA
ATOM     19  H   UNK     1       7.282   5.638  20.219  0.00  0.00    +0.000 HD
ENDBRANCH  17  18
ENDBRANCH   1  17
TORSDOF 4
ENDMDL
MODEL 6
REMARK VINA RESULT:      -6.0      2.931      4.834
REMARK  Name = 
REMARK  4 active torsions:
REMARK  status: ('A' for Active; 'I' for Inactive)
REMARK    1  A    between atoms: C_2  and  O_3
REMARK    2  A    between atoms: C_2  and  C_4
REMARK    3  A    between atoms: C_7  and  C_8
REMARK    4  A    between atoms: C_14  and  O_15
REMARK                            x       y       z     vdW  Elec       q    Type
REMARK                         _______ _______ _______ _____ _____    ______ ____
ROOT
ATOM      1  C   UNK     1       6.884   5.549  16.892  0.00  0.00    +0.000 C 
ATOM      2  C   UNK     1       6.438   6.985  17.159  0.00  0.00    +0.000 C 
ATOM      3  S   UNK     1       4.721   7.078  16.599  0.00  0.00    +0.000 S 
ATOM      4  C   UNK     1       4.506   5.297  16.623  0.00  0.00    +0.000 C 
ATOM      5  N   UNK     1       5.811   4.704  16.256  0.00  0.00    +0.000 NA
ATOM      6  H   UNK     1       5.889   4.876  15.250  0.00  0.00    +0.000 HD
ENDROOT
BRANCH   4   7
ATOM      7  C   UNK     1       3.886   4.641  17.845  0.00  0.00    +0.000 A 
ATOM      8  C   UNK     1       3.148   5.476  18.715  0.00  0.00    +0.000 A 
ATOM      9  C   UNK     1       2.500   4.965  19.843  0.00  0.00    +0.000 A 
ATOM     10 CL   UNK     1       1.609   6.019  20.869  0.00  0.00    +0.000 Cl
ATOM     11  C   UNK     1       2.568   3.609  20.139  0.00  0.00    +0.000 A 
ATOM     12  C   UNK     1       3.283   2.762  19.298  0.00  0.00    +0.000 A 
ATOM     13  C   UNK     1       3.920   3.274  18.162  0.00  0.00    +0.000 A 
BRANCH  13  14
ATOM     14  O   UNK     1       4.569   2.392  17.352  0.00  0.00    +0.000 OA
ATOM     15  H   UNK     1       4.908   2.856  16.568  0.00  0.00    +0.000 HD
ENDBRANCH  13  14
ENDBRANCH   4   7
BRANCH   1  17
ATOM     16  O   UNK     1       7.073   5.087  19.292  0.00  0.00    +0.000 OA
ATOM     17  C   UNK     1       7.413   4.848  18.150  0.00  0.00    +0.000 C 
BRANCH  17  18
ATOM     18  O   UNK     1       8.410   3.970  17.842  0.00  0.00    +0.000 OA
ATOM     19  H   UNK     1       9.260   4.420  18.065  0.00  0.00    +0.000 HD
ENDBRANCH  17  18
ENDBRANCH   1  17
TORSDOF 4
ENDMDL
MODEL 7
REMARK VINA RESULT:      -5.9      2.709      3.389
REMARK  Name = 
REMARK  4 active torsions:
REMARK  status: ('A' for Active; 'I' for Inactive)
REMARK    1  A    between atoms: C_2  and  O_3
REMARK    2  A    between atoms: C_2  and  C_4
REMARK    3  A    between atoms: C_7  and  C_8
REMARK    4  A    between atoms: C_14  and  O_15
REMARK                            x       y       z     vdW  Elec       q    Type
REMARK                         _______ _______ _______ _____ _____    ______ ____
ROOT
ATOM      1  C   UNK     1       2.000   2.185  19.791  0.00  0.00    +0.000 C 
ATOM      2  C   UNK     1       1.154   3.119  20.654  0.00  0.00    +0.000 C 
ATOM      3  S   UNK     1       2.326   4.205  21.499  0.00  0.00    +0.000 S 
ATOM      4  C   UNK     1       3.655   3.842  20.348  0.00  0.00    +0.000 C 
ATOM      5  N   UNK     1       3.480   2.436  19.925  0.00  0.00    +0.000 NA
ATOM      6  H   UNK     1       3.776   1.891  20.739  0.00  0.00    +0.000 HD
ENDROOT
BRANCH   4   7
ATOM      7  C   UNK     1       3.901   4.781  19.178  0.00  0.00    +0.000 A 
ATOM      8  C   UNK     1       3.018   5.877  19.041  0.00  0.00    +0.000 A 
ATOM      9  C   UNK     1       3.183   6.824  18.027  0.00  0.00    +0.000 A 
ATOM     10 CL   UNK     1       2.088   8.144  17.903  0.00  0.00    +0.000 Cl
ATOM     11  C   UNK     1       4.229   6.709  17.120  0.00  0.00    +0.000 A 
ATOM     12  C   UNK     1       5.116   5.643  17.234  0.00  0.00    +0.000 A 
ATOM     13  C   UNK     1       4.957   4.703  18.258  0.00  0.00    +0.000 A 
BRANCH  13  14
ATOM     14  O   UNK     1       5.879   3.705  18.346  0.00  0.00    +0.000 OA
ATOM     15  H   UNK     1       5.976   3.429  19.274  0.00  0.00    +0.000 HD
ENDBRANCH  13  14
ENDBRANCH   4   7
BRANCH   1  17
ATOM     16  O   UNK     1       2.331   2.533  17.387  0.00  0.00    +0.000 OA
ATOM     17  C   UNK     1       1.603   2.223  18.310  0.00  0.00    +0.000 C 
BRANCH  17  18
ATOM     18  O   UNK     1       0.275   1.957  18.149  0.00  0.00    +0.000 OA
ATOM     19  H   UNK     1       0.216   1.055  17.752  0.00  0.00    +0.000 HD
ENDBRANCH  17  18
ENDBRANCH   1  17
TORSDOF 4
ENDMDL
MODEL 8
REMARK VINA RESULT:      -5.9      2.652      3.179
REMARK  Name = 
REMARK  4 active torsions:
REMARK  status: ('A' for Active; 'I' for Inactive)
REMARK    1  A    between atoms: C_2  and  O_3
REMARK    2  A    between atoms: C_2  and  C_4
REMARK    3  A    between atoms: C_7  and  C_8
REMARK    4  A    between atoms: C_14  and  O_15
REMARK                            x       y       z     vdW  Elec       q    Type
REMARK                         _______ _______ _______ _____ _____    ______ ____
ROOT
ATOM      1  C   UNK     1       1.347   3.485  19.661  0.00  0.00    +0.000 C 
ATOM      2  C   UNK     1       2.198   2.218  19.697  0.00  0.00    +0.000 C 
ATOM      3  S   UNK     1       2.804   1.985  18.010  0.00  0.00    +0.000 S 
ATOM      4  C   UNK     1       2.469   3.684  17.541  0.00  0.00    +0.000 C 
ATOM      5  N   UNK     1       1.264   4.103  18.289  0.00  0.00    +0.000 NA
ATOM      6  H   UNK     1       0.495   3.618  17.818  0.00  0.00    +0.000 HD
ENDROOT
BRANCH   4   7
ATOM      7  C   UNK     1       3.589   4.708  17.611  0.00  0.00    +0.000 A 
ATOM      8  C   UNK     1       4.911   4.219  17.506  0.00  0.00    +0.000 A 
ATOM      9  C   UNK     1       6.012   5.079  17.514  0.00  0.00    +0.000 A 
ATOM     10 CL   UNK     1       7.601   4.438  17.377  0.00  0.00    +0.000 Cl
ATOM     11  C   UNK     1       5.830   6.452  17.627  0.00  0.00    +0.000 A 
ATOM     12  C   UNK     1       4.539   6.963  17.728  0.00  0.00    +0.000 A 
ATOM     13  C   UNK     1       3.438   6.100  17.707  0.00  0.00    +0.000 A 
BRANCH  13  14
ATOM     14  O   UNK     1       2.198   6.659  17.765  0.00  0.00    +0.000 OA
ATOM     15  H   UNK     1       1.529   5.961  17.870  0.00  0.00    +0.000 HD
ENDBRANCH  13  14
ENDBRANCH   4   7
BRANCH   1  17
ATOM     16  O   UNK     1       1.733   5.745  20.529  0.00  0.00    +0.000 OA
ATOM     17  C   UNK     1       1.808   4.540  20.673  0.00  0.00    +0.000 C 
BRANCH  17  18
ATOM     18  O   UNK     1       2.423   3.960  21.744  0.00  0.00    +0.000 OA
ATOM     19  H   UNK     1       2.593   3.020  21.494  0.00  0.00    +0.000 HD
ENDBRANCH  17  18
ENDBRANCH   1  17
TORSDOF 4
ENDMDL
MODEL 9
REMARK VINA RESULT:      -5.7      3.424      4.996
REMARK  Name = 
REMARK  4 active torsions:
REMARK  status: ('A' for Active; 'I' for Inactive)
REMARK    1  A    between atoms: C_2  and  O_3
REMARK    2  A    between atoms: C_2  and  C_4
REMARK    3  A    between atoms: C_7  and  C_8
REMARK    4  A    between atoms: C_14  and  O_15
REMARK                            x       y       z     vdW  Elec       q    Type
REMARK                         _______ _______ _______ _____ _____    ______ ____
ROOT
ATOM      1  C   UNK     1       6.971   5.170  16.132  0.00  0.00    +0.000 C 
ATOM      2  C   UNK     1       7.730   4.523  17.288  0.00  0.00    +0.000 C 
ATOM      3  S   UNK     1       7.448   5.591  18.720  0.00  0.00    +0.000 S 
ATOM      4  C   UNK     1       6.020   6.386  17.979  0.00  0.00    +0.000 C 
ATOM      5  N   UNK     1       6.274   6.447  16.522  0.00  0.00    +0.000 NA
ATOM      6  H   UNK     1       6.978   7.183  16.422  0.00  0.00    +0.000 HD
ENDROOT
BRANCH   4   7
ATOM      7  C   UNK     1       4.629   5.872  18.310  0.00  0.00    +0.000 A 
ATOM      8  C   UNK     1       4.550   4.704  19.102  0.00  0.00    +0.000 A 
ATOM      9  C   UNK     1       3.321   4.173  19.502  0.00  0.00    +0.000 A 
ATOM     10 CL   UNK     1       3.275   2.753  20.470  0.00  0.00    +0.000 Cl
ATOM     11  C   UNK     1       2.133   4.789  19.125  0.00  0.00    +0.000 A 
ATOM     12  C   UNK     1       2.181   5.944  18.350  0.00  0.00    +0.000 A 
ATOM     13  C   UNK     1       3.413   6.480  17.962  0.00  0.00    +0.000 A 
BRANCH  13  14
ATOM     14  O   UNK     1       3.399   7.635  17.240  0.00  0.00    +0.000 OA
ATOM     15  H   UNK     1       3.793   7.479  16.364  0.00  0.00    +0.000 HD
ENDBRANCH  13  14
ENDBRANCH   4   7
BRANCH   1  17
ATOM     16  O   UNK     1       5.367   4.420  14.436  0.00  0.00    +0.000 OA
ATOM     17  C   UNK     1       5.966   4.216  15.474  0.00  0.00    +0.000 C 
BRANCH  17  18
ATOM     18  O   UNK     1       5.738   3.124  16.259  0.00  0.00    +0.000 OA
ATOM     19  H   UNK     1       5.549   2.372  15.647  0.00  0.00    +0.000 HD
ENDBRANCH  17  18
ENDBRANCH   1  17
TORSDOF 4
ENDMDL
