MODEL 1
REMARK VINA RESULT:      -5.7      0.000      0.000
REMARK  Name = 
REMARK  16 active torsions:
REMARK  status: ('A' for Active; 'I' for Inactive)
REMARK    1  A    between atoms: C_1  and  C_2
REMARK    2  A    between atoms: C_2  and  C_3
REMARK    3  A    between atoms: C_3  and  C_4
REMARK    4  A    between atoms: C_4  and  C_5
REMARK    5  A    between atoms: C_5  and  C_6
REMARK    6  A    between atoms: C_7  and  C_8
REMARK    7  A    between atoms: C_8  and  C_9
REMARK    8  A    between atoms: C_10  and  C_11
REMARK    9  A    between atoms: C_11  and  C_12
REMARK   10  A    between atoms: C_12  and  O_13
REMARK   11  A    between atoms: O_13  and  C_14
REMARK   12  A    between atoms: C_14  and  C_16
REMARK   13  A    between atoms: C_16  and  O_17
REMARK   14  A    between atoms: O_17  and  C_18
REMARK   15  A    between atoms: C_18  and  C_19
REMARK   16  A    between atoms: C_19  and  O_20
REMARK                            x       y       z     vdW  Elec       q    Type
REMARK                         _______ _______ _______ _____ _____    ______ ____
ROOT
ATOM      1  C   UNL     1       7.280   5.856  17.885  0.00  0.00    +0.000 C 
ENDROOT
BRANCH   1   3
ATOM      2  C   UNL     1       5.468   5.159  19.463  0.00  0.00    +0.000 C 
ATOM      3  C   UNL     1       6.759   5.456  19.241  0.00  0.00    +0.000 C 
BRANCH   2   4
ATOM      4  C   UNL     1       4.405   5.177  18.405  0.00  0.00    +0.000 C 
BRANCH   4   6
ATOM      5  C   UNL     1       2.464   6.205  19.624  0.00  0.00    +0.000 C 
ATOM      6  C   UNL     1       3.398   6.258  18.659  0.00  0.00    +0.000 C 
BRANCH   5   7
ATOM      7  C   UNL     1       2.340   5.034  20.550  0.00  0.00    +0.000 C 
BRANCH   7   8
ATOM      8  C   UNL     1       1.018   4.301  20.406  0.00  0.00    +0.000 C 
BRANCH   8   9
ATOM      9  C   UNL     1       1.284   2.816  20.176  0.00  0.00    +0.000 C 
BRANCH   9  11
ATOM     10  C   UNL     1       2.246   2.346  17.910  0.00  0.00    +0.000 C 
ATOM     11  C   UNL     1       0.974   2.426  18.736  0.00  0.00    +0.000 C 
ENDBRANCH   9  11
ENDBRANCH   8   9
ENDBRANCH   7   8
ENDBRANCH   5   7
ENDBRANCH   4   6
ENDBRANCH   2   4
ENDBRANCH   1   3
BRANCH   1  12
ATOM     12  C   UNL     1       7.476   4.684  16.930  0.00  0.00    +0.000 C 
BRANCH  12  13
ATOM     13  O   UNL     1       7.404   5.096  15.557  0.00  0.00    +0.000 OA
BRANCH  13  14
ATOM     14  C   UNL     1       6.147   5.281  15.062  0.00  0.00    +0.000 C 
ATOM     15  O   UNL     1       5.503   6.320  15.137  0.00  0.00    +0.000 OA
BRANCH  14  16
ATOM     16  C   UNL     1       5.664   4.030  14.348  0.00  0.00    +0.000 C 
BRANCH  16  17
ATOM     17  O   UNL     1       6.502   3.680  13.250  0.00  0.00    +0.000 OA
BRANCH  17  18
ATOM     18  C   UNL     1       5.731   3.207  12.140  0.00  0.00    +0.000 C 
BRANCH  18  19
ATOM     19  C   UNL     1       6.565   2.189  11.371  0.00  0.00    +0.000 C 
BRANCH  19  20
ATOM     20  O   UNL     1       6.034   0.878  11.562  0.00  0.00    +0.000 OA
ATOM     21  H   UNL     1       6.674   0.421  12.141  0.00  0.00    +0.000 HD
ENDBRANCH  19  20
ENDBRANCH  18  19
ENDBRANCH  17  18
ENDBRANCH  16  17
ENDBRANCH  14  16
ENDBRANCH  13  14
ENDBRANCH  12  13
ENDBRANCH   1  12
TORSDOF 15
ENDMDL
MODEL 2
REMARK VINA RESULT:      -5.6      1.114      1.889
REMARK  Name = 
REMARK  16 active torsions:
REMARK  status: ('A' for Active; 'I' for Inactive)
REMARK    1  A    between atoms: C_1  and  C_2
REMARK    2  A    between atoms: C_2  and  C_3
REMARK    3  A    between atoms: C_3  and  C_4
REMARK    4  A    between atoms: C_4  and  C_5
REMARK    5  A    between atoms: C_5  and  C_6
REMARK    6  A    between atoms: C_7  and  C_8
REMARK    7  A    between atoms: C_8  and  C_9
REMARK    8  A    between atoms: C_10  and  C_11
REMARK    9  A    between atoms: C_11  and  C_12
REMARK   10  A    between atoms: C_12  and  O_13
REMARK   11  A    between atoms: O_13  and  C_14
REMARK   12  A    between atoms: C_14  and  C_16
REMARK   13  A    between atoms: C_16  and  O_17
REMARK   14  A    between atoms: O_17  and  C_18
REMARK   15  A    between atoms: C_18  and  C_19
REMARK   16  A    between atoms: C_19  and  O_20
REMARK                            x       y       z     vdW  Elec       q    Type
REMARK                         _______ _______ _______ _____ _____    ______ ____
ROOT
ATOM      1  C   UNL     1       7.310   4.526  17.181  0.00  0.00    +0.000 C 
ENDROOT
BRANCH   1   3
ATOM      2  C   UNL     1       6.550   5.535  19.341  0.00  0.00    +0.000 C 
ATOM      3  C   UNL     1       7.495   5.398  18.396  0.00  0.00    +0.000 C 
BRANCH   2   4
ATOM      4  C   UNL     1       5.221   4.840  19.310  0.00  0.00    +0.000 C 
BRANCH   4   6
ATOM      5  C   UNL     1       3.242   5.223  17.810  0.00  0.00    +0.000 C 
ATOM      6  C   UNL     1       4.172   5.692  18.661  0.00  0.00    +0.000 C 
BRANCH   5   7
ATOM      7  C   UNL     1       3.172   3.778  17.423  0.00  0.00    +0.000 C 
BRANCH   7   8
ATOM      8  C   UNL     1       2.584   2.899  18.512  0.00  0.00    +0.000 C 
BRANCH   8   9
ATOM      9  C   UNL     1       1.127   3.288  18.747  0.00  0.00    +0.000 C 
BRANCH   9  11
ATOM     10  C   UNL     1       1.513   2.818  21.178  0.00  0.00    +0.000 C 
ATOM     11  C   UNL     1       0.922   3.790  20.171  0.00  0.00    +0.000 C 
ENDBRANCH   9  11
ENDBRANCH   8   9
ENDBRANCH   7   8
ENDBRANCH   5   7
ENDBRANCH   4   6
ENDBRANCH   2   4
ENDBRANCH   1   3
BRANCH   1  12
ATOM     12  C   UNL     1       6.795   5.276  15.958  0.00  0.00    +0.000 C 
BRANCH  12  13
ATOM     13  O   UNL     1       7.791   5.363  14.927  0.00  0.00    +0.000 OA
BRANCH  13  14
ATOM     14  C   UNL     1       7.367   5.044  13.671  0.00  0.00    +0.000 C 
ATOM     15  O   UNL     1       7.729   5.597  12.640  0.00  0.00    +0.000 OA
BRANCH  14  16
ATOM     16  C   UNL     1       6.414   3.861  13.712  0.00  0.00    +0.000 C 
BRANCH  16  17
ATOM     17  O   UNL     1       5.301   4.036  12.840  0.00  0.00    +0.000 OA
BRANCH  17  18
ATOM     18  C   UNL     1       5.187   2.943  11.921  0.00  0.00    +0.000 C 
BRANCH  18  19
ATOM     19  C   UNL     1       6.545   2.261  11.811  0.00  0.00    +0.000 C 
BRANCH  19  20
ATOM     20  O   UNL     1       6.436   1.082  11.016  0.00  0.00    +0.000 OA
ATOM     21  H   UNL     1       5.792   1.300  10.315  0.00  0.00    +0.000 HD
ENDBRANCH  19  20
ENDBRANCH  18  19
ENDBRANCH  17  18
ENDBRANCH  16  17
ENDBRANCH  14  16
ENDBRANCH  13  14
ENDBRANCH  12  13
ENDBRANCH   1  12
TORSDOF 15
ENDMDL
MODEL 3
REMARK VINA RESULT:      -5.6      4.452      8.140
REMARK  Name = 
REMARK  16 active torsions:
REMARK  status: ('A' for Active; 'I' for Inactive)
REMARK    1  A    between atoms: C_1  and  C_2
REMARK    2  A    between atoms: C_2  and  C_3
REMARK    3  A    between atoms: C_3  and  C_4
REMARK    4  A    between atoms: C_4  and  C_5
REMARK    5  A    between atoms: C_5  and  C_6
REMARK    6  A    between atoms: C_7  and  C_8
REMARK    7  A    between atoms: C_8  and  C_9
REMARK    8  A    between atoms: C_10  and  C_11
REMARK    9  A    between atoms: C_11  and  C_12
REMARK   10  A    between atoms: C_12  and  O_13
REMARK   11  A    between atoms: O_13  and  C_14
REMARK   12  A    between atoms: C_14  and  C_16
REMARK   13  A    between atoms: C_16  and  O_17
REMARK   14  A    between atoms: O_17  and  C_18
REMARK   15  A    between atoms: C_18  and  C_19
REMARK   16  A    between atoms: C_19  and  O_20
REMARK                            x       y       z     vdW  Elec       q    Type
REMARK                         _______ _______ _______ _____ _____    ______ ____
ROOT
ATOM      1  C   UNL     1       5.128   5.723  17.872  0.00  0.00    +0.000 C 
ENDROOT
BRANCH   1   3
ATOM      2  C   UNL     1       7.595   5.682  17.458  0.00  0.00    +0.000 C 
ATOM      3  C   UNL     1       6.377   5.154  17.250  0.00  0.00    +0.000 C 
BRANCH   2   4
ATOM      4  C   UNL     1       7.860   6.874  18.328  0.00  0.00    +0.000 C 
BRANCH   4   6
ATOM      5  C   UNL     1       8.163   9.336  17.930  0.00  0.00    +0.000 C 
ATOM      6  C   UNL     1       7.615   8.156  17.591  0.00  0.00    +0.000 C 
BRANCH   5   7
ATOM      7  C   UNL     1       9.085   9.479  19.102  0.00  0.00    +0.000 C 
BRANCH   7   8
ATOM      8  C   UNL     1       9.630  10.887  19.260  0.00  0.00    +0.000 C 
BRANCH   8   9
ATOM      9  C   UNL     1      10.411  11.272  18.006  0.00  0.00    +0.000 C 
BRANCH   9  11
ATOM     10  C   UNL     1       8.599  13.004  18.039  0.00  0.00    +0.000 C 
ATOM     11  C   UNL     1       9.964  12.633  17.485  0.00  0.00    +0.000 C 
ENDBRANCH   9  11
ENDBRANCH   8   9
ENDBRANCH   7   8
ENDBRANCH   5   7
ENDBRANCH   4   6
ENDBRANCH   2   4
ENDBRANCH   1   3
BRANCH   1  12
ATOM     12  C   UNL     1       3.888   4.861  17.662  0.00  0.00    +0.000 C 
BRANCH  12  13
ATOM     13  O   UNL     1       4.207   3.461  17.650  0.00  0.00    +0.000 OA
BRANCH  13  14
ATOM     14  C   UNL     1       3.406   2.669  18.419  0.00  0.00    +0.000 C 
ATOM     15  O   UNL     1       3.788   1.727  19.102  0.00  0.00    +0.000 OA
BRANCH  14  16
ATOM     16  C   UNL     1       1.965   3.148  18.359  0.00  0.00    +0.000 C 
BRANCH  16  17
ATOM     17  O   UNL     1       1.158   2.552  19.372  0.00  0.00    +0.000 OA
BRANCH  17  18
ATOM     18  C   UNL     1       1.124   3.365  20.550  0.00  0.00    +0.000 C 
BRANCH  18  19
ATOM     19  C   UNL     1       1.526   2.505  21.742  0.00  0.00    +0.000 C 
BRANCH  19  20
ATOM     20  O   UNL     1       2.940   2.556  21.926  0.00  0.00    +0.000 OA
ATOM     21  H   UNL     1       3.098   3.321  22.513  0.00  0.00    +0.000 HD
ENDBRANCH  19  20
ENDBRANCH  18  19
ENDBRANCH  17  18
ENDBRANCH  16  17
ENDBRANCH  14  16
ENDBRANCH  13  14
ENDBRANCH  12  13
ENDBRANCH   1  12
TORSDOF 15
ENDMDL
MODEL 4
REMARK VINA RESULT:      -5.5      3.090      5.116
REMARK  Name = 
REMARK  16 active torsions:
REMARK  status: ('A' for Active; 'I' for Inactive)
REMARK    1  A    between atoms: C_1  and  C_2
REMARK    2  A    between atoms: C_2  and  C_3
REMARK    3  A    between atoms: C_3  and  C_4
REMARK    4  A    between atoms: C_4  and  C_5
REMARK    5  A    between atoms: C_5  and  C_6
REMARK    6  A    between atoms: C_7  and  C_8
REMARK    7  A    between atoms: C_8  and  C_9
REMARK    8  A    between atoms: C_10  and  C_11
REMARK    9  A    between atoms: C_11  and  C_12
REMARK   10  A    between atoms: C_12  and  O_13
REMARK   11  A    between atoms: O_13  and  C_14
REMARK   12  A    between atoms: C_14  and  C_16
REMARK   13  A    between atoms: C_16  and  O_17
REMARK   14  A    between atoms: O_17  and  C_18
REMARK   15  A    between atoms: C_18  and  C_19
REMARK   16  A    between atoms: C_19  and  O_20
REMARK                            x       y       z     vdW  Elec       q    Type
REMARK                         _______ _______ _______ _____ _____    ______ ____
ROOT
ATOM      1  C   UNL     1       3.897   3.708  17.289  0.00  0.00    +0.000 C 
ENDROOT
BRANCH   1   3
ATOM      2  C   UNL     1       1.861   4.946  18.052  0.00  0.00    +0.000 C 
ATOM      3  C   UNL     1       2.466   3.784  17.755  0.00  0.00    +0.000 C 
BRANCH   2   4
ATOM      4  C   UNL     1       2.520   6.290  17.947  0.00  0.00    +0.000 C 
BRANCH   4   6
ATOM      5  C   UNL     1       1.934   8.336  19.282  0.00  0.00    +0.000 C 
ATOM      6  C   UNL     1       2.379   7.069  19.221  0.00  0.00    +0.000 C 
BRANCH   5   7
ATOM      7  C   UNL     1       1.534   9.101  18.058  0.00  0.00    +0.000 C 
BRANCH   7   8
ATOM      8  C   UNL     1       0.826  10.406  18.378  0.00  0.00    +0.000 C 
BRANCH   8   9
ATOM      9  C   UNL     1      -0.446  10.112  19.169  0.00  0.00    +0.000 C 
BRANCH   9  11
ATOM     10  C   UNL     1      -1.907   9.968  17.138  0.00  0.00    +0.000 C 
ATOM     11  C   UNL     1      -1.669  10.680  18.458  0.00  0.00    +0.000 C 
ENDBRANCH   9  11
ENDBRANCH   8   9
ENDBRANCH   7   8
ENDBRANCH   5   7
ENDBRANCH   4   6
ENDBRANCH   2   4
ENDBRANCH   1   3
BRANCH   1  12
ATOM     12  C   UNL     1       4.917   3.787  18.418  0.00  0.00    +0.000 C 
BRANCH  12  13
ATOM     13  O   UNL     1       5.479   5.103  18.539  0.00  0.00    +0.000 OA
BRANCH  13  14
ATOM     14  C   UNL     1       6.802   5.150  18.868  0.00  0.00    +0.000 C 
ATOM     15  O   UNL     1       7.251   5.523  19.945  0.00  0.00    +0.000 OA
BRANCH  14  16
ATOM     16  C   UNL     1       7.656   4.622  17.727  0.00  0.00    +0.000 C 
BRANCH  16  17
ATOM     17  O   UNL     1       7.556   5.434  16.561  0.00  0.00    +0.000 OA
BRANCH  17  18
ATOM     18  C   UNL     1       7.022   4.692  15.458  0.00  0.00    +0.000 C 
BRANCH  18  19
ATOM     19  C   UNL     1       5.793   5.425  14.932  0.00  0.00    +0.000 C 
BRANCH  19  20
ATOM     20  O   UNL     1       5.501   6.548  15.763  0.00  0.00    +0.000 OA
ATOM     21  H   UNL     1       6.186   6.540  16.460  0.00  0.00    +0.000 HD
ENDBRANCH  19  20
ENDBRANCH  18  19
ENDBRANCH  17  18
ENDBRANCH  16  17
ENDBRANCH  14  16
ENDBRANCH  13  14
ENDBRANCH  12  13
ENDBRANCH   1  12
TORSDOF 15
ENDMDL
MODEL 5
REMARK VINA RESULT:      -5.4      2.643      5.046
REMARK  Name = 
REMARK  16 active torsions:
REMARK  status: ('A' for Active; 'I' for Inactive)
REMARK    1  A    between atoms: C_1  and  C_2
REMARK    2  A    between atoms: C_2  and  C_3
REMARK    3  A    between atoms: C_3  and  C_4
REMARK    4  A    between atoms: C_4  and  C_5
REMARK    5  A    between atoms: C_5  and  C_6
REMARK    6  A    between atoms: C_7  and  C_8
REMARK    7  A    between atoms: C_8  and  C_9
REMARK    8  A    between atoms: C_10  and  C_11
REMARK    9  A    between atoms: C_11  and  C_12
REMARK   10  A    between atoms: C_12  and  O_13
REMARK   11  A    between atoms: O_13  and  C_14
REMARK   12  A    between atoms: C_14  and  C_16
REMARK   13  A    between atoms: C_16  and  O_17
REMARK   14  A    between atoms: O_17  and  C_18
REMARK   15  A    between atoms: C_18  and  C_19
REMARK   16  A    between atoms: C_19  and  O_20
REMARK                            x       y       z     vdW  Elec       q    Type
REMARK                         _______ _______ _______ _____ _____    ______ ____
ROOT
ATOM      1  C   UNL     1       2.645   3.217  17.118  0.00  0.00    +0.000 C 
ENDROOT
BRANCH   1   3
ATOM      2  C   UNL     1       1.984   1.762  19.043  0.00  0.00    +0.000 C 
ATOM      3  C   UNL     1       2.734   1.962  17.946  0.00  0.00    +0.000 C 
BRANCH   2   4
ATOM      4  C   UNL     1       0.974   2.742  19.563  0.00  0.00    +0.000 C 
BRANCH   4   6
ATOM      5  C   UNL     1       1.944   4.011  21.503  0.00  0.00    +0.000 C 
ATOM      6  C   UNL     1       1.178   3.015  21.023  0.00  0.00    +0.000 C 
BRANCH   5   7
ATOM      7  C   UNL     1       2.680   4.955  20.603  0.00  0.00    +0.000 C 
BRANCH   7   8
ATOM      8  C   UNL     1       1.852   6.164  20.206  0.00  0.00    +0.000 C 
BRANCH   8   9
ATOM      9  C   UNL     1       2.699   7.101  19.349  0.00  0.00    +0.000 C 
BRANCH   9  11
ATOM     10  C   UNL     1       1.989   9.122  18.049  0.00  0.00    +0.000 C 
ATOM     11  C   UNL     1       1.904   7.610  18.153  0.00  0.00    +0.000 C 
ENDBRANCH   9  11
ENDBRANCH   8   9
ENDBRANCH   7   8
ENDBRANCH   5   7
ENDBRANCH   4   6
ENDBRANCH   2   4
ENDBRANCH   1   3
BRANCH   1  12
ATOM     12  C   UNL     1       3.717   4.249  17.446  0.00  0.00    +0.000 C 
BRANCH  12  13
ATOM     13  O   UNL     1       4.758   4.272  16.457  0.00  0.00    +0.000 OA
BRANCH  13  14
ATOM     14  C   UNL     1       6.014   4.514  16.929  0.00  0.00    +0.000 C 
ATOM     15  O   UNL     1       6.416   4.230  18.050  0.00  0.00    +0.000 OA
BRANCH  14  16
ATOM     16  C   UNL     1       6.878   5.142  15.848  0.00  0.00    +0.000 C 
BRANCH  16  17
ATOM     17  O   UNL     1       7.760   6.131  16.373  0.00  0.00    +0.000 OA
BRANCH  17  18
ATOM     18  C   UNL     1       7.032   7.199  16.990  0.00  0.00    +0.000 C 
BRANCH  18  19
ATOM     19  C   UNL     1       7.910   7.821  18.070  0.00  0.00    +0.000 C 
BRANCH  19  20
ATOM     20  O   UNL     1       8.388   6.808  18.954  0.00  0.00    +0.000 OA
ATOM     21  H   UNL     1       7.830   6.876  19.752  0.00  0.00    +0.000 HD
ENDBRANCH  19  20
ENDBRANCH  18  19
ENDBRANCH  17  18
ENDBRANCH  16  17
ENDBRANCH  14  16
ENDBRANCH  13  14
ENDBRANCH  12  13
ENDBRANCH   1  12
TORSDOF 15
ENDMDL
MODEL 6
REMARK VINA RESULT:      -5.4      3.057      6.854
REMARK  Name = 
REMARK  16 active torsions:
REMARK  status: ('A' for Active; 'I' for Inactive)
REMARK    1  A    between atoms: C_1  and  C_2
REMARK    2  A    between atoms: C_2  and  C_3
REMARK    3  A    between atoms: C_3  and  C_4
REMARK    4  A    between atoms: C_4  and  C_5
REMARK    5  A    between atoms: C_5  and  C_6
REMARK    6  A    between atoms: C_7  and  C_8
REMARK    7  A    between atoms: C_8  and  C_9
REMARK    8  A    between atoms: C_10  and  C_11
REMARK    9  A    between atoms: C_11  and  C_12
REMARK   10  A    between atoms: C_12  and  O_13
REMARK   11  A    between atoms: O_13  and  C_14
REMARK   12  A    between atoms: C_14  and  C_16
REMARK   13  A    between atoms: C_16  and  O_17
REMARK   14  A    between atoms: O_17  and  C_18
REMARK   15  A    between atoms: C_18  and  C_19
REMARK   16  A    between atoms: C_19  and  O_20
REMARK                            x       y       z     vdW  Elec       q    Type
REMARK                         _______ _______ _______ _____ _____    ______ ____
ROOT
ATOM      1  C   UNL     1       5.523   4.912  19.080  0.00  0.00    +0.000 C 
ENDROOT
BRANCH   1   3
ATOM      2  C   UNL     1       4.189   6.521  17.706  0.00  0.00    +0.000 C 
ATOM      3  C   UNL     1       4.596   6.087  18.910  0.00  0.00    +0.000 C 
BRANCH   2   4
ATOM      4  C   UNL     1       4.591   5.894  16.404  0.00  0.00    +0.000 C 
BRANCH   4   6
ATOM      5  C   UNL     1       6.814   5.188  15.469  0.00  0.00    +0.000 C 
ATOM      6  C   UNL     1       6.056   6.075  16.138  0.00  0.00    +0.000 C 
BRANCH   5   7
ATOM      7  C   UNL     1       6.252   3.913  14.919  0.00  0.00    +0.000 C 
BRANCH   7   8
ATOM      8  C   UNL     1       5.590   4.092  13.564  0.00  0.00    +0.000 C 
BRANCH   8   9
ATOM      9  C   UNL     1       6.441   3.419  12.491  0.00  0.00    +0.000 C 
BRANCH   9  11
ATOM     10  C   UNL     1       4.193   3.178  11.410  0.00  0.00    +0.000 C 
ATOM     11  C   UNL     1       5.577   2.571  11.565  0.00  0.00    +0.000 C 
ENDBRANCH   9  11
ENDBRANCH   8   9
ENDBRANCH   7   8
ENDBRANCH   5   7
ENDBRANCH   4   6
ENDBRANCH   2   4
ENDBRANCH   1   3
BRANCH   1  12
ATOM     12  C   UNL     1       4.803   3.586  19.295  0.00  0.00    +0.000 C 
BRANCH  12  13
ATOM     13  O   UNL     1       4.041   3.198  18.141  0.00  0.00    +0.000 OA
BRANCH  13  14
ATOM     14  C   UNL     1       3.175   2.161  18.328  0.00  0.00    +0.000 C 
ATOM     15  O   UNL     1       3.497   0.990  18.486  0.00  0.00    +0.000 OA
BRANCH  14  16
ATOM     16  C   UNL     1       1.741   2.663  18.368  0.00  0.00    +0.000 C 
BRANCH  16  17
ATOM     17  O   UNL     1       1.055   2.235  19.541  0.00  0.00    +0.000 OA
BRANCH  17  18
ATOM     18  C   UNL     1       1.516   2.943  20.698  0.00  0.00    +0.000 C 
BRANCH  18  19
ATOM     19  C   UNL     1       1.306   4.435  20.466  0.00  0.00    +0.000 C 
BRANCH  19  20
ATOM     20  O   UNL     1       2.253   5.185  21.224  0.00  0.00    +0.000 OA
ATOM     21  H   UNL     1       1.831   6.052  21.382  0.00  0.00    +0.000 HD
ENDBRANCH  19  20
ENDBRANCH  18  19
ENDBRANCH  17  18
ENDBRANCH  16  17
ENDBRANCH  14  16
ENDBRANCH  13  14
ENDBRANCH  12  13
ENDBRANCH   1  12
TORSDOF 15
ENDMDL
MODEL 7
REMARK VINA RESULT:      -5.4      2.110      4.622
REMARK  Name = 
REMARK  16 active torsions:
REMARK  status: ('A' for Active; 'I' for Inactive)
REMARK    1  A    between atoms: C_1  and  C_2
REMARK    2  A    between atoms: C_2  and  C_3
REMARK    3  A    between atoms: C_3  and  C_4
REMARK    4  A    between atoms: C_4  and  C_5
REMARK    5  A    between atoms: C_5  and  C_6
REMARK    6  A    between atoms: C_7  and  C_8
REMARK    7  A    between atoms: C_8  and  C_9
REMARK    8  A    between atoms: C_10  and  C_11
REMARK    9  A    between atoms: C_11  and  C_12
REMARK   10  A    between atoms: C_12  and  O_13
REMARK   11  A    between atoms: O_13  and  C_14
REMARK   12  A    between atoms: C_14  and  C_16
REMARK   13  A    between atoms: C_16  and  O_17
REMARK   14  A    between atoms: O_17  and  C_18
REMARK   15  A    between atoms: C_18  and  C_19
REMARK   16  A    between atoms: C_19  and  O_20
REMARK                            x       y       z     vdW  Elec       q    Type
REMARK                         _______ _______ _______ _____ _____    ______ ____
ROOT
ATOM      1  C   UNL     1       4.687   3.797  18.768  0.00  0.00    +0.000 C 
ENDROOT
BRANCH   1   3
ATOM      2  C   UNL     1       3.490   1.835  19.756  0.00  0.00    +0.000 C 
ATOM      3  C   UNL     1       4.196   2.373  18.748  0.00  0.00    +0.000 C 
BRANCH   2   4
ATOM      4  C   UNL     1       3.099   2.576  21.000  0.00  0.00    +0.000 C 
BRANCH   4   6
ATOM      5  C   UNL     1       0.809   3.532  20.605  0.00  0.00    +0.000 C 
ATOM      6  C   UNL     1       1.609   2.611  21.171  0.00  0.00    +0.000 C 
BRANCH   5   7
ATOM      7  C   UNL     1       1.344   4.630  19.739  0.00  0.00    +0.000 C 
BRANCH   7   8
ATOM      8  C   UNL     1       1.827   5.831  20.533  0.00  0.00    +0.000 C 
BRANCH   8   9
ATOM      9  C   UNL     1       2.369   6.888  19.575  0.00  0.00    +0.000 C 
BRANCH   9  11
ATOM     10  C   UNL     1       1.249   8.337  21.285  0.00  0.00    +0.000 C 
ATOM     11  C   UNL     1       1.733   8.245  19.848  0.00  0.00    +0.000 C 
ENDBRANCH   9  11
ENDBRANCH   8   9
ENDBRANCH   7   8
ENDBRANCH   5   7
ENDBRANCH   4   6
ENDBRANCH   2   4
ENDBRANCH   1   3
BRANCH   1  12
ATOM     12  C   UNL     1       4.557   4.512  17.429  0.00  0.00    +0.000 C 
BRANCH  12  13
ATOM     13  O   UNL     1       5.097   3.731  16.352  0.00  0.00    +0.000 OA
BRANCH  13  14
ATOM     14  C   UNL     1       5.884   4.409  15.468  0.00  0.00    +0.000 C 
ATOM     15  O   UNL     1       6.322   3.957  14.418  0.00  0.00    +0.000 OA
BRANCH  14  16
ATOM     16  C   UNL     1       6.104   5.838  15.937  0.00  0.00    +0.000 C 
BRANCH  16  17
ATOM     17  O   UNL     1       7.431   6.049  16.412  0.00  0.00    +0.000 OA
BRANCH  17  18
ATOM     18  C   UNL     1       7.436   6.875  17.582  0.00  0.00    +0.000 C 
BRANCH  18  19
ATOM     19  C   UNL     1       7.770   6.004  18.787  0.00  0.00    +0.000 C 
BRANCH  19  20
ATOM     20  O   UNL     1       8.030   4.666  18.366  0.00  0.00    +0.000 OA
ATOM     21  H   UNL     1       8.925   4.686  17.976  0.00  0.00    +0.000 HD
ENDBRANCH  19  20
ENDBRANCH  18  19
ENDBRANCH  17  18
ENDBRANCH  16  17
ENDBRANCH  14  16
ENDBRANCH  13  14
ENDBRANCH  12  13
ENDBRANCH   1  12
TORSDOF 15
ENDMDL
MODEL 8
REMARK VINA RESULT:      -5.4      4.881      7.005
REMARK  Name = 
REMARK  16 active torsions:
REMARK  status: ('A' for Active; 'I' for Inactive)
REMARK    1  A    between atoms: C_1  and  C_2
REMARK    2  A    between atoms: C_2  and  C_3
REMARK    3  A    between atoms: C_3  and  C_4
REMARK    4  A    between atoms: C_4  and  C_5
REMARK    5  A    between atoms: C_5  and  C_6
REMARK    6  A    between atoms: C_7  and  C_8
REMARK    7  A    between atoms: C_8  and  C_9
REMARK    8  A    between atoms: C_10  and  C_11
REMARK    9  A    between atoms: C_11  and  C_12
REMARK   10  A    between atoms: C_12  and  O_13
REMARK   11  A    between atoms: O_13  and  C_14
REMARK   12  A    between atoms: C_14  and  C_16
REMARK   13  A    between atoms: C_16  and  O_17
REMARK   14  A    between atoms: O_17  and  C_18
REMARK   15  A    between atoms: C_18  and  C_19
REMARK   16  A    between atoms: C_19  and  O_20
REMARK                            x       y       z     vdW  Elec       q    Type
REMARK                         _______ _______ _______ _____ _____    ______ ____
ROOT
ATOM      1  C   UNL     1       7.364   7.425  17.667  0.00  0.00    +0.000 C 
ENDROOT
BRANCH   1   3
ATOM      2  C   UNL     1       6.633   5.041  17.458  0.00  0.00    +0.000 C 
ATOM      3  C   UNL     1       7.558   5.940  17.834  0.00  0.00    +0.000 C 
BRANCH   2   4
ATOM      4  C   UNL     1       5.319   5.398  16.828  0.00  0.00    +0.000 C 
BRANCH   4   6
ATOM      5  C   UNL     1       3.625   3.773  17.723  0.00  0.00    +0.000 C 
ATOM      6  C   UNL     1       4.419   4.203  16.726  0.00  0.00    +0.000 C 
BRANCH   5   7
ATOM      7  C   UNL     1       3.571   4.460  19.053  0.00  0.00    +0.000 C 
BRANCH   7   8
ATOM      8  C   UNL     1       2.332   5.321  19.226  0.00  0.00    +0.000 C 
BRANCH   8   9
ATOM      9  C   UNL     1       1.614   4.924  20.513  0.00  0.00    +0.000 C 
BRANCH   9  11
ATOM     10  C   UNL     1       1.451   2.659  21.574  0.00  0.00    +0.000 C 
ATOM     11  C   UNL     1       1.028   3.522  20.398  0.00  0.00    +0.000 C 
ENDBRANCH   9  11
ENDBRANCH   8   9
ENDBRANCH   7   8
ENDBRANCH   5   7
ENDBRANCH   4   6
ENDBRANCH   2   4
ENDBRANCH   1   3
BRANCH   1  12
ATOM     12  C   UNL     1       8.413   8.267  18.385  0.00  0.00    +0.000 C 
BRANCH  12  13
ATOM     13  O   UNL     1       8.419   9.624  17.917  0.00  0.00    +0.000 OA
BRANCH  13  14
ATOM     14  C   UNL     1       9.070  10.519  18.715  0.00  0.00    +0.000 C 
ATOM     15  O   UNL     1       9.528  10.276  19.824  0.00  0.00    +0.000 OA
BRANCH  14  16
ATOM     16  C   UNL     1       9.203  11.861  18.014  0.00  0.00    +0.000 C 
BRANCH  16  17
ATOM     17  O   UNL     1      10.509  12.062  17.482  0.00  0.00    +0.000 OA
BRANCH  17  18
ATOM     18  C   UNL     1      11.185  13.128  18.158  0.00  0.00    +0.000 C 
BRANCH  18  19
ATOM     19  C   UNL     1      11.440  14.250  17.159  0.00  0.00    +0.000 C 
BRANCH  19  20
ATOM     20  O   UNL     1      11.256  13.770  15.828  0.00  0.00    +0.000 OA
ATOM     21  H   UNL     1      11.962  13.109  15.691  0.00  0.00    +0.000 HD
ENDBRANCH  19  20
ENDBRANCH  18  19
ENDBRANCH  17  18
ENDBRANCH  16  17
ENDBRANCH  14  16
ENDBRANCH  13  14
ENDBRANCH  12  13
ENDBRANCH   1  12
TORSDOF 15
ENDMDL
MODEL 9
REMARK VINA RESULT:      -5.4      1.319      2.324
REMARK  Name = 
REMARK  16 active torsions:
REMARK  status: ('A' for Active; 'I' for Inactive)
REMARK    1  A    between atoms: C_1  and  C_2
REMARK    2  A    between atoms: C_2  and  C_3
REMARK    3  A    between atoms: C_3  and  C_4
REMARK    4  A    between atoms: C_4  and  C_5
REMARK    5  A    between atoms: C_5  and  C_6
REMARK    6  A    between atoms: C_7  and  C_8
REMARK    7  A    between atoms: C_8  and  C_9
REMARK    8  A    between atoms: C_10  and  C_11
REMARK    9  A    between atoms: C_11  and  C_12
REMARK   10  A    between atoms: C_12  and  O_13
REMARK   11  A    between atoms: O_13  and  C_14
REMARK   12  A    between atoms: C_14  and  C_16
REMARK   13  A    between atoms: C_16  and  O_17
REMARK   14  A    between atoms: O_17  and  C_18
REMARK   15  A    between atoms: C_18  and  C_19
REMARK   16  A    between atoms: C_19  and  O_20
REMARK                            x       y       z     vdW  Elec       q    Type
REMARK                         _______ _______ _______ _____ _____    ______ ____
ROOT
ATOM      1  C   UNL     1       5.183   4.231  18.812  0.00  0.00    +0.000 C 
ENDROOT
BRANCH   1   3
ATOM      2  C   UNL     1       3.336   5.744  18.064  0.00  0.00    +0.000 C 
ATOM      3  C   UNL     1       4.218   4.769  17.788  0.00  0.00    +0.000 C 
BRANCH   2   4
ATOM      4  C   UNL     1       3.214   6.415  19.400  0.00  0.00    +0.000 C 
BRANCH   4   6
ATOM      5  C   UNL     1       1.435   5.380  20.842  0.00  0.00    +0.000 C 
ATOM      6  C   UNL     1       1.821   6.303  19.943  0.00  0.00    +0.000 C 
BRANCH   5   7
ATOM      7  C   UNL     1       2.382   4.357  21.390  0.00  0.00    +0.000 C 
BRANCH   7   8
ATOM      8  C   UNL     1       2.314   3.031  20.654  0.00  0.00    +0.000 C 
BRANCH   8   9
ATOM      9  C   UNL     1       0.887   2.792  20.169  0.00  0.00    +0.000 C 
BRANCH   9  11
ATOM     10  C   UNL     1       2.219   1.991  18.204  0.00  0.00    +0.000 C 
ATOM     11  C   UNL     1       0.865   2.491  18.675  0.00  0.00    +0.000 C 
ENDBRANCH   9  11
ENDBRANCH   8   9
ENDBRANCH   7   8
ENDBRANCH   5   7
ENDBRANCH   4   6
ENDBRANCH   2   4
ENDBRANCH   1   3
BRANCH   1  12
ATOM     12  C   UNL     1       6.257   5.229  19.229  0.00  0.00    +0.000 C 
BRANCH  12  13
ATOM     13  O   UNL     1       7.454   5.082  18.449  0.00  0.00    +0.000 OA
BRANCH  13  14
ATOM     14  C   UNL     1       7.447   5.704  17.235  0.00  0.00    +0.000 C 
ATOM     15  O   UNL     1       7.418   6.916  17.061  0.00  0.00    +0.000 OA
BRANCH  14  16
ATOM     16  C   UNL     1       7.536   4.684  16.112  0.00  0.00    +0.000 C 
BRANCH  16  17
ATOM     17  O   UNL     1       7.371   5.281  14.829  0.00  0.00    +0.000 OA
BRANCH  17  18
ATOM     18  C   UNL     1       6.080   4.987  14.284  0.00  0.00    +0.000 C 
BRANCH  18  19
ATOM     19  C   UNL     1       6.184   3.710  13.458  0.00  0.00    +0.000 C 
BRANCH  19  20
ATOM     20  O   UNL     1       6.864   3.975  12.233  0.00  0.00    +0.000 OA
ATOM     21  H   UNL     1       6.163   4.187  11.587  0.00  0.00    +0.000 HD
ENDBRANCH  19  20
ENDBRANCH  18  19
ENDBRANCH  17  18
ENDBRANCH  16  17
ENDBRANCH  14  16
ENDBRANCH  13  14
ENDBRANCH  12  13
ENDBRANCH   1  12
TORSDOF 15
ENDMDL
