MODEL 1
REMARK VINA RESULT:      -6.1      0.000      0.000
REMARK  Name = 
REMARK  2 active torsions:
REMARK  status: ('A' for Active; 'I' for Inactive)
REMARK    1  A    between atoms: C_2  and  C_3
REMARK    2  A    between atoms: C_6  and  C_7
REMARK                            x       y       z     vdW  Elec       q    Type
REMARK                         _______ _______ _______ _____ _____    ______ ____
ROOT
ATOM      1  C   UNL     1       6.777   4.619  16.247  0.00  0.00    +0.000 A 
ATOM      2  C   UNL     1       7.665   4.645  17.300  0.00  0.00    +0.000 A 
ATOM      3  N   UNL     1       6.925   4.273  18.390  0.00  0.00    +0.000 N 
ATOM      4  C   UNL     1       5.643   4.037  17.965  0.00  0.00    +0.000 A 
ATOM      5  N   UNL     1       5.519   4.246  16.670  0.00  0.00    +0.000 NA
ATOM      6  H   UNL     1       7.237   4.166  19.347  0.00  0.00    +0.000 HD
ENDROOT
BRANCH   4   7
ATOM      7  C   UNL     1       4.612   3.606  18.841  0.00  0.00    +0.000 A 
ATOM      8  N   UNL     1       3.402   4.121  18.910  0.00  0.00    +0.000 NA
ATOM      9  C   UNL     1       2.777   3.415  19.907  0.00  0.00    +0.000 A 
ATOM     10 BR   UNL     1       1.009   3.758  20.449  0.00  0.00    +0.000 Br
ATOM     11  C   UNL     1       3.606   2.459  20.441  0.00  0.00    +0.000 A 
ATOM     12  N   UNL     1       4.778   2.591  19.747  0.00  0.00    +0.000 N 
ATOM     13  H   UNL     1       5.633   2.063  19.866  0.00  0.00    +0.000 HD
ENDBRANCH   4   7
BRANCH   1  15
ATOM     14  N   UNL     1       7.261   5.138  13.751  0.00  0.00    +0.000 NA
ATOM     15  C   UNL     1       7.054   4.914  14.873  0.00  0.00    +0.000 C 
ENDBRANCH   1  15
TORSDOF 2
ENDMDL
MODEL 2
REMARK VINA RESULT:      -6.1      0.998      1.143
REMARK  Name = 
REMARK  2 active torsions:
REMARK  status: ('A' for Active; 'I' for Inactive)
REMARK    1  A    between atoms: C_2  and  C_3
REMARK    2  A    between atoms: C_6  and  C_7
REMARK                            x       y       z     vdW  Elec       q    Type
REMARK                         _______ _______ _______ _____ _____    ______ ____
ROOT
ATOM      1  C   UNL     1       6.582   4.604  16.350  0.00  0.00    +0.000 A 
ATOM      2  C   UNL     1       7.247   4.612  17.556  0.00  0.00    +0.000 A 
ATOM      3  N   UNL     1       6.336   4.140  18.461  0.00  0.00    +0.000 N 
ATOM      4  C   UNL     1       5.176   3.866  17.783  0.00  0.00    +0.000 A 
ATOM      5  N   UNL     1       5.291   4.144  16.500  0.00  0.00    +0.000 NA
ATOM      6  H   UNL     1       6.464   3.992  19.455  0.00  0.00    +0.000 HD
ENDROOT
BRANCH   4   7
ATOM      7  C   UNL     1       4.024   3.331  18.419  0.00  0.00    +0.000 A 
ATOM      8  N   UNL     1       3.650   3.579  19.658  0.00  0.00    +0.000 NA
ATOM      9  C   UNL     1       2.516   2.829  19.839  0.00  0.00    +0.000 A 
ATOM     10 BR   UNL     1       1.566   2.786  21.461  0.00  0.00    +0.000 Br
ATOM     11  C   UNL     1       2.192   2.127  18.703  0.00  0.00    +0.000 A 
ATOM     12  N   UNL     1       3.165   2.461  17.801  0.00  0.00    +0.000 N 
ATOM     13  H   UNL     1       3.269   2.132  16.850  0.00  0.00    +0.000 HD
ENDBRANCH   4   7
BRANCH   1  15
ATOM     14  N   UNL     1       7.497   5.316  14.029  0.00  0.00    +0.000 NA
ATOM     15  C   UNL     1       7.100   4.994  15.073  0.00  0.00    +0.000 C 
ENDBRANCH   1  15
TORSDOF 2
ENDMDL
MODEL 3
REMARK VINA RESULT:      -5.9      1.692      2.020
REMARK  Name = 
REMARK  2 active torsions:
REMARK  status: ('A' for Active; 'I' for Inactive)
REMARK    1  A    between atoms: C_2  and  C_3
REMARK    2  A    between atoms: C_6  and  C_7
REMARK                            x       y       z     vdW  Elec       q    Type
REMARK                         _______ _______ _______ _____ _____    ______ ____
ROOT
ATOM      1  C   UNL     1       7.012   6.120  17.763  0.00  0.00    +0.000 A 
ATOM      2  C   UNL     1       7.489   4.964  17.186  0.00  0.00    +0.000 A 
ATOM      3  N   UNL     1       6.704   3.968  17.697  0.00  0.00    +0.000 N 
ATOM      4  C   UNL     1       5.796   4.545  18.547  0.00  0.00    +0.000 A 
ATOM      5  N   UNL     1       5.961   5.851  18.614  0.00  0.00    +0.000 NA
ATOM      6  H   UNL     1       6.746   2.976  17.497  0.00  0.00    +0.000 HD
ENDROOT
BRANCH   4   7
ATOM      7  C   UNL     1       4.804   3.796  19.234  0.00  0.00    +0.000 A 
ATOM      8  N   UNL     1       3.566   4.188  19.456  0.00  0.00    +0.000 NA
ATOM      9  C   UNL     1       2.998   3.165  20.173  0.00  0.00    +0.000 A 
ATOM     10 BR   UNL     1       1.220   3.210  20.785  0.00  0.00    +0.000 Br
ATOM     11  C   UNL     1       3.890   2.142  20.381  0.00  0.00    +0.000 A 
ATOM     12  N   UNL     1       5.042   2.558  19.772  0.00  0.00    +0.000 N 
ATOM     13  H   UNL     1       5.928   2.072  19.722  0.00  0.00    +0.000 HD
ENDBRANCH   4   7
BRANCH   1  15
ATOM     14  N   UNL     1       7.870   8.541  17.396  0.00  0.00    +0.000 NA
ATOM     15  C   UNL     1       7.484   7.455  17.547  0.00  0.00    +0.000 C 
ENDBRANCH   1  15
TORSDOF 2
ENDMDL
MODEL 4
REMARK VINA RESULT:      -5.9      2.780      5.646
REMARK  Name = 
REMARK  2 active torsions:
REMARK  status: ('A' for Active; 'I' for Inactive)
REMARK    1  A    between atoms: C_2  and  C_3
REMARK    2  A    between atoms: C_6  and  C_7
REMARK                            x       y       z     vdW  Elec       q    Type
REMARK                         _______ _______ _______ _____ _____    ______ ____
ROOT
ATOM      1  C   UNL     1       3.088   2.794  19.938  0.00  0.00    +0.000 A 
ATOM      2  C   UNL     1       3.218   1.883  18.913  0.00  0.00    +0.000 A 
ATOM      3  N   UNL     1       4.161   2.423  18.082  0.00  0.00    +0.000 N 
ATOM      4  C   UNL     1       4.562   3.617  18.624  0.00  0.00    +0.000 A 
ATOM      5  N   UNL     1       3.923   3.874  19.748  0.00  0.00    +0.000 NA
ATOM      6  H   UNL     1       4.531   2.035  17.224  0.00  0.00    +0.000 HD
ENDROOT
BRANCH   4   7
ATOM      7  C   UNL     1       5.558   4.434  18.028  0.00  0.00    +0.000 A 
ATOM      8  N   UNL     1       5.877   5.654  18.411  0.00  0.00    +0.000 NA
ATOM      9  C   UNL     1       6.852   6.054  17.532  0.00  0.00    +0.000 A 
ATOM     10 BR   UNL     1       7.661   7.751  17.605  0.00  0.00    +0.000 Br
ATOM     11  C   UNL     1       7.136   5.070  16.616  0.00  0.00    +0.000 A 
ATOM     12  N   UNL     1       6.301   4.039  16.947  0.00  0.00    +0.000 N 
ATOM     13  H   UNL     1       6.214   3.140  16.489  0.00  0.00    +0.000 HD
ENDBRANCH   4   7
BRANCH   1  15
ATOM     14  N   UNL     1       1.558   2.609  22.025  0.00  0.00    +0.000 NA
ATOM     15  C   UNL     1       2.232   2.695  21.082  0.00  0.00    +0.000 C 
ENDBRANCH   1  15
TORSDOF 2
ENDMDL
MODEL 5
REMARK VINA RESULT:      -5.8      1.031      1.429
REMARK  Name = 
REMARK  2 active torsions:
REMARK  status: ('A' for Active; 'I' for Inactive)
REMARK    1  A    between atoms: C_2  and  C_3
REMARK    2  A    between atoms: C_6  and  C_7
REMARK                            x       y       z     vdW  Elec       q    Type
REMARK                         _______ _______ _______ _____ _____    ______ ____
ROOT
ATOM      1  C   UNL     1       6.619   4.808  16.574  0.00  0.00    +0.000 A 
ATOM      2  C   UNL     1       7.484   4.512  17.605  0.00  0.00    +0.000 A 
ATOM      3  N   UNL     1       6.685   4.400  18.710  0.00  0.00    +0.000 N 
ATOM      4  C   UNL     1       5.391   4.625  18.316  0.00  0.00    +0.000 A 
ATOM      5  N   UNL     1       5.319   4.883  17.026  0.00  0.00    +0.000 NA
ATOM      6  H   UNL     1       6.961   4.178  19.659  0.00  0.00    +0.000 HD
ENDROOT
BRANCH   4   7
ATOM      7  C   UNL     1       4.294   4.560  19.214  0.00  0.00    +0.000 A 
ATOM      8  N   UNL     1       3.756   3.453  19.685  0.00  0.00    +0.000 NA
ATOM      9  C   UNL     1       2.718   3.877  20.477  0.00  0.00    +0.000 A 
ATOM     10 BR   UNL     1       1.579   2.692  21.391  0.00  0.00    +0.000 Br
ATOM     11  C   UNL     1       2.629   5.248  20.497  0.00  0.00    +0.000 A 
ATOM     12  N   UNL     1       3.646   5.671  19.686  0.00  0.00    +0.000 N 
ATOM     13  H   UNL     1       3.893   6.624  19.445  0.00  0.00    +0.000 HD
ENDBRANCH   4   7
BRANCH   1  15
ATOM     14  N   UNL     1       7.217   5.151  14.073  0.00  0.00    +0.000 NA
ATOM     15  C   UNL     1       6.952   5.011  15.196  0.00  0.00    +0.000 C 
ENDBRANCH   1  15
TORSDOF 2
ENDMDL
MODEL 6
REMARK VINA RESULT:      -5.7      1.148      1.464
REMARK  Name = 
REMARK  2 active torsions:
REMARK  status: ('A' for Active; 'I' for Inactive)
REMARK    1  A    between atoms: C_2  and  C_3
REMARK    2  A    between atoms: C_6  and  C_7
REMARK                            x       y       z     vdW  Elec       q    Type
REMARK                         _______ _______ _______ _____ _____    ______ ____
ROOT
ATOM      1  C   UNL     1       5.895   5.254  15.964  0.00  0.00    +0.000 A 
ATOM      2  C   UNL     1       5.010   6.260  16.283  0.00  0.00    +0.000 A 
ATOM      3  N   UNL     1       4.312   5.784  17.359  0.00  0.00    +0.000 N 
ATOM      4  C   UNL     1       4.792   4.533  17.649  0.00  0.00    +0.000 A 
ATOM      5  N   UNL     1       5.750   4.179  16.816  0.00  0.00    +0.000 NA
ATOM      6  H   UNL     1       3.579   6.248  17.880  0.00  0.00    +0.000 HD
ENDROOT
BRANCH   4   7
ATOM      7  C   UNL     1       4.304   3.757  18.734  0.00  0.00    +0.000 A 
ATOM      8  N   UNL     1       3.120   3.888  19.296  0.00  0.00    +0.000 NA
ATOM      9  C   UNL     1       3.107   2.961  20.307  0.00  0.00    +0.000 A 
ATOM     10 BR   UNL     1       1.643   2.731  21.466  0.00  0.00    +0.000 Br
ATOM     11  C   UNL     1       4.285   2.255  20.356  0.00  0.00    +0.000 A 
ATOM     12  N   UNL     1       5.040   2.774  19.341  0.00  0.00    +0.000 N 
ATOM     13  H   UNL     1       5.980   2.512  19.071  0.00  0.00    +0.000 HD
ENDBRANCH   4   7
BRANCH   1  15
ATOM     14  N   UNL     1       7.680   5.258  14.081  0.00  0.00    +0.000 NA
ATOM     15  C   UNL     1       6.871   5.258  14.916  0.00  0.00    +0.000 C 
ENDBRANCH   1  15
TORSDOF 2
ENDMDL
MODEL 7
REMARK VINA RESULT:      -5.7      3.048      5.722
REMARK  Name = 
REMARK  2 active torsions:
REMARK  status: ('A' for Active; 'I' for Inactive)
REMARK    1  A    between atoms: C_2  and  C_3
REMARK    2  A    between atoms: C_6  and  C_7
REMARK                            x       y       z     vdW  Elec       q    Type
REMARK                         _______ _______ _______ _____ _____    ______ ____
ROOT
ATOM      1  C   UNL     1       3.329   2.976  20.450  0.00  0.00    +0.000 A 
ATOM      2  C   UNL     1       4.341   2.120  20.074  0.00  0.00    +0.000 A 
ATOM      3  N   UNL     1       5.113   2.850  19.212  0.00  0.00    +0.000 N 
ATOM      4  C   UNL     1       4.554   4.097  19.102  0.00  0.00    +0.000 A 
ATOM      5  N   UNL     1       3.464   4.202  19.836  0.00  0.00    +0.000 NA
ATOM      6  H   UNL     1       5.958   2.560  18.735  0.00  0.00    +0.000 HD
ENDROOT
BRANCH   4   7
ATOM      7  C   UNL     1       5.120   5.123  18.300  0.00  0.00    +0.000 A 
ATOM      8  N   UNL     1       6.197   5.820  18.600  0.00  0.00    +0.000 NA
ATOM      9  C   UNL     1       6.341   6.706  17.561  0.00  0.00    +0.000 A 
ATOM     10 BR   UNL     1       7.726   7.977  17.486  0.00  0.00    +0.000 Br
ATOM     11  C   UNL     1       5.354   6.541  16.620  0.00  0.00    +0.000 A 
ATOM     12  N   UNL     1       4.581   5.522  17.106  0.00  0.00    +0.000 N 
ATOM     13  H   UNL     1       3.748   5.123  16.691  0.00  0.00    +0.000 HD
ENDBRANCH   4   7
BRANCH   1  15
ATOM     14  N   UNL     1       1.394   2.499  22.112  0.00  0.00    +0.000 NA
ATOM     15  C   UNL     1       2.257   2.702  21.360  0.00  0.00    +0.000 C 
ENDBRANCH   1  15
TORSDOF 2
ENDMDL
MODEL 8
REMARK VINA RESULT:      -5.7      2.846      5.783
REMARK  Name = 
REMARK  2 active torsions:
REMARK  status: ('A' for Active; 'I' for Inactive)
REMARK    1  A    between atoms: C_2  and  C_3
REMARK    2  A    between atoms: C_6  and  C_7
REMARK                            x       y       z     vdW  Elec       q    Type
REMARK                         _______ _______ _______ _____ _____    ______ ____
ROOT
ATOM      1  C   UNL     1       2.795   2.718  19.971  0.00  0.00    +0.000 A 
ATOM      2  C   UNL     1       2.432   1.924  18.905  0.00  0.00    +0.000 A 
ATOM      3  N   UNL     1       3.314   2.249  17.911  0.00  0.00    +0.000 N 
ATOM      4  C   UNL     1       4.164   3.207  18.402  0.00  0.00    +0.000 A 
ATOM      5  N   UNL     1       3.870   3.518  19.649  0.00  0.00    +0.000 NA
ATOM      6  H   UNL     1       3.369   1.864  16.976  0.00  0.00    +0.000 HD
ENDROOT
BRANCH   4   7
ATOM      7  C   UNL     1       5.227   3.754  17.636  0.00  0.00    +0.000 A 
ATOM      8  N   UNL     1       5.220   3.924  16.330  0.00  0.00    +0.000 NA
ATOM      9  C   UNL     1       6.455   4.444  16.037  0.00  0.00    +0.000 A 
ATOM     10 BR   UNL     1       7.000   4.862  14.286  0.00  0.00    +0.000 Br
ATOM     11  C   UNL     1       7.216   4.601  17.170  0.00  0.00    +0.000 A 
ATOM     12  N   UNL     1       6.416   4.157  18.187  0.00  0.00    +0.000 N 
ATOM     13  H   UNL     1       6.636   4.108  19.174  0.00  0.00    +0.000 HD
ENDBRANCH   4   7
BRANCH   1  15
ATOM     14  N   UNL     1       1.690   2.798  22.317  0.00  0.00    +0.000 NA
ATOM     15  C   UNL     1       2.193   2.752  21.270  0.00  0.00    +0.000 C 
ENDBRANCH   1  15
TORSDOF 2
ENDMDL
MODEL 9
REMARK VINA RESULT:      -5.7      2.782      5.305
REMARK  Name = 
REMARK  2 active torsions:
REMARK  status: ('A' for Active; 'I' for Inactive)
REMARK    1  A    between atoms: C_2  and  C_3
REMARK    2  A    between atoms: C_6  and  C_7
REMARK                            x       y       z     vdW  Elec       q    Type
REMARK                         _______ _______ _______ _____ _____    ______ ____
ROOT
ATOM      1  C   UNL     1       2.844   2.735  18.829  0.00  0.00    +0.000 A 
ATOM      2  C   UNL     1       3.737   2.217  19.742  0.00  0.00    +0.000 A 
ATOM      3  N   UNL     1       4.918   2.853  19.475  0.00  0.00    +0.000 N 
ATOM      4  C   UNL     1       4.702   3.718  18.433  0.00  0.00    +0.000 A 
ATOM      5  N   UNL     1       3.454   3.664  18.014  0.00  0.00    +0.000 NA
ATOM      6  H   UNL     1       5.807   2.742  19.948  0.00  0.00    +0.000 HD
ENDROOT
BRANCH   4   7
ATOM      7  C   UNL     1       5.719   4.562  17.913  0.00  0.00    +0.000 A 
ATOM      8  N   UNL     1       5.963   5.795  18.306  0.00  0.00    +0.000 NA
ATOM      9  C   UNL     1       6.998   6.218  17.510  0.00  0.00    +0.000 A 
ATOM     10 BR   UNL     1       7.741   7.942  17.629  0.00  0.00    +0.000 Br
ATOM     11  C   UNL     1       7.392   5.236  16.635  0.00  0.00    +0.000 A 
ATOM     12  N   UNL     1       6.566   4.180  16.906  0.00  0.00    +0.000 N 
ATOM     13  H   UNL     1       6.547   3.274  16.455  0.00  0.00    +0.000 HD
ENDBRANCH   4   7
BRANCH   1  15
ATOM     14  N   UNL     1       0.333   2.127  18.601  0.00  0.00    +0.000 NA
ATOM     15  C   UNL     1       1.456   2.410  18.696  0.00  0.00    +0.000 C 
ENDBRANCH   1  15
TORSDOF 2
ENDMDL
