MODEL 1
REMARK VINA RESULT:      -7.6      0.000      0.000
REMARK  Name = 
REMARK  3 active torsions:
REMARK  status: ('A' for Active; 'I' for Inactive)
REMARK    1  A    between atoms: C_1  and  C_2
REMARK    2  A    between atoms: C_5  and  C_6
REMARK    3  A    between atoms: C_10  and  C_11
REMARK                            x       y       z     vdW  Elec       q    Type
REMARK                         _______ _______ _______ _____ _____    ______ ____
ROOT
ATOM      1  C   UNL     1       4.415   5.203  17.899  0.00  0.00    +0.000 A 
ATOM      2  S   UNL     1       4.753   3.537  17.655  0.00  0.00    +0.000 S 
ATOM      3  C   UNL     1       3.309   3.058  18.401  0.00  0.00    +0.000 A 
ATOM      4  C   UNL     1       2.549   4.129  18.836  0.00  0.00    +0.000 A 
ATOM      5  C   UNL     1       3.185   5.387  18.522  0.00  0.00    +0.000 A 
ATOM      6  C   UNL     1       1.192   3.868  19.434  0.00  0.00    +0.000 C 
ATOM      7  C   UNL     1       1.016   2.385  19.820  0.00  0.00    +0.000 C 
ATOM      8  N   UNL     1       1.481   1.460  18.773  0.00  0.00    +0.000 NA
ATOM      9  C   UNL     1       2.933   1.612  18.556  0.00  0.00    +0.000 C 
ATOM     10  H   UNL     1       1.010   1.694  17.899  0.00  0.00    +0.000 HD
ENDROOT
BRANCH   5  11
ATOM     11  C   UNL     1       2.605   6.763  18.780  0.00  0.00    +0.000 A 
ATOM     12  N   UNL     1       2.142   7.091  19.967  0.00  0.00    +0.000 NA
ATOM     13  C   UNL     1       1.704   8.402  19.970  0.00  0.00    +0.000 A 
ATOM     14  C   UNL     1       1.185   9.100  21.077  0.00  0.00    +0.000 A 
ATOM     15  C   UNL     1       0.782  10.429  20.929  0.00  0.00    +0.000 A 
ATOM     16  C   UNL     1       0.876  11.064  19.696  0.00  0.00    +0.000 A 
ATOM     17  C   UNL     1       1.386  10.393  18.581  0.00  0.00    +0.000 A 
ATOM     18  C   UNL     1       1.803   9.064  18.748  0.00  0.00    +0.000 A 
ATOM     19  S   UNL     1       2.496   7.999  17.598  0.00  0.00    +0.000 S 
ENDBRANCH   5  11
BRANCH   1  24
ATOM     20  C   UNL     1       8.215   8.209  18.216  0.00  0.00    +0.000 C 
ATOM     21  C   UNL     1       7.076   7.512  17.595  0.00  0.00    +0.000 A 
ATOM     22  N   UNL     1       6.578   7.618  16.384  0.00  0.00    +0.000 NA
ATOM     23  N   UNL     1       5.503   6.752  16.337  0.00  0.00    +0.000 NA
ATOM     24  C   UNL     1       5.401   6.187  17.529  0.00  0.00    +0.000 A 
ATOM     25  O   UNL     1       6.411   6.607  18.368  0.00  0.00    +0.000 OA
ENDBRANCH   1  24
TORSDOF 2
ENDMDL
MODEL 2
REMARK VINA RESULT:      -7.4      0.818      1.290
REMARK  Name = 
REMARK  3 active torsions:
REMARK  status: ('A' for Active; 'I' for Inactive)
REMARK    1  A    between atoms: C_1  and  C_2
REMARK    2  A    between atoms: C_5  and  C_6
REMARK    3  A    between atoms: C_10  and  C_11
REMARK                            x       y       z     vdW  Elec       q    Type
REMARK                         _______ _______ _______ _____ _____    ______ ____
ROOT
ATOM      1  C   UNL     1       4.297   5.183  17.890  0.00  0.00    +0.000 A 
ATOM      2  S   UNL     1       4.584   3.522  17.558  0.00  0.00    +0.000 S 
ATOM      3  C   UNL     1       3.161   3.042  18.343  0.00  0.00    +0.000 A 
ATOM      4  C   UNL     1       2.447   4.109  18.858  0.00  0.00    +0.000 A 
ATOM      5  C   UNL     1       3.099   5.365  18.574  0.00  0.00    +0.000 A 
ATOM      6  C   UNL     1       1.110   3.851  19.501  0.00  0.00    +0.000 C 
ATOM      7  C   UNL     1       0.914   2.356  19.828  0.00  0.00    +0.000 C 
ATOM      8  N   UNL     1       1.312   1.470  18.721  0.00  0.00    +0.000 NA
ATOM      9  C   UNL     1       2.757   1.600  18.449  0.00  0.00    +0.000 C 
ATOM     10  H   UNL     1       0.811   1.755  17.879  0.00  0.00    +0.000 HD
ENDROOT
BRANCH   5  11
ATOM     11  C   UNL     1       2.564   6.741  18.918  0.00  0.00    +0.000 A 
ATOM     12  N   UNL     1       2.556   7.708  18.025  0.00  0.00    +0.000 NA
ATOM     13  C   UNL     1       1.990   8.851  18.555  0.00  0.00    +0.000 A 
ATOM     14  C   UNL     1       1.780  10.065  17.873  0.00  0.00    +0.000 A 
ATOM     15  C   UNL     1       1.192  11.141  18.542  0.00  0.00    +0.000 A 
ATOM     16  C   UNL     1       0.823  11.027  19.879  0.00  0.00    +0.000 A 
ATOM     17  C   UNL     1       1.021   9.833  20.577  0.00  0.00    +0.000 A 
ATOM     18  C   UNL     1       1.597   8.756  19.889  0.00  0.00    +0.000 A 
ATOM     19  S   UNL     1       1.932   7.173  20.452  0.00  0.00    +0.000 S 
ENDBRANCH   5  11
BRANCH   1  24
ATOM     20  C   UNL     1       8.194   8.065  18.168  0.00  0.00    +0.000 C 
ATOM     21  C   UNL     1       7.004   7.436  17.572  0.00  0.00    +0.000 A 
ATOM     22  N   UNL     1       6.446   7.624  16.398  0.00  0.00    +0.000 NA
ATOM     23  N   UNL     1       5.345   6.790  16.361  0.00  0.00    +0.000 NA
ATOM     24  C   UNL     1       5.290   6.161  17.523  0.00  0.00    +0.000 A 
ATOM     25  O   UNL     1       6.355   6.505  18.328  0.00  0.00    +0.000 OA
ENDBRANCH   1  24
TORSDOF 2
ENDMDL
MODEL 3
REMARK VINA RESULT:      -7.2      1.855      4.710
REMARK  Name = 
REMARK  3 active torsions:
REMARK  status: ('A' for Active; 'I' for Inactive)
REMARK    1  A    between atoms: C_1  and  C_2
REMARK    2  A    between atoms: C_5  and  C_6
REMARK    3  A    between atoms: C_10  and  C_11
REMARK                            x       y       z     vdW  Elec       q    Type
REMARK                         _______ _______ _______ _____ _____    ______ ____
ROOT
ATOM      1  C   UNL     1       3.396   4.133  18.252  0.00  0.00    +0.000 A 
ATOM      2  S   UNL     1       4.476   3.044  17.478  0.00  0.00    +0.000 S 
ATOM      3  C   UNL     1       5.222   4.291  16.604  0.00  0.00    +0.000 A 
ATOM      4  C   UNL     1       4.684   5.535  16.879  0.00  0.00    +0.000 A 
ATOM      5  C   UNL     1       3.630   5.447  17.862  0.00  0.00    +0.000 A 
ATOM      6  C   UNL     1       5.305   6.755  16.252  0.00  0.00    +0.000 C 
ATOM      7  C   UNL     1       6.231   6.381  15.076  0.00  0.00    +0.000 C 
ATOM      8  N   UNL     1       7.125   5.253  15.386  0.00  0.00    +0.000 NA
ATOM      9  C   UNL     1       6.343   4.027  15.640  0.00  0.00    +0.000 C 
ATOM     10  H   UNL     1       7.644   5.472  16.237  0.00  0.00    +0.000 HD
ENDROOT
BRANCH   5  11
ATOM     11  C   UNL     1       2.872   6.616  18.457  0.00  0.00    +0.000 A 
ATOM     12  N   UNL     1       2.512   6.616  19.723  0.00  0.00    +0.000 NA
ATOM     13  C   UNL     1       1.871   7.797  20.043  0.00  0.00    +0.000 A 
ATOM     14  C   UNL     1       1.387   8.159  21.316  0.00  0.00    +0.000 A 
ATOM     15  C   UNL     1       0.758   9.394  21.491  0.00  0.00    +0.000 A 
ATOM     16  C   UNL     1       0.595  10.263  20.417  0.00  0.00    +0.000 A 
ATOM     17  C   UNL     1       1.065   9.927  19.145  0.00  0.00    +0.000 A 
ATOM     18  C   UNL     1       1.710   8.691  18.987  0.00  0.00    +0.000 A 
ATOM     19  S   UNL     1       2.418   8.017  17.580  0.00  0.00    +0.000 S 
ENDBRANCH   5  11
BRANCH   1  24
ATOM     20  C   UNL     1       1.208   2.418  22.233  0.00  0.00    +0.000 C 
ATOM     21  C   UNL     1       1.339   2.875  20.840  0.00  0.00    +0.000 A 
ATOM     22  N   UNL     1       0.444   2.933  19.881  0.00  0.00    +0.000 NA
ATOM     23  N   UNL     1       1.105   3.422  18.771  0.00  0.00    +0.000 NA
ATOM     24  C   UNL     1       2.367   3.613  19.118  0.00  0.00    +0.000 A 
ATOM     25  O   UNL     1       2.569   3.318  20.449  0.00  0.00    +0.000 OA
ENDBRANCH   1  24
TORSDOF 2
ENDMDL
MODEL 4
REMARK VINA RESULT:      -7.1      2.020      4.862
REMARK  Name = 
REMARK  3 active torsions:
REMARK  status: ('A' for Active; 'I' for Inactive)
REMARK    1  A    between atoms: C_1  and  C_2
REMARK    2  A    between atoms: C_5  and  C_6
REMARK    3  A    between atoms: C_10  and  C_11
REMARK                            x       y       z     vdW  Elec       q    Type
REMARK                         _______ _______ _______ _____ _____    ______ ____
ROOT
ATOM      1  C   UNL     1       3.444   4.040  18.139  0.00  0.00    +0.000 A 
ATOM      2  S   UNL     1       4.499   2.935  17.353  0.00  0.00    +0.000 S 
ATOM      3  C   UNL     1       5.254   4.169  16.470  0.00  0.00    +0.000 A 
ATOM      4  C   UNL     1       4.739   5.422  16.751  0.00  0.00    +0.000 A 
ATOM      5  C   UNL     1       3.695   5.351  17.745  0.00  0.00    +0.000 A 
ATOM      6  C   UNL     1       5.372   6.631  16.116  0.00  0.00    +0.000 C 
ATOM      7  C   UNL     1       6.279   6.243  14.930  0.00  0.00    +0.000 C 
ATOM      8  N   UNL     1       7.159   5.101  15.230  0.00  0.00    +0.000 NA
ATOM      9  C   UNL     1       6.359   3.888  15.493  0.00  0.00    +0.000 C 
ATOM     10  H   UNL     1       7.690   5.312  16.075  0.00  0.00    +0.000 HD
ENDROOT
BRANCH   5  11
ATOM     11  C   UNL     1       2.963   6.532  18.349  0.00  0.00    +0.000 A 
ATOM     12  N   UNL     1       2.700   7.604  17.633  0.00  0.00    +0.000 NA
ATOM     13  C   UNL     1       1.994   8.525  18.382  0.00  0.00    +0.000 A 
ATOM     14  C   UNL     1       1.511   9.768  17.928  0.00  0.00    +0.000 A 
ATOM     15  C   UNL     1       0.808  10.598  18.804  0.00  0.00    +0.000 A 
ATOM     16  C   UNL     1       0.593  10.215  20.124  0.00  0.00    +0.000 A 
ATOM     17  C   UNL     1       1.063   8.987  20.599  0.00  0.00    +0.000 A 
ATOM     18  C   UNL     1       1.752   8.156  19.704  0.00  0.00    +0.000 A 
ATOM     19  S   UNL     1       2.412   6.598  19.971  0.00  0.00    +0.000 S 
ENDBRANCH   5  11
BRANCH   1  24
ATOM     20  C   UNL     1       1.273   2.370  22.148  0.00  0.00    +0.000 C 
ATOM     21  C   UNL     1       1.397   2.820  20.751  0.00  0.00    +0.000 A 
ATOM     22  N   UNL     1       0.494   2.884  19.800  0.00  0.00    +0.000 NA
ATOM     23  N   UNL     1       1.150   3.361  18.682  0.00  0.00    +0.000 NA
ATOM     24  C   UNL     1       2.417   3.537  19.016  0.00  0.00    +0.000 A 
ATOM     25  O   UNL     1       2.628   3.245  20.347  0.00  0.00    +0.000 OA
ENDBRANCH   1  24
TORSDOF 2
ENDMDL
MODEL 5
REMARK VINA RESULT:      -6.8      7.359     11.884
REMARK  Name = 
REMARK  3 active torsions:
REMARK  status: ('A' for Active; 'I' for Inactive)
REMARK    1  A    between atoms: C_1  and  C_2
REMARK    2  A    between atoms: C_5  and  C_6
REMARK    3  A    between atoms: C_10  and  C_11
REMARK                            x       y       z     vdW  Elec       q    Type
REMARK                         _______ _______ _______ _____ _____    ______ ____
ROOT
ATOM      1  C   UNL     1      -4.609  13.743  22.473  0.00  0.00    +0.000 A 
ATOM      2  S   UNL     1      -5.448  15.078  23.155  0.00  0.00    +0.000 S 
ATOM      3  C   UNL     1      -4.108  15.540  24.084  0.00  0.00    +0.000 A 
ATOM      4  C   UNL     1      -3.014  14.715  23.896  0.00  0.00    +0.000 A 
ATOM      5  C   UNL     1      -3.298  13.675  22.935  0.00  0.00    +0.000 A 
ATOM      6  C   UNL     1      -1.716  15.054  24.580  0.00  0.00    +0.000 C 
ATOM      7  C   UNL     1      -1.920  16.085  25.709  0.00  0.00    +0.000 C 
ATOM      8  N   UNL     1      -2.786  17.208  25.311  0.00  0.00    +0.000 NA
ATOM      9  C   UNL     1      -4.148  16.727  25.004  0.00  0.00    +0.000 C 
ATOM     10  H   UNL     1      -2.406  17.628  24.463  0.00  0.00    +0.000 HD
ENDROOT
BRANCH   5  11
ATOM     11  C   UNL     1      -2.314  12.641  22.429  0.00  0.00    +0.000 A 
ATOM     12  N   UNL     1      -1.896  11.665  23.208  0.00  0.00    +0.000 NA
ATOM     13  C   UNL     1      -1.038  10.831  22.517  0.00  0.00    +0.000 A 
ATOM     14  C   UNL     1      -0.433   9.663  23.023  0.00  0.00    +0.000 A 
ATOM     15  C   UNL     1       0.415   8.914  22.204  0.00  0.00    +0.000 A 
ATOM     16  C   UNL     1       0.677   9.318  20.898  0.00  0.00    +0.000 A 
ATOM     17  C   UNL     1       0.090  10.473  20.374  0.00  0.00    +0.000 A 
ATOM     18  C   UNL     1      -0.773  11.206  21.202  0.00  0.00    +0.000 A 
ATOM     19  S   UNL     1      -1.661  12.627  20.844  0.00  0.00    +0.000 S 
ENDBRANCH   5  11
BRANCH   1  24
ATOM     20  C   UNL     1      -5.996  11.437  18.432  0.00  0.00    +0.000 C 
ATOM     21  C   UNL     1      -5.950  11.765  19.866  0.00  0.00    +0.000 A 
ATOM     22  N   UNL     1      -6.631  11.263  20.871  0.00  0.00    +0.000 NA
ATOM     23  N   UNL     1      -6.209  11.944  21.996  0.00  0.00    +0.000 NA
ATOM     24  C   UNL     1      -5.312  12.834  21.603  0.00  0.00    +0.000 A 
ATOM     25  O   UNL     1      -5.073  12.738  20.249  0.00  0.00    +0.000 OA
ENDBRANCH   1  24
TORSDOF 2
ENDMDL
MODEL 6
REMARK VINA RESULT:      -6.7      2.444      6.577
REMARK  Name = 
REMARK  3 active torsions:
REMARK  status: ('A' for Active; 'I' for Inactive)
REMARK    1  A    between atoms: C_1  and  C_2
REMARK    2  A    between atoms: C_5  and  C_6
REMARK    3  A    between atoms: C_10  and  C_11
REMARK                            x       y       z     vdW  Elec       q    Type
REMARK                         _______ _______ _______ _____ _____    ______ ____
ROOT
ATOM      1  C   UNL     1       2.281   5.862  20.117  0.00  0.00    +0.000 A 
ATOM      2  S   UNL     1       1.208   6.828  21.048  0.00  0.00    +0.000 S 
ATOM      3  C   UNL     1       1.359   8.145  19.993  0.00  0.00    +0.000 A 
ATOM      4  C   UNL     1       2.203   7.886  18.929  0.00  0.00    +0.000 A 
ATOM      5  C   UNL     1       2.726   6.541  18.987  0.00  0.00    +0.000 A 
ATOM      6  C   UNL     1       2.365   8.927  17.853  0.00  0.00    +0.000 C 
ATOM      7  C   UNL     1       1.840  10.304  18.310  0.00  0.00    +0.000 C 
ATOM      8  N   UNL     1       0.532  10.226  18.982  0.00  0.00    +0.000 NA
ATOM      9  C   UNL     1       0.637   9.441  20.228  0.00  0.00    +0.000 C 
ATOM     10  H   UNL     1      -0.122   9.743  18.366  0.00  0.00    +0.000 HD
ENDROOT
BRANCH   5  11
ATOM     11  C   UNL     1       3.617   5.890  17.950  0.00  0.00    +0.000 A 
ATOM     12  N   UNL     1       4.797   6.394  17.657  0.00  0.00    +0.000 NA
ATOM     13  C   UNL     1       5.438   5.610  16.718  0.00  0.00    +0.000 A 
ATOM     14  C   UNL     1       6.732   5.825  16.203  0.00  0.00    +0.000 A 
ATOM     15  C   UNL     1       7.253   4.943  15.253  0.00  0.00    +0.000 A 
ATOM     16  C   UNL     1       6.502   3.863  14.803  0.00  0.00    +0.000 A 
ATOM     17  C   UNL     1       5.216   3.628  15.298  0.00  0.00    +0.000 A 
ATOM     18  C   UNL     1       4.712   4.512  16.263  0.00  0.00    +0.000 A 
ATOM     19  S   UNL     1       3.204   4.473  17.077  0.00  0.00    +0.000 S 
ENDBRANCH   5  11
BRANCH   1  24
ATOM     20  C   UNL     1       4.693   1.671  20.551  0.00  0.00    +0.000 C 
ATOM     21  C   UNL     1       3.687   2.703  20.855  0.00  0.00    +0.000 A 
ATOM     22  N   UNL     1       2.730   2.712  21.753  0.00  0.00    +0.000 NA
ATOM     23  N   UNL     1       2.070   3.916  21.596  0.00  0.00    +0.000 NA
ATOM     24  C   UNL     1       2.655   4.555  20.597  0.00  0.00    +0.000 A 
ATOM     25  O   UNL     1       3.728   3.843  20.107  0.00  0.00    +0.000 OA
ENDBRANCH   1  24
TORSDOF 2
ENDMDL
MODEL 7
REMARK VINA RESULT:      -6.6      5.847      9.594
REMARK  Name = 
REMARK  3 active torsions:
REMARK  status: ('A' for Active; 'I' for Inactive)
REMARK    1  A    between atoms: C_1  and  C_2
REMARK    2  A    between atoms: C_5  and  C_6
REMARK    3  A    between atoms: C_10  and  C_11
REMARK                            x       y       z     vdW  Elec       q    Type
REMARK                         _______ _______ _______ _____ _____    ______ ____
ROOT
ATOM      1  C   UNL     1      -0.052  14.485  22.504  0.00  0.00    +0.000 A 
ATOM      2  S   UNL     1      -0.902  15.551  23.549  0.00  0.00    +0.000 S 
ATOM      3  C   UNL     1      -2.136  14.420  23.818  0.00  0.00    +0.000 A 
ATOM      4  C   UNL     1      -1.931  13.232  23.142  0.00  0.00    +0.000 A 
ATOM      5  C   UNL     1      -0.700  13.259  22.390  0.00  0.00    +0.000 A 
ATOM      6  C   UNL     1      -2.893  12.093  23.356  0.00  0.00    +0.000 C 
ATOM      7  C   UNL     1      -4.199  12.569  24.025  0.00  0.00    +0.000 C 
ATOM      8  N   UNL     1      -3.964  13.477  25.161  0.00  0.00    +0.000 NA
ATOM      9  C   UNL     1      -3.312  14.720  24.704  0.00  0.00    +0.000 C 
ATOM     10  H   UNL     1      -3.333  13.019  25.819  0.00  0.00    +0.000 HD
ENDROOT
BRANCH   5  11
ATOM     11  C   UNL     1      -0.119  12.109  21.593  0.00  0.00    +0.000 A 
ATOM     12  N   UNL     1       0.298  11.013  22.191  0.00  0.00    +0.000 NA
ATOM     13  C   UNL     1       0.746  10.095  21.261  0.00  0.00    +0.000 A 
ATOM     14  C   UNL     1       1.225   8.800  21.539  0.00  0.00    +0.000 A 
ATOM     15  C   UNL     1       1.646   7.979  20.490  0.00  0.00    +0.000 A 
ATOM     16  C   UNL     1       1.608   8.434  19.176  0.00  0.00    +0.000 A 
ATOM     17  C   UNL     1       1.138   9.715  18.875  0.00  0.00    +0.000 A 
ATOM     18  C   UNL     1       0.703  10.522  19.936  0.00  0.00    +0.000 A 
ATOM     19  S   UNL     1       0.050  12.106  19.887  0.00  0.00    +0.000 S 
ENDBRANCH   5  11
BRANCH   1  24
ATOM     20  C   UNL     1       2.778  16.556  19.145  0.00  0.00    +0.000 C 
ATOM     21  C   UNL     1       2.432  15.868  20.400  0.00  0.00    +0.000 A 
ATOM     22  N   UNL     1       3.206  15.428  21.365  0.00  0.00    +0.000 NA
ATOM     23  N   UNL     1       2.366  14.848  22.295  0.00  0.00    +0.000 NA
ATOM     24  C   UNL     1       1.133  14.953  21.828  0.00  0.00    +0.000 A 
ATOM     25  O   UNL     1       1.108  15.637  20.632  0.00  0.00    +0.000 OA
ENDBRANCH   1  24
TORSDOF 2
ENDMDL
MODEL 8
REMARK VINA RESULT:      -6.4      4.630      9.160
REMARK  Name = 
REMARK  3 active torsions:
REMARK  status: ('A' for Active; 'I' for Inactive)
REMARK    1  A    between atoms: C_1  and  C_2
REMARK    2  A    between atoms: C_5  and  C_6
REMARK    3  A    between atoms: C_10  and  C_11
REMARK                            x       y       z     vdW  Elec       q    Type
REMARK                         _______ _______ _______ _____ _____    ______ ____
ROOT
ATOM      1  C   UNL     1      -0.506  12.992  18.959  0.00  0.00    +0.000 A 
ATOM      2  S   UNL     1      -0.573  14.708  18.983  0.00  0.00    +0.000 S 
ATOM      3  C   UNL     1       0.895  14.828  19.822  0.00  0.00    +0.000 A 
ATOM      4  C   UNL     1       1.461  13.594  20.090  0.00  0.00    +0.000 A 
ATOM      5  C   UNL     1       0.654  12.519  19.565  0.00  0.00    +0.000 A 
ATOM      6  C   UNL     1       2.816  13.539  20.746  0.00  0.00    +0.000 C 
ATOM      7  C   UNL     1       3.202  14.896  21.371  0.00  0.00    +0.000 C 
ATOM      8  N   UNL     1       2.930  16.036  20.479  0.00  0.00    +0.000 NA
ATOM      9  C   UNL     1       1.482  16.153  20.215  0.00  0.00    +0.000 C 
ATOM     10  H   UNL     1       3.396  15.870  19.587  0.00  0.00    +0.000 HD
ENDROOT
BRANCH   5  11
ATOM     11  C   UNL     1       1.003  11.045  19.606  0.00  0.00    +0.000 A 
ATOM     12  N   UNL     1       1.488  10.434  18.547  0.00  0.00    +0.000 NA
ATOM     13  C   UNL     1       1.764   9.111  18.836  0.00  0.00    +0.000 A 
ATOM     14  C   UNL     1       2.330   8.171  17.953  0.00  0.00    +0.000 A 
ATOM     15  C   UNL     1       2.554   6.862  18.389  0.00  0.00    +0.000 A 
ATOM     16  C   UNL     1       2.211   6.478  19.681  0.00  0.00    +0.000 A 
ATOM     17  C   UNL     1       1.648   7.392  20.575  0.00  0.00    +0.000 A 
ATOM     18  C   UNL     1       1.444   8.706  20.130  0.00  0.00    +0.000 A 
ATOM     19  S   UNL     1       0.813  10.049  20.988  0.00  0.00    +0.000 S 
ENDBRANCH   5  11
BRANCH   1  24
ATOM     20  C   UNL     1      -3.233  10.494  15.813  0.00  0.00    +0.000 C 
ATOM     21  C   UNL     1      -2.854  11.122  17.090  0.00  0.00    +0.000 A 
ATOM     22  N   UNL     1      -3.510  11.192  18.225  0.00  0.00    +0.000 NA
ATOM     23  N   UNL     1      -2.703  11.908  19.088  0.00  0.00    +0.000 NA
ATOM     24  C   UNL     1      -1.615  12.247  18.417  0.00  0.00    +0.000 A 
ATOM     25  O   UNL     1      -1.636  11.734  17.138  0.00  0.00    +0.000 OA
ENDBRANCH   1  24
TORSDOF 2
ENDMDL
MODEL 9
REMARK VINA RESULT:      -6.3      7.777     10.303
REMARK  Name = 
REMARK  3 active torsions:
REMARK  status: ('A' for Active; 'I' for Inactive)
REMARK    1  A    between atoms: C_1  and  C_2
REMARK    2  A    between atoms: C_5  and  C_6
REMARK    3  A    between atoms: C_10  and  C_11
REMARK                            x       y       z     vdW  Elec       q    Type
REMARK                         _______ _______ _______ _____ _____    ______ ____
ROOT
ATOM      1  C   UNL     1      -4.256  12.328  19.857  0.00  0.00    +0.000 A 
ATOM      2  S   UNL     1      -5.758  12.363  20.691  0.00  0.00    +0.000 S 
ATOM      3  C   UNL     1      -5.030  12.882  22.131  0.00  0.00    +0.000 A 
ATOM      4  C   UNL     1      -3.662  13.045  22.012  0.00  0.00    +0.000 A 
ATOM      5  C   UNL     1      -3.210  12.743  20.674  0.00  0.00    +0.000 A 
ATOM      6  C   UNL     1      -2.887  13.595  23.180  0.00  0.00    +0.000 C 
ATOM      7  C   UNL     1      -3.707  13.536  24.486  0.00  0.00    +0.000 C 
ATOM      8  N   UNL     1      -5.092  14.005  24.314  0.00  0.00    +0.000 NA
ATOM      9  C   UNL     1      -5.825  13.126  23.382  0.00  0.00    +0.000 C 
ATOM     10  H   UNL     1      -5.072  14.941  23.908  0.00  0.00    +0.000 HD
ENDROOT
BRANCH   5  11
ATOM     11  C   UNL     1      -1.791  12.885  20.164  0.00  0.00    +0.000 A 
ATOM     12  N   UNL     1      -1.336  14.046  19.740  0.00  0.00    +0.000 NA
ATOM     13  C   UNL     1      -0.011  13.937  19.362  0.00  0.00    +0.000 A 
ATOM     14  C   UNL     1       0.807  14.985  18.898  0.00  0.00    +0.000 A 
ATOM     15  C   UNL     1       2.135  14.724  18.553  0.00  0.00    +0.000 A 
ATOM     16  C   UNL     1       2.652  13.436  18.651  0.00  0.00    +0.000 A 
ATOM     17  C   UNL     1       1.860  12.379  19.108  0.00  0.00    +0.000 A 
ATOM     18  C   UNL     1       0.534  12.659  19.467  0.00  0.00    +0.000 A 
ATOM     19  S   UNL     1      -0.661  11.598  20.087  0.00  0.00    +0.000 S 
ENDBRANCH   5  11
BRANCH   1  24
ATOM     20  C   UNL     1      -2.843   9.799  15.960  0.00  0.00    +0.000 C 
ATOM     21  C   UNL     1      -3.653  10.736  16.757  0.00  0.00    +0.000 A 
ATOM     22  N   UNL     1      -4.678  11.478  16.407  0.00  0.00    +0.000 NA
ATOM     23  N   UNL     1      -5.046  12.179  17.538  0.00  0.00    +0.000 NA
ATOM     24  C   UNL     1      -4.209  11.835  18.503  0.00  0.00    +0.000 A 
ATOM     25  O   UNL     1      -3.316  10.878  18.072  0.00  0.00    +0.000 OA
ENDBRANCH   1  24
TORSDOF 2
ENDMDL
