MODEL 1
REMARK VINA RESULT:      -6.3      0.000      0.000
REMARK  Name = 
REMARK  6 active torsions:
REMARK  status: ('A' for Active; 'I' for Inactive)
REMARK    1  A    between atoms: C_1  and  C_2
REMARK    2  A    between atoms: C_7  and  C_8
REMARK    3  A    between atoms: C_8  and  CA_9
REMARK    4  A    between atoms: CA_9  and  N_10
REMARK    5  A    between atoms: CA_9  and  C_11
REMARK    6  A    between atoms: C_11  and  OXT_13
REMARK                            x       y       z     vdW  Elec       q    Type
REMARK                         _______ _______ _______ _____ _____    ______ ____
ROOT
ATOM      1  C   UNL     1       0.759   2.585  18.948  0.00  0.00    +0.000 C 
ATOM      2  C   UNL     1       2.250   2.515  18.699  0.00  0.00    +0.000 C 
ATOM      3  N   UNL     1       2.800   1.370  18.440  0.00  0.00    +0.000 NA
ATOM      4  N   UNL     1       2.998   3.671  18.723  0.00  0.00    +0.000 N 
ATOM      5  C   UNL     1       2.483   5.005  18.960  0.00  0.00    +0.000 C 
ATOM      6  C   UNL     1       3.258   5.854  17.973  0.00  0.00    +0.000 C 
ATOM      7  C   UNL     1       4.652   5.227  17.974  0.00  0.00    +0.000 C 
ATOM      8  C   UNL     1       4.349   3.725  18.160  0.00  0.00    +0.000 C 
ATOM      9  H   UNL     1       2.101   0.624  18.453  0.00  0.00    +0.000 HD
ENDROOT
BRANCH   7  10
ATOM     10  C   UNL     1       5.484   5.495  16.706  0.00  0.00    +0.000 C 
BRANCH  10  11
ATOM     11  CA  UNL     1       6.464   4.377  16.302  0.00  0.00    +0.000 C 
BRANCH  11  12
ATOM     12  N   UNL     1       7.694   4.419  17.120  0.00  0.00    +0.000 NA
ATOM     13  H1  UNL     1       8.158   3.510  17.037  0.00  0.00    +0.000 HD
ATOM     14  H2  UNL     1       7.424   4.451  18.106  0.00  0.00    +0.000 HD
ENDBRANCH  11  12
BRANCH  11  15
ATOM     15  C   UNL     1       6.866   4.501  14.816  0.00  0.00    +0.000 C 
ATOM     16  O   UNL     1       7.589   5.386  14.372  0.00  0.00    +0.000 OA
BRANCH  15  17
ATOM     17  OXT UNL     1       6.384   3.515  14.023  0.00  0.00    +0.000 OA
ATOM     18  HXT UNL     1       6.770   2.638  14.189  0.00  0.00    +0.000 HD
ENDBRANCH  15  17
ENDBRANCH  11  15
ENDBRANCH  10  11
ENDBRANCH   7  10
TORSDOF 5
ENDMDL
MODEL 2
REMARK VINA RESULT:      -6.2      2.019      2.245
REMARK  Name = 
REMARK  6 active torsions:
REMARK  status: ('A' for Active; 'I' for Inactive)
REMARK    1  A    between atoms: C_1  and  C_2
REMARK    2  A    between atoms: C_7  and  C_8
REMARK    3  A    between atoms: C_8  and  CA_9
REMARK    4  A    between atoms: CA_9  and  N_10
REMARK    5  A    between atoms: CA_9  and  C_11
REMARK    6  A    between atoms: C_11  and  OXT_13
REMARK                            x       y       z     vdW  Elec       q    Type
REMARK                         _______ _______ _______ _____ _____    ______ ____
ROOT
ATOM      1  C   UNL     1       0.717   2.490  18.916  0.00  0.00    +0.000 C 
ATOM      2  C   UNL     1       2.223   2.475  18.764  0.00  0.00    +0.000 C 
ATOM      3  N   UNL     1       2.819   1.373  18.433  0.00  0.00    +0.000 NA
ATOM      4  N   UNL     1       2.936   3.638  18.952  0.00  0.00    +0.000 N 
ATOM      5  C   UNL     1       2.370   4.932  19.282  0.00  0.00    +0.000 C 
ATOM      6  C   UNL     1       3.186   5.890  18.438  0.00  0.00    +0.000 C 
ATOM      7  C   UNL     1       4.593   5.294  18.474  0.00  0.00    +0.000 C 
ATOM      8  C   UNL     1       4.319   3.775  18.491  0.00  0.00    +0.000 C 
ATOM      9  H   UNL     1       2.141   0.615  18.326  0.00  0.00    +0.000 HD
ENDROOT
BRANCH   7  10
ATOM     10  C   UNL     1       5.500   5.703  17.298  0.00  0.00    +0.000 C 
BRANCH  10  11
ATOM     11  CA  UNL     1       6.878   6.274  17.685  0.00  0.00    +0.000 C 
BRANCH  11  12
ATOM     12  N   UNL     1       7.620   6.738  16.494  0.00  0.00    +0.000 NA
ATOM     13  H1  UNL     1       7.491   7.751  16.418  0.00  0.00    +0.000 HD
ATOM     14  H2  UNL     1       7.147   6.382  15.661  0.00  0.00    +0.000 HD
ENDBRANCH  11  12
BRANCH  11  15
ATOM     15  C   UNL     1       7.736   5.212  18.407  0.00  0.00    +0.000 C 
ATOM     16  O   UNL     1       8.057   5.276  19.588  0.00  0.00    +0.000 OA
BRANCH  15  17
ATOM     17  OXT UNL     1       8.082   4.155  17.635  0.00  0.00    +0.000 OA
ATOM     18  HXT UNL     1       8.153   3.310  18.113  0.00  0.00    +0.000 HD
ENDBRANCH  15  17
ENDBRANCH  11  15
ENDBRANCH  10  11
ENDBRANCH   7  10
TORSDOF 5
ENDMDL
MODEL 3
REMARK VINA RESULT:      -6.2      1.143      1.213
REMARK  Name = 
REMARK  6 active torsions:
REMARK  status: ('A' for Active; 'I' for Inactive)
REMARK    1  A    between atoms: C_1  and  C_2
REMARK    2  A    between atoms: C_7  and  C_8
REMARK    3  A    between atoms: C_8  and  CA_9
REMARK    4  A    between atoms: CA_9  and  N_10
REMARK    5  A    between atoms: CA_9  and  C_11
REMARK    6  A    between atoms: C_11  and  OXT_13
REMARK                            x       y       z     vdW  Elec       q    Type
REMARK                         _______ _______ _______ _____ _____    ______ ____
ROOT
ATOM      1  C   UNL     1       2.389   2.329  19.851  0.00  0.00    +0.000 C 
ATOM      2  C   UNL     1       3.819   2.818  19.766  0.00  0.00    +0.000 C 
ATOM      3  N   UNL     1       4.786   2.019  20.090  0.00  0.00    +0.000 NA
ATOM      4  N   UNL     1       4.075   4.095  19.319  0.00  0.00    +0.000 N 
ATOM      5  C   UNL     1       3.077   5.057  18.893  0.00  0.00    +0.000 C 
ATOM      6  C   UNL     1       3.721   5.709  17.687  0.00  0.00    +0.000 C 
ATOM      7  C   UNL     1       5.198   5.796  18.068  0.00  0.00    +0.000 C 
ATOM      8  C   UNL     1       5.413   4.506  18.889  0.00  0.00    +0.000 C 
ATOM      9  H   UNL     1       4.419   1.112  20.389  0.00  0.00    +0.000 HD
ENDROOT
BRANCH   7  10
ATOM     10  C   UNL     1       6.171   5.890  16.878  0.00  0.00    +0.000 C 
BRANCH  10  11
ATOM     11  CA  UNL     1       6.743   4.551  16.376  0.00  0.00    +0.000 C 
BRANCH  11  12
ATOM     12  N   UNL     1       8.038   4.245  17.021  0.00  0.00    +0.000 NA
ATOM     13  H1  UNL     1       7.982   3.298  17.406  0.00  0.00    +0.000 HD
ATOM     14  H2  UNL     1       8.127   4.829  17.856  0.00  0.00    +0.000 HD
ENDBRANCH  11  12
BRANCH  11  15
ATOM     15  C   UNL     1       6.959   4.578  14.846  0.00  0.00    +0.000 C 
ATOM     16  O   UNL     1       7.641   5.413  14.264  0.00  0.00    +0.000 OA
BRANCH  15  17
ATOM     17  OXT UNL     1       6.360   3.563  14.180  0.00  0.00    +0.000 OA
ATOM     18  HXT UNL     1       6.359   2.713  14.654  0.00  0.00    +0.000 HD
ENDBRANCH  15  17
ENDBRANCH  11  15
ENDBRANCH  10  11
ENDBRANCH   7  10
TORSDOF 5
ENDMDL
MODEL 4
REMARK VINA RESULT:      -6.1      1.841      2.260
REMARK  Name = 
REMARK  6 active torsions:
REMARK  status: ('A' for Active; 'I' for Inactive)
REMARK    1  A    between atoms: C_1  and  C_2
REMARK    2  A    between atoms: C_7  and  C_8
REMARK    3  A    between atoms: C_8  and  CA_9
REMARK    4  A    between atoms: CA_9  and  N_10
REMARK    5  A    between atoms: CA_9  and  C_11
REMARK    6  A    between atoms: C_11  and  OXT_13
REMARK                            x       y       z     vdW  Elec       q    Type
REMARK                         _______ _______ _______ _____ _____    ______ ____
ROOT
ATOM      1  C   UNL     1       1.655   2.774  21.537  0.00  0.00    +0.000 C 
ATOM      2  C   UNL     1       1.643   2.813  20.024  0.00  0.00    +0.000 C 
ATOM      3  N   UNL     1       0.512   2.896  19.397  0.00  0.00    +0.000 NA
ATOM      4  N   UNL     1       2.835   2.790  19.335  0.00  0.00    +0.000 N 
ATOM      5  C   UNL     1       4.156   2.741  19.931  0.00  0.00    +0.000 C 
ATOM      6  C   UNL     1       4.961   3.685  19.062  0.00  0.00    +0.000 C 
ATOM      7  C   UNL     1       4.411   3.442  17.657  0.00  0.00    +0.000 C 
ATOM      8  C   UNL     1       2.914   3.168  17.922  0.00  0.00    +0.000 C 
ATOM      9  H   UNL     1      -0.267   2.912  20.061  0.00  0.00    +0.000 HD
ENDROOT
BRANCH   7  10
ATOM     10  C   UNL     1       4.618   4.605  16.670  0.00  0.00    +0.000 C 
BRANCH  10  11
ATOM     11  CA  UNL     1       5.848   5.495  16.935  0.00  0.00    +0.000 C 
BRANCH  11  12
ATOM     12  N   UNL     1       5.626   6.875  16.455  0.00  0.00    +0.000 NA
ATOM     13  H1  UNL     1       5.126   7.386  17.187  0.00  0.00    +0.000 HD
ATOM     14  H2  UNL     1       4.948   6.844  15.690  0.00  0.00    +0.000 HD
ENDBRANCH  11  12
BRANCH  11  15
ATOM     15  C   UNL     1       7.102   4.932  16.230  0.00  0.00    +0.000 C 
ATOM     16  O   UNL     1       7.417   5.195  15.075  0.00  0.00    +0.000 OA
BRANCH  15  17
ATOM     17  OXT UNL     1       7.873   4.139  17.011  0.00  0.00    +0.000 OA
ATOM     18  HXT UNL     1       7.534   4.008  17.914  0.00  0.00    +0.000 HD
ENDBRANCH  15  17
ENDBRANCH  11  15
ENDBRANCH  10  11
ENDBRANCH   7  10
TORSDOF 5
ENDMDL
MODEL 5
REMARK VINA RESULT:      -6.1      1.623      1.698
REMARK  Name = 
REMARK  6 active torsions:
REMARK  status: ('A' for Active; 'I' for Inactive)
REMARK    1  A    between atoms: C_1  and  C_2
REMARK    2  A    between atoms: C_7  and  C_8
REMARK    3  A    between atoms: C_8  and  CA_9
REMARK    4  A    between atoms: CA_9  and  N_10
REMARK    5  A    between atoms: CA_9  and  C_11
REMARK    6  A    between atoms: C_11  and  OXT_13
REMARK                            x       y       z     vdW  Elec       q    Type
REMARK                         _______ _______ _______ _____ _____    ______ ____
ROOT
ATOM      1  C   UNL     1       1.121   3.068  20.749  0.00  0.00    +0.000 C 
ATOM      2  C   UNL     1       2.002   2.645  19.593  0.00  0.00    +0.000 C 
ATOM      3  N   UNL     1       1.685   1.597  18.900  0.00  0.00    +0.000 NA
ATOM      4  N   UNL     1       3.112   3.395  19.274  0.00  0.00    +0.000 N 
ATOM      5  C   UNL     1       3.537   4.604  19.952  0.00  0.00    +0.000 C 
ATOM      6  C   UNL     1       3.995   5.494  18.813  0.00  0.00    +0.000 C 
ATOM      7  C   UNL     1       4.659   4.521  17.840  0.00  0.00    +0.000 C 
ATOM      8  C   UNL     1       3.795   3.250  17.987  0.00  0.00    +0.000 C 
ATOM      9  H   UNL     1       0.831   1.168  19.267  0.00  0.00    +0.000 HD
ENDROOT
BRANCH   7  10
ATOM     10  C   UNL     1       4.724   5.008  16.380  0.00  0.00    +0.000 C 
BRANCH  10  11
ATOM     11  CA  UNL     1       6.032   4.695  15.629  0.00  0.00    +0.000 C 
BRANCH  11  12
ATOM     12  N   UNL     1       6.180   3.243  15.392  0.00  0.00    +0.000 NA
ATOM     13  H1  UNL     1       5.832   3.041  14.450  0.00  0.00    +0.000 HD
ATOM     14  H2  UNL     1       5.517   2.750  15.994  0.00  0.00    +0.000 HD
ENDBRANCH  11  12
BRANCH  11  15
ATOM     15  C   UNL     1       7.261   5.183  16.429  0.00  0.00    +0.000 C 
ATOM     16  O   UNL     1       7.562   6.362  16.573  0.00  0.00    +0.000 OA
BRANCH  15  17
ATOM     17  OXT UNL     1       7.978   4.192  17.010  0.00  0.00    +0.000 OA
ATOM     18  HXT UNL     1       8.904   4.423  17.203  0.00  0.00    +0.000 HD
ENDBRANCH  15  17
ENDBRANCH  11  15
ENDBRANCH  10  11
ENDBRANCH   7  10
TORSDOF 5
ENDMDL
MODEL 6
REMARK VINA RESULT:      -6.1      2.278      2.982
REMARK  Name = 
REMARK  6 active torsions:
REMARK  status: ('A' for Active; 'I' for Inactive)
REMARK    1  A    between atoms: C_1  and  C_2
REMARK    2  A    between atoms: C_7  and  C_8
REMARK    3  A    between atoms: C_8  and  CA_9
REMARK    4  A    between atoms: CA_9  and  N_10
REMARK    5  A    between atoms: CA_9  and  C_11
REMARK    6  A    between atoms: C_11  and  OXT_13
REMARK                            x       y       z     vdW  Elec       q    Type
REMARK                         _______ _______ _______ _____ _____    ______ ____
ROOT
ATOM      1  C   UNL     1       1.742   3.062  21.606  0.00  0.00    +0.000 C 
ATOM      2  C   UNL     1       2.191   4.101  20.602  0.00  0.00    +0.000 C 
ATOM      3  N   UNL     1       2.430   5.311  21.000  0.00  0.00    +0.000 NA
ATOM      4  N   UNL     1       2.368   3.741  19.285  0.00  0.00    +0.000 N 
ATOM      5  C   UNL     1       2.171   2.413  18.738  0.00  0.00    +0.000 C 
ATOM      6  C   UNL     1       3.324   2.267  17.766  0.00  0.00    +0.000 C 
ATOM      7  C   UNL     1       3.467   3.663  17.162  0.00  0.00    +0.000 C 
ATOM      8  C   UNL     1       3.117   4.584  18.351  0.00  0.00    +0.000 C 
ATOM      9  H   UNL     1       2.257   5.400  22.005  0.00  0.00    +0.000 HD
ENDROOT
BRANCH   7  10
ATOM     10  C   UNL     1       4.857   3.978  16.578  0.00  0.00    +0.000 C 
BRANCH  10  11
ATOM     11  CA  UNL     1       5.568   5.207  17.174  0.00  0.00    +0.000 C 
BRANCH  11  12
ATOM     12  N   UNL     1       5.888   6.202  16.129  0.00  0.00    +0.000 NA
ATOM     13  H1  UNL     1       5.546   5.839  15.234  0.00  0.00    +0.000 HD
ATOM     14  H2  UNL     1       6.902   6.218  15.999  0.00  0.00    +0.000 HD
ENDBRANCH  11  12
BRANCH  11  15
ATOM     15  C   UNL     1       6.884   4.801  17.875  0.00  0.00    +0.000 C 
ATOM     16  O   UNL     1       7.894   4.439  17.282  0.00  0.00    +0.000 OA
BRANCH  15  17
ATOM     17  OXT UNL     1       6.857   4.915  19.223  0.00  0.00    +0.000 OA
ATOM     18  HXT UNL     1       6.300   5.640  19.557  0.00  0.00    +0.000 HD
ENDBRANCH  15  17
ENDBRANCH  11  15
ENDBRANCH  10  11
ENDBRANCH   7  10
TORSDOF 5
ENDMDL
MODEL 7
REMARK VINA RESULT:      -6.0      1.180      1.332
REMARK  Name = 
REMARK  6 active torsions:
REMARK  status: ('A' for Active; 'I' for Inactive)
REMARK    1  A    between atoms: C_1  and  C_2
REMARK    2  A    between atoms: C_7  and  C_8
REMARK    3  A    between atoms: C_8  and  CA_9
REMARK    4  A    between atoms: CA_9  and  N_10
REMARK    5  A    between atoms: CA_9  and  C_11
REMARK    6  A    between atoms: C_11  and  OXT_13
REMARK                            x       y       z     vdW  Elec       q    Type
REMARK                         _______ _______ _______ _____ _____    ______ ____
ROOT
ATOM      1  C   UNL     1       1.120   2.598  18.576  0.00  0.00    +0.000 C 
ATOM      2  C   UNL     1       2.620   2.480  18.737  0.00  0.00    +0.000 C 
ATOM      3  N   UNL     1       3.213   1.379  18.396  0.00  0.00    +0.000 NA
ATOM      4  N   UNL     1       3.339   3.551  19.216  0.00  0.00    +0.000 N 
ATOM      5  C   UNL     1       2.788   4.840  19.588  0.00  0.00    +0.000 C 
ATOM      6  C   UNL     1       3.818   5.819  19.061  0.00  0.00    +0.000 C 
ATOM      7  C   UNL     1       5.149   5.112  19.309  0.00  0.00    +0.000 C 
ATOM      8  C   UNL     1       4.795   3.628  19.072  0.00  0.00    +0.000 C 
ATOM      9  H   UNL     1       2.532   0.695  18.054  0.00  0.00    +0.000 HD
ENDROOT
BRANCH   7  10
ATOM     10  C   UNL     1       6.308   5.579  18.408  0.00  0.00    +0.000 C 
BRANCH  10  11
ATOM     11  CA  UNL     1       6.542   4.743  17.135  0.00  0.00    +0.000 C 
BRANCH  11  12
ATOM     12  N   UNL     1       7.917   4.204  17.091  0.00  0.00    +0.000 NA
ATOM     13  H1  UNL     1       7.875   3.213  17.347  0.00  0.00    +0.000 HD
ATOM     14  H2  UNL     1       8.449   4.618  17.860  0.00  0.00    +0.000 HD
ENDBRANCH  11  12
BRANCH  11  15
ATOM     15  C   UNL     1       6.314   5.593  15.864  0.00  0.00    +0.000 C 
ATOM     16  O   UNL     1       5.535   6.536  15.800  0.00  0.00    +0.000 OA
BRANCH  15  17
ATOM     17  OXT UNL     1       7.088   5.240  14.811  0.00  0.00    +0.000 OA
ATOM     18  HXT UNL     1       7.070   4.291  14.595  0.00  0.00    +0.000 HD
ENDBRANCH  15  17
ENDBRANCH  11  15
ENDBRANCH  10  11
ENDBRANCH   7  10
TORSDOF 5
ENDMDL
MODEL 8
REMARK VINA RESULT:      -6.0      3.459      5.637
REMARK  Name = 
REMARK  6 active torsions:
REMARK  status: ('A' for Active; 'I' for Inactive)
REMARK    1  A    between atoms: C_1  and  C_2
REMARK    2  A    between atoms: C_7  and  C_8
REMARK    3  A    between atoms: C_8  and  CA_9
REMARK    4  A    between atoms: CA_9  and  N_10
REMARK    5  A    between atoms: CA_9  and  C_11
REMARK    6  A    between atoms: C_11  and  OXT_13
REMARK                            x       y       z     vdW  Elec       q    Type
REMARK                         _______ _______ _______ _____ _____    ______ ____
ROOT
ATOM      1  C   UNL     1       7.761   6.478  18.383  0.00  0.00    +0.000 C 
ATOM      2  C   UNL     1       7.191   5.227  17.750  0.00  0.00    +0.000 C 
ATOM      3  N   UNL     1       7.940   4.176  17.627  0.00  0.00    +0.000 NA
ATOM      4  N   UNL     1       5.877   5.212  17.339  0.00  0.00    +0.000 N 
ATOM      5  C   UNL     1       4.940   6.311  17.464  0.00  0.00    +0.000 C 
ATOM      6  C   UNL     1       3.652   5.621  17.866  0.00  0.00    +0.000 C 
ATOM      7  C   UNL     1       3.675   4.318  17.067  0.00  0.00    +0.000 C 
ATOM      8  C   UNL     1       5.176   3.959  17.047  0.00  0.00    +0.000 C 
ATOM      9  H   UNL     1       8.879   4.359  17.991  0.00  0.00    +0.000 HD
ENDROOT
BRANCH   7  10
ATOM     10  C   UNL     1       2.818   3.182  17.655  0.00  0.00    +0.000 C 
BRANCH  10  11
ATOM     11  CA  UNL     1       2.494   3.299  19.157  0.00  0.00    +0.000 C 
BRANCH  11  12
ATOM     12  N   UNL     1       3.427   2.491  19.971  0.00  0.00    +0.000 NA
ATOM     13  H1  UNL     1       3.406   1.532  19.615  0.00  0.00    +0.000 HD
ATOM     14  H2  UNL     1       3.035   2.397  20.911  0.00  0.00    +0.000 HD
ENDBRANCH  11  12
BRANCH  11  15
ATOM     15  C   UNL     1       1.055   2.821  19.453  0.00  0.00    +0.000 C 
ATOM     16  O   UNL     1       0.366   2.187  18.662  0.00  0.00    +0.000 OA
BRANCH  15  17
ATOM     17  OXT UNL     1       0.611   3.124  20.696  0.00  0.00    +0.000 OA
ATOM     18  HXT UNL     1      -0.036   2.494  21.059  0.00  0.00    +0.000 HD
ENDBRANCH  15  17
ENDBRANCH  11  15
ENDBRANCH  10  11
ENDBRANCH   7  10
TORSDOF 5
ENDMDL
MODEL 9
REMARK VINA RESULT:      -6.0      1.956      2.049
REMARK  Name = 
REMARK  6 active torsions:
REMARK  status: ('A' for Active; 'I' for Inactive)
REMARK    1  A    between atoms: C_1  and  C_2
REMARK    2  A    between atoms: C_7  and  C_8
REMARK    3  A    between atoms: C_8  and  CA_9
REMARK    4  A    between atoms: CA_9  and  N_10
REMARK    5  A    between atoms: CA_9  and  C_11
REMARK    6  A    between atoms: C_11  and  OXT_13
REMARK                            x       y       z     vdW  Elec       q    Type
REMARK                         _______ _______ _______ _____ _____    ______ ____
ROOT
ATOM      1  C   UNL     1       1.396   2.998  21.235  0.00  0.00    +0.000 C 
ATOM      2  C   UNL     1       2.841   2.987  20.781  0.00  0.00    +0.000 C 
ATOM      3  N   UNL     1       3.688   2.204  21.371  0.00  0.00    +0.000 NA
ATOM      4  N   UNL     1       3.229   3.786  19.729  0.00  0.00    +0.000 N 
ATOM      5  C   UNL     1       2.361   4.666  18.972  0.00  0.00    +0.000 C 
ATOM      6  C   UNL     1       2.842   4.481  17.547  0.00  0.00    +0.000 C 
ATOM      7  C   UNL     1       4.356   4.334  17.693  0.00  0.00    +0.000 C 
ATOM      8  C   UNL     1       4.497   3.572  19.028  0.00  0.00    +0.000 C 
ATOM      9  H   UNL     1       3.230   1.677  22.120  0.00  0.00    +0.000 HD
ENDROOT
BRANCH   7  10
ATOM     10  C   UNL     1       5.051   3.598  16.532  0.00  0.00    +0.000 C 
BRANCH  10  11
ATOM     11  CA  UNL     1       5.887   4.481  15.586  0.00  0.00    +0.000 C 
BRANCH  11  12
ATOM     12  N   UNL     1       6.344   3.719  14.405  0.00  0.00    +0.000 NA
ATOM     13  H1  UNL     1       7.098   3.095  14.705  0.00  0.00    +0.000 HD
ATOM     14  H2  UNL     1       6.819   4.365  13.770  0.00  0.00    +0.000 HD
ENDBRANCH  11  12
BRANCH  11  15
ATOM     15  C   UNL     1       7.130   5.046  16.309  0.00  0.00    +0.000 C 
ATOM     16  O   UNL     1       7.414   6.237  16.357  0.00  0.00    +0.000 OA
BRANCH  15  17
ATOM     17  OXT UNL     1       7.882   4.113  16.939  0.00  0.00    +0.000 OA
ATOM     18  HXT UNL     1       8.820   4.349  17.038  0.00  0.00    +0.000 HD
ENDBRANCH  15  17
ENDBRANCH  11  15
ENDBRANCH  10  11
ENDBRANCH   7  10
TORSDOF 5
ENDMDL
