MODEL 1
REMARK VINA RESULT:      -7.5      0.000      0.000
REMARK  Name = 
REMARK  11 active torsions:
REMARK  status: ('A' for Active; 'I' for Inactive)
REMARK    1  A    between atoms: C_1  and  C_2
REMARK    2  A    between atoms: C_2  and  C_3
REMARK    3  A    between atoms: C_3  and  N_4
REMARK    4  A    between atoms: C_5  and  C_6
REMARK    5  A    between atoms: C_7  and  C_8
REMARK    6  A    between atoms: C_8  and  C_9
REMARK    7  A    between atoms: N_11  and  C_12
REMARK    8  A    between atoms: C_12  and  C_13
REMARK    9  A    between atoms: C_13  and  C_14
REMARK   10  A    between atoms: C_20  and  C_21
REMARK   11  A    between atoms: C_20  and  C_22
REMARK                            x       y       z     vdW  Elec       q    Type
REMARK                         _______ _______ _______ _____ _____    ______ ____
ROOT
ATOM      1  N   UNL     1       3.328   6.367  17.992  0.00  0.00    +0.000 N 
ATOM      2  C   UNL     1       4.707   6.496  18.046  0.00  0.00    +0.000 A 
ATOM      3  C   UNL     1       5.478   7.704  17.621  0.00  0.00    +0.000 C 
ATOM      4  C   UNL     1       5.240   5.303  18.527  0.00  0.00    +0.000 A 
ATOM      5  C   UNL     1       4.145   4.455  18.813  0.00  0.00    +0.000 A 
ATOM      6  C   UNL     1       2.985   5.107  18.440  0.00  0.00    +0.000 A 
ATOM      7  C   UNL     1       1.605   4.497  18.478  0.00  0.00    +0.000 C 
ATOM      8  C   UNL     1       1.598   3.175  19.323  0.00  0.00    +0.000 C 
ATOM      9  C   UNL     1       0.377   2.309  18.963  0.00  0.00    +0.000 C 
ATOM     10  C   UNL     1       1.517   3.508  20.828  0.00  0.00    +0.000 C 
ATOM     11  C   UNL     1       2.864   2.326  19.040  0.00  0.00    +0.000 C 
ATOM     12  C   UNL     1       4.128   3.103  19.340  0.00  0.00    +0.000 C 
ATOM     13  O   UNL     1       5.079   2.607  19.946  0.00  0.00    +0.000 OA
ENDROOT
BRANCH   1  14
ATOM     14  C   UNL     1       2.403   7.341  17.425  0.00  0.00    +0.000 C 
BRANCH  14  16
ATOM     15  C   UNL     1       1.893   9.816  17.909  0.00  0.00    +0.000 C 
ATOM     16  C   UNL     1       1.853   8.380  18.408  0.00  0.00    +0.000 C 
ENDBRANCH  14  16
ENDBRANCH   1  14
BRANCH   4  17
ATOM     17  C   UNL     1       6.683   4.948  18.704  0.00  0.00    +0.000 C 
BRANCH  17  18
ATOM     18  C   UNL     1       7.356   4.519  17.396  0.00  0.00    +0.000 C 
ATOM     19  O   UNL     1       8.517   4.120  17.341  0.00  0.00    +0.000 OA
ATOM     20  N   UNL     1       6.524   4.580  16.286  0.00  0.00    +0.000 N 
ATOM     21  H   UNL     1       5.834   5.329  16.334  0.00  0.00    +0.000 HD
BRANCH  20  22
ATOM     22  C   UNL     1       7.018   4.252  14.954  0.00  0.00    +0.000 C 
BRANCH  22  23
ATOM     23  C   UNL     1       5.871   4.103  13.962  0.00  0.00    +0.000 C 
BRANCH  23  24
ATOM     24  C   UNL     1       6.361   3.661  12.602  0.00  0.00    +0.000 C 
ATOM     25  N   UNL     1       5.800   2.501  12.151  0.00  0.00    +0.000 N 
ATOM     26  O   UNL     1       7.184   4.262  11.924  0.00  0.00    +0.000 OA
ATOM     27  H   UNL     1       5.104   1.981  12.667  0.00  0.00    +0.000 HD
ATOM     28  H   UNL     1       6.095   2.158  11.246  0.00  0.00    +0.000 HD
ENDBRANCH  23  24
ENDBRANCH  22  23
ENDBRANCH  20  22
ENDBRANCH  17  18
ENDBRANCH   4  17
TORSDOF 7
ENDMDL
MODEL 2
REMARK VINA RESULT:      -7.2      1.703      2.050
REMARK  Name = 
REMARK  11 active torsions:
REMARK  status: ('A' for Active; 'I' for Inactive)
REMARK    1  A    between atoms: C_1  and  C_2
REMARK    2  A    between atoms: C_2  and  C_3
REMARK    3  A    between atoms: C_3  and  N_4
REMARK    4  A    between atoms: C_5  and  C_6
REMARK    5  A    between atoms: C_7  and  C_8
REMARK    6  A    between atoms: C_8  and  C_9
REMARK    7  A    between atoms: N_11  and  C_12
REMARK    8  A    between atoms: C_12  and  C_13
REMARK    9  A    between atoms: C_13  and  C_14
REMARK   10  A    between atoms: C_20  and  C_21
REMARK   11  A    between atoms: C_20  and  C_22
REMARK                            x       y       z     vdW  Elec       q    Type
REMARK                         _______ _______ _______ _____ _____    ______ ____
ROOT
ATOM      1  N   UNL     1       3.947   6.182  18.073  0.00  0.00    +0.000 N 
ATOM      2  C   UNL     1       5.162   6.043  17.420  0.00  0.00    +0.000 A 
ATOM      3  C   UNL     1       6.110   7.158  17.114  0.00  0.00    +0.000 C 
ATOM      4  C   UNL     1       5.322   4.704  17.073  0.00  0.00    +0.000 A 
ATOM      5  C   UNL     1       4.193   4.017  17.576  0.00  0.00    +0.000 A 
ATOM      6  C   UNL     1       3.342   4.943  18.147  0.00  0.00    +0.000 A 
ATOM      7  C   UNL     1       1.972   4.629  18.698  0.00  0.00    +0.000 C 
ATOM      8  C   UNL     1       1.778   3.082  18.874  0.00  0.00    +0.000 C 
ATOM      9  C   UNL     1       0.282   2.728  18.944  0.00  0.00    +0.000 C 
ATOM     10  C   UNL     1       2.440   2.610  20.186  0.00  0.00    +0.000 C 
ATOM     11  C   UNL     1       2.379   2.306  17.674  0.00  0.00    +0.000 C 
ATOM     12  C   UNL     1       3.853   2.607  17.503  0.00  0.00    +0.000 C 
ATOM     13  O   UNL     1       4.684   1.728  17.277  0.00  0.00    +0.000 OA
ENDROOT
BRANCH   1  14
ATOM     14  C   UNL     1       3.341   7.443  18.485  0.00  0.00    +0.000 C 
BRANCH  14  16
ATOM     15  C   UNL     1       1.811   9.417  17.867  0.00  0.00    +0.000 C 
ATOM     16  C   UNL     1       2.285   8.011  17.531  0.00  0.00    +0.000 C 
ENDBRANCH  14  16
ENDBRANCH   1  14
BRANCH   4  17
ATOM     17  C   UNL     1       6.447   4.083  16.307  0.00  0.00    +0.000 C 
BRANCH  17  18
ATOM     18  C   UNL     1       6.443   4.470  14.824  0.00  0.00    +0.000 C 
ATOM     19  O   UNL     1       6.728   5.598  14.427  0.00  0.00    +0.000 OA
ATOM     20  N   UNL     1       6.130   3.424  13.967  0.00  0.00    +0.000 N 
ATOM     21  H   UNL     1       5.475   2.753  14.366  0.00  0.00    +0.000 HD
BRANCH  20  22
ATOM     22  C   UNL     1       6.035   3.631  12.528  0.00  0.00    +0.000 C 
BRANCH  22  23
ATOM     23  C   UNL     1       5.304   2.477  11.852  0.00  0.00    +0.000 C 
BRANCH  23  24
ATOM     24  C   UNL     1       6.266   1.420  11.357  0.00  0.00    +0.000 C 
ATOM     25  N   UNL     1       7.542   1.864  11.167  0.00  0.00    +0.000 N 
ATOM     26  O   UNL     1       5.971   0.252  11.136  0.00  0.00    +0.000 OA
ATOM     27  H   UNL     1       7.836   2.813  11.354  0.00  0.00    +0.000 HD
ATOM     28  H   UNL     1       8.227   1.197  10.834  0.00  0.00    +0.000 HD
ENDBRANCH  23  24
ENDBRANCH  22  23
ENDBRANCH  20  22
ENDBRANCH  17  18
ENDBRANCH   4  17
TORSDOF 7
ENDMDL
MODEL 3
REMARK VINA RESULT:      -7.0      3.657      7.279
REMARK  Name = 
REMARK  11 active torsions:
REMARK  status: ('A' for Active; 'I' for Inactive)
REMARK    1  A    between atoms: C_1  and  C_2
REMARK    2  A    between atoms: C_2  and  C_3
REMARK    3  A    between atoms: C_3  and  N_4
REMARK    4  A    between atoms: C_5  and  C_6
REMARK    5  A    between atoms: C_7  and  C_8
REMARK    6  A    between atoms: C_8  and  C_9
REMARK    7  A    between atoms: N_11  and  C_12
REMARK    8  A    between atoms: C_12  and  C_13
REMARK    9  A    between atoms: C_13  and  C_14
REMARK   10  A    between atoms: C_20  and  C_21
REMARK   11  A    between atoms: C_20  and  C_22
REMARK                            x       y       z     vdW  Elec       q    Type
REMARK                         _______ _______ _______ _____ _____    ______ ____
ROOT
ATOM      1  N   UNL     1       2.921   3.933  18.069  0.00  0.00    +0.000 N 
ATOM      2  C   UNL     1       2.421   4.908  18.917  0.00  0.00    +0.000 A 
ATOM      3  C   UNL     1       1.321   4.709  19.909  0.00  0.00    +0.000 C 
ATOM      4  C   UNL     1       3.093   6.100  18.656  0.00  0.00    +0.000 A 
ATOM      5  C   UNL     1       4.053   5.815  17.659  0.00  0.00    +0.000 A 
ATOM      6  C   UNL     1       3.906   4.495  17.281  0.00  0.00    +0.000 A 
ATOM      7  C   UNL     1       4.668   3.829  16.160  0.00  0.00    +0.000 C 
ATOM      8  C   UNL     1       5.893   4.704  15.718  0.00  0.00    +0.000 C 
ATOM      9  C   UNL     1       6.356   4.310  14.303  0.00  0.00    +0.000 C 
ATOM     10  C   UNL     1       7.077   4.484  16.684  0.00  0.00    +0.000 C 
ATOM     11  C   UNL     1       5.519   6.208  15.678  0.00  0.00    +0.000 C 
ATOM     12  C   UNL     1       5.024   6.690  17.025  0.00  0.00    +0.000 C 
ATOM     13  O   UNL     1       5.385   7.759  17.517  0.00  0.00    +0.000 OA
ENDROOT
BRANCH   1  14
ATOM     14  C   UNL     1       2.400   2.578  17.929  0.00  0.00    +0.000 C 
BRANCH  14  16
ATOM     15  C   UNL     1       4.198   1.919  19.649  0.00  0.00    +0.000 C 
ATOM     16  C   UNL     1       3.275   1.469  18.526  0.00  0.00    +0.000 C 
ENDBRANCH  14  16
ENDBRANCH   1  14
BRANCH   4  17
ATOM     17  C   UNL     1       2.858   7.440  19.280  0.00  0.00    +0.000 C 
BRANCH  17  18
ATOM     18  C   UNL     1       2.079   8.393  18.368  0.00  0.00    +0.000 C 
ATOM     19  O   UNL     1       2.252   8.446  17.152  0.00  0.00    +0.000 OA
ATOM     20  N   UNL     1       1.132   9.162  19.030  0.00  0.00    +0.000 N 
ATOM     21  H   UNL     1       1.397   9.402  19.985  0.00  0.00    +0.000 HD
BRANCH  20  22
ATOM     22  C   UNL     1       0.336  10.155  18.321  0.00  0.00    +0.000 C 
BRANCH  22  23
ATOM     23  C   UNL     1      -1.001  10.389  19.015  0.00  0.00    +0.000 C 
BRANCH  23  24
ATOM     24  C   UNL     1      -2.116  10.616  18.019  0.00  0.00    +0.000 C 
ATOM     25  N   UNL     1      -2.286  11.920  17.654  0.00  0.00    +0.000 N 
ATOM     26  O   UNL     1      -2.827   9.738  17.550  0.00  0.00    +0.000 OA
ATOM     27  H   UNL     1      -1.711  12.677  18.000  0.00  0.00    +0.000 HD
ATOM     28  H   UNL     1      -3.022  12.130  16.990  0.00  0.00    +0.000 HD
ENDBRANCH  23  24
ENDBRANCH  22  23
ENDBRANCH  20  22
ENDBRANCH  17  18
ENDBRANCH   4  17
TORSDOF 7
ENDMDL
MODEL 4
REMARK VINA RESULT:      -6.9      2.712      5.100
REMARK  Name = 
REMARK  11 active torsions:
REMARK  status: ('A' for Active; 'I' for Inactive)
REMARK    1  A    between atoms: C_1  and  C_2
REMARK    2  A    between atoms: C_2  and  C_3
REMARK    3  A    between atoms: C_3  and  N_4
REMARK    4  A    between atoms: C_5  and  C_6
REMARK    5  A    between atoms: C_7  and  C_8
REMARK    6  A    between atoms: C_8  and  C_9
REMARK    7  A    between atoms: N_11  and  C_12
REMARK    8  A    between atoms: C_12  and  C_13
REMARK    9  A    between atoms: C_13  and  C_14
REMARK   10  A    between atoms: C_20  and  C_21
REMARK   11  A    between atoms: C_20  and  C_22
REMARK                            x       y       z     vdW  Elec       q    Type
REMARK                         _______ _______ _______ _____ _____    ______ ____
ROOT
ATOM      1  N   UNL     1       2.969   7.350  18.710  0.00  0.00    +0.000 N 
ATOM      2  C   UNL     1       2.375   6.841  19.853  0.00  0.00    +0.000 A 
ATOM      3  C   UNL     1       1.239   7.474  20.591  0.00  0.00    +0.000 C 
ATOM      4  C   UNL     1       3.039   5.669  20.207  0.00  0.00    +0.000 A 
ATOM      5  C   UNL     1       4.026   5.448  19.219  0.00  0.00    +0.000 A 
ATOM      6  C   UNL     1       3.998   6.508  18.334  0.00  0.00    +0.000 A 
ATOM      7  C   UNL     1       4.971   6.709  17.198  0.00  0.00    +0.000 C 
ATOM      8  C   UNL     1       5.788   5.398  16.921  0.00  0.00    +0.000 C 
ATOM      9  C   UNL     1       7.081   5.718  16.149  0.00  0.00    +0.000 C 
ATOM     10  C   UNL     1       4.951   4.424  16.063  0.00  0.00    +0.000 C 
ATOM     11  C   UNL     1       6.201   4.708  18.247  0.00  0.00    +0.000 C 
ATOM     12  C   UNL     1       4.993   4.372  19.095  0.00  0.00    +0.000 C 
ATOM     13  O   UNL     1       4.869   3.289  19.666  0.00  0.00    +0.000 OA
ENDROOT
BRANCH   1  14
ATOM     14  C   UNL     1       2.659   8.632  18.087  0.00  0.00    +0.000 C 
BRANCH  14  16
ATOM     15  C   UNL     1       0.453   9.957  18.131  0.00  0.00    +0.000 C 
ATOM     16  C   UNL     1       1.228   8.780  17.558  0.00  0.00    +0.000 C 
ENDBRANCH  14  16
ENDBRANCH   1  14
BRANCH   4  17
ATOM     17  C   UNL     1       2.792   4.799  21.399  0.00  0.00    +0.000 C 
BRANCH  17  18
ATOM     18  C   UNL     1       1.918   3.581  21.077  0.00  0.00    +0.000 C 
ATOM     19  O   UNL     1       1.753   2.651  21.863  0.00  0.00    +0.000 OA
ATOM     20  N   UNL     1       1.297   3.643  19.837  0.00  0.00    +0.000 N 
ATOM     21  H   UNL     1       1.844   4.135  19.131  0.00  0.00    +0.000 HD
BRANCH  20  22
ATOM     22  C   UNL     1       0.468   2.547  19.353  0.00  0.00    +0.000 C 
BRANCH  22  23
ATOM     23  C   UNL     1       1.319   1.445  18.733  0.00  0.00    +0.000 C 
BRANCH  23  24
ATOM     24  C   UNL     1       2.393   2.008  17.831  0.00  0.00    +0.000 C 
ATOM     25  N   UNL     1       3.588   1.351  17.900  0.00  0.00    +0.000 N 
ATOM     26  O   UNL     1       2.249   2.965  17.081  0.00  0.00    +0.000 OA
ATOM     27  H   UNL     1       3.748   0.545  18.489  0.00  0.00    +0.000 HD
ATOM     28  H   UNL     1       4.344   1.688  17.318  0.00  0.00    +0.000 HD
ENDBRANCH  23  24
ENDBRANCH  22  23
ENDBRANCH  20  22
ENDBRANCH  17  18
ENDBRANCH   4  17
TORSDOF 7
ENDMDL
MODEL 5
REMARK VINA RESULT:      -6.9      3.504      7.508
REMARK  Name = 
REMARK  11 active torsions:
REMARK  status: ('A' for Active; 'I' for Inactive)
REMARK    1  A    between atoms: C_1  and  C_2
REMARK    2  A    between atoms: C_2  and  C_3
REMARK    3  A    between atoms: C_3  and  N_4
REMARK    4  A    between atoms: C_5  and  C_6
REMARK    5  A    between atoms: C_7  and  C_8
REMARK    6  A    between atoms: C_8  and  C_9
REMARK    7  A    between atoms: N_11  and  C_12
REMARK    8  A    between atoms: C_12  and  C_13
REMARK    9  A    between atoms: C_13  and  C_14
REMARK   10  A    between atoms: C_20  and  C_21
REMARK   11  A    between atoms: C_20  and  C_22
REMARK                            x       y       z     vdW  Elec       q    Type
REMARK                         _______ _______ _______ _____ _____    ______ ____
ROOT
ATOM      1  N   UNL     1       2.880   3.941  18.315  0.00  0.00    +0.000 N 
ATOM      2  C   UNL     1       2.432   4.914  19.194  0.00  0.00    +0.000 A 
ATOM      3  C   UNL     1       1.410   4.707  20.265  0.00  0.00    +0.000 C 
ATOM      4  C   UNL     1       3.070   6.112  18.882  0.00  0.00    +0.000 A 
ATOM      5  C   UNL     1       3.958   5.834  17.818  0.00  0.00    +0.000 A 
ATOM      6  C   UNL     1       3.798   4.511  17.455  0.00  0.00    +0.000 A 
ATOM      7  C   UNL     1       4.483   3.850  16.284  0.00  0.00    +0.000 C 
ATOM      8  C   UNL     1       5.663   4.736  15.750  0.00  0.00    +0.000 C 
ATOM      9  C   UNL     1       6.026   4.342  14.307  0.00  0.00    +0.000 C 
ATOM     10  C   UNL     1       6.917   4.532  16.628  0.00  0.00    +0.000 C 
ATOM     11  C   UNL     1       5.270   6.236  15.734  0.00  0.00    +0.000 C 
ATOM     12  C   UNL     1       4.870   6.717  17.112  0.00  0.00    +0.000 C 
ATOM     13  O   UNL     1       5.255   7.792  17.573  0.00  0.00    +0.000 OA
ENDROOT
BRANCH   1  14
ATOM     14  C   UNL     1       2.365   2.581  18.217  0.00  0.00    +0.000 C 
BRANCH  14  16
ATOM     15  C   UNL     1       4.282   1.812  19.752  0.00  0.00    +0.000 C 
ATOM     16  C   UNL     1       3.353   1.472  18.596  0.00  0.00    +0.000 C 
ENDBRANCH  14  16
ENDBRANCH   1  14
BRANCH   4  17
ATOM     17  C   UNL     1       2.868   7.452  19.518  0.00  0.00    +0.000 C 
BRANCH  17  18
ATOM     18  C   UNL     1       1.880   8.334  18.746  0.00  0.00    +0.000 C 
ATOM     19  O   UNL     1       1.774   8.306  17.521  0.00  0.00    +0.000 OA
ATOM     20  N   UNL     1       1.087   9.136  19.555  0.00  0.00    +0.000 N 
ATOM     21  H   UNL     1       1.553   9.442  20.408  0.00  0.00    +0.000 HD
BRANCH  20  22
ATOM     22  C   UNL     1       0.127  10.071  18.982  0.00  0.00    +0.000 C 
BRANCH  22  23
ATOM     23  C   UNL     1      -0.708  10.739  20.067  0.00  0.00    +0.000 C 
BRANCH  23  24
ATOM     24  C   UNL     1       0.090  10.956  21.333  0.00  0.00    +0.000 C 
ATOM     25  N   UNL     1      -0.516  10.497  22.466  0.00  0.00    +0.000 N 
ATOM     26  O   UNL     1       1.192  11.488  21.386  0.00  0.00    +0.000 OA
ATOM     27  H   UNL     1      -1.415  10.034  22.470  0.00  0.00    +0.000 HD
ATOM     28  H   UNL     1      -0.026  10.619  23.344  0.00  0.00    +0.000 HD
ENDBRANCH  23  24
ENDBRANCH  22  23
ENDBRANCH  20  22
ENDBRANCH  17  18
ENDBRANCH   4  17
TORSDOF 7
ENDMDL
MODEL 6
REMARK VINA RESULT:      -6.9      2.681      5.477
REMARK  Name = 
REMARK  11 active torsions:
REMARK  status: ('A' for Active; 'I' for Inactive)
REMARK    1  A    between atoms: C_1  and  C_2
REMARK    2  A    between atoms: C_2  and  C_3
REMARK    3  A    between atoms: C_3  and  N_4
REMARK    4  A    between atoms: C_5  and  C_6
REMARK    5  A    between atoms: C_7  and  C_8
REMARK    6  A    between atoms: C_8  and  C_9
REMARK    7  A    between atoms: N_11  and  C_12
REMARK    8  A    between atoms: C_12  and  C_13
REMARK    9  A    between atoms: C_13  and  C_14
REMARK   10  A    between atoms: C_20  and  C_21
REMARK   11  A    between atoms: C_20  and  C_22
REMARK                            x       y       z     vdW  Elec       q    Type
REMARK                         _______ _______ _______ _____ _____    ______ ____
ROOT
ATOM      1  N   UNL     1       2.423   5.969  19.837  0.00  0.00    +0.000 N 
ATOM      2  C   UNL     1       3.090   5.742  18.644  0.00  0.00    +0.000 A 
ATOM      3  C   UNL     1       3.717   4.447  18.237  0.00  0.00    +0.000 C 
ATOM      4  C   UNL     1       3.103   6.930  17.917  0.00  0.00    +0.000 A 
ATOM      5  C   UNL     1       2.381   7.879  18.677  0.00  0.00    +0.000 A 
ATOM      6  C   UNL     1       2.008   7.286  19.867  0.00  0.00    +0.000 A 
ATOM      7  C   UNL     1       1.318   7.998  21.005  0.00  0.00    +0.000 C 
ATOM      8  C   UNL     1       0.754   9.386  20.539  0.00  0.00    +0.000 C 
ATOM      9  C   UNL     1       0.511  10.306  21.749  0.00  0.00    +0.000 C 
ATOM     10  C   UNL     1      -0.594   9.193  19.811  0.00  0.00    +0.000 C 
ATOM     11  C   UNL     1       1.757  10.110  19.604  0.00  0.00    +0.000 C 
ATOM     12  C   UNL     1       2.083   9.270  18.387  0.00  0.00    +0.000 C 
ATOM     13  O   UNL     1       2.132   9.744  17.252  0.00  0.00    +0.000 OA
ENDROOT
BRANCH   1  14
ATOM     14  C   UNL     1       2.301   5.021  20.938  0.00  0.00    +0.000 C 
BRANCH  14  16
ATOM     15  C   UNL     1       1.483   2.655  21.534  0.00  0.00    +0.000 C 
ATOM     16  C   UNL     1       1.226   3.942  20.764  0.00  0.00    +0.000 C 
ENDBRANCH  14  16
ENDBRANCH   1  14
BRANCH   4  17
ATOM     17  C   UNL     1       3.757   7.190  16.596  0.00  0.00    +0.000 C 
BRANCH  17  18
ATOM     18  C   UNL     1       5.200   6.679  16.534  0.00  0.00    +0.000 C 
ATOM     19  O   UNL     1       5.516   5.637  15.964  0.00  0.00    +0.000 OA
ATOM     20  N   UNL     1       6.123   7.518  17.142  0.00  0.00    +0.000 N 
ATOM     21  H   UNL     1       5.749   8.023  17.944  0.00  0.00    +0.000 HD
BRANCH  20  22
ATOM     22  C   UNL     1       7.534   7.159  17.217  0.00  0.00    +0.000 C 
BRANCH  22  23
ATOM     23  C   UNL     1       7.920   6.727  18.626  0.00  0.00    +0.000 C 
BRANCH  23  24
ATOM     24  C   UNL     1       7.388   5.350  18.954  0.00  0.00    +0.000 C 
ATOM     25  N   UNL     1       7.672   4.399  18.018  0.00  0.00    +0.000 N 
ATOM     26  O   UNL     1       6.757   5.065  19.963  0.00  0.00    +0.000 OA
ATOM     27  H   UNL     1       8.206   4.584  17.179  0.00  0.00    +0.000 HD
ATOM     28  H   UNL     1       7.337   3.459  18.187  0.00  0.00    +0.000 HD
ENDBRANCH  23  24
ENDBRANCH  22  23
ENDBRANCH  20  22
ENDBRANCH  17  18
ENDBRANCH   4  17
TORSDOF 7
ENDMDL
MODEL 7
REMARK VINA RESULT:      -6.9      3.054      5.853
REMARK  Name = 
REMARK  11 active torsions:
REMARK  status: ('A' for Active; 'I' for Inactive)
REMARK    1  A    between atoms: C_1  and  C_2
REMARK    2  A    between atoms: C_2  and  C_3
REMARK    3  A    between atoms: C_3  and  N_4
REMARK    4  A    between atoms: C_5  and  C_6
REMARK    5  A    between atoms: C_7  and  C_8
REMARK    6  A    between atoms: C_8  and  C_9
REMARK    7  A    between atoms: N_11  and  C_12
REMARK    8  A    between atoms: C_12  and  C_13
REMARK    9  A    between atoms: C_13  and  C_14
REMARK   10  A    between atoms: C_20  and  C_21
REMARK   11  A    between atoms: C_20  and  C_22
REMARK                            x       y       z     vdW  Elec       q    Type
REMARK                         _______ _______ _______ _____ _____    ______ ____
ROOT
ATOM      1  N   UNL     1       5.619   6.462  17.209  0.00  0.00    +0.000 N 
ATOM      2  C   UNL     1       5.779   5.094  17.051  0.00  0.00    +0.000 A 
ATOM      3  C   UNL     1       7.065   4.406  16.722  0.00  0.00    +0.000 C 
ATOM      4  C   UNL     1       4.536   4.487  17.215  0.00  0.00    +0.000 A 
ATOM      5  C   UNL     1       3.619   5.517  17.528  0.00  0.00    +0.000 A 
ATOM      6  C   UNL     1       4.291   6.723  17.478  0.00  0.00    +0.000 A 
ATOM      7  C   UNL     1       3.643   8.077  17.641  0.00  0.00    +0.000 C 
ATOM      8  C   UNL     1       2.194   7.939  18.227  0.00  0.00    +0.000 C 
ATOM      9  C   UNL     1       1.368   9.205  17.932  0.00  0.00    +0.000 C 
ATOM     10  C   UNL     1       2.257   7.760  19.759  0.00  0.00    +0.000 C 
ATOM     11  C   UNL     1       1.446   6.741  17.588  0.00  0.00    +0.000 C 
ATOM     12  C   UNL     1       2.196   5.444  17.803  0.00  0.00    +0.000 C 
ATOM     13  O   UNL     1       1.631   4.403  18.141  0.00  0.00    +0.000 OA
ENDROOT
BRANCH   1  14
ATOM     14  C   UNL     1       6.650   7.470  16.988  0.00  0.00    +0.000 C 
BRANCH  14  16
ATOM     15  C   UNL     1       8.361   8.928  18.239  0.00  0.00    +0.000 C 
ATOM     16  C   UNL     1       7.735   7.552  18.067  0.00  0.00    +0.000 C 
ENDBRANCH  14  16
ENDBRANCH   1  14
BRANCH   4  17
ATOM     17  C   UNL     1       4.199   3.035  17.080  0.00  0.00    +0.000 C 
BRANCH  17  18
ATOM     18  C   UNL     1       3.663   2.425  18.379  0.00  0.00    +0.000 C 
ATOM     19  O   UNL     1       2.834   1.517  18.399  0.00  0.00    +0.000 OA
ATOM     20  N   UNL     1       4.228   2.957  19.529  0.00  0.00    +0.000 N 
ATOM     21  H   UNL     1       4.479   3.941  19.442  0.00  0.00    +0.000 HD
BRANCH  20  22
ATOM     22  C   UNL     1       3.797   2.523  20.852  0.00  0.00    +0.000 C 
BRANCH  22  23
ATOM     23  C   UNL     1       2.753   3.471  21.430  0.00  0.00    +0.000 C 
BRANCH  23  24
ATOM     24  C   UNL     1       1.398   2.810  21.541  0.00  0.00    +0.000 C 
ATOM     25  N   UNL     1       0.624   2.922  20.422  0.00  0.00    +0.000 N 
ATOM     26  O   UNL     1       0.989   2.210  22.526  0.00  0.00    +0.000 OA
ATOM     27  H   UNL     1       0.927   3.391  19.579  0.00  0.00    +0.000 HD
ATOM     28  H   UNL     1      -0.295   2.499  20.443  0.00  0.00    +0.000 HD
ENDBRANCH  23  24
ENDBRANCH  22  23
ENDBRANCH  20  22
ENDBRANCH  17  18
ENDBRANCH   4  17
TORSDOF 7
ENDMDL
MODEL 8
REMARK VINA RESULT:      -6.8      3.572      7.153
REMARK  Name = 
REMARK  11 active torsions:
REMARK  status: ('A' for Active; 'I' for Inactive)
REMARK    1  A    between atoms: C_1  and  C_2
REMARK    2  A    between atoms: C_2  and  C_3
REMARK    3  A    between atoms: C_3  and  N_4
REMARK    4  A    between atoms: C_5  and  C_6
REMARK    5  A    between atoms: C_7  and  C_8
REMARK    6  A    between atoms: C_8  and  C_9
REMARK    7  A    between atoms: N_11  and  C_12
REMARK    8  A    between atoms: C_12  and  C_13
REMARK    9  A    between atoms: C_13  and  C_14
REMARK   10  A    between atoms: C_20  and  C_21
REMARK   11  A    between atoms: C_20  and  C_22
REMARK                            x       y       z     vdW  Elec       q    Type
REMARK                         _______ _______ _______ _____ _____    ______ ____
ROOT
ATOM      1  N   UNL     1       2.881   3.753  18.207  0.00  0.00    +0.000 N 
ATOM      2  C   UNL     1       2.371   4.682  19.099  0.00  0.00    +0.000 A 
ATOM      3  C   UNL     1       1.318   4.407  20.125  0.00  0.00    +0.000 C 
ATOM      4  C   UNL     1       2.979   5.910  18.849  0.00  0.00    +0.000 A 
ATOM      5  C   UNL     1       3.914   5.695  17.810  0.00  0.00    +0.000 A 
ATOM      6  C   UNL     1       3.811   4.380  17.400  0.00  0.00    +0.000 A 
ATOM      7  C   UNL     1       4.559   3.780  16.235  0.00  0.00    +0.000 C 
ATOM      8  C   UNL     1       5.727   4.720  15.774  0.00  0.00    +0.000 C 
ATOM      9  C   UNL     1       6.155   4.386  14.333  0.00  0.00    +0.000 C 
ATOM     10  C   UNL     1       6.955   4.529  16.690  0.00  0.00    +0.000 C 
ATOM     11  C   UNL     1       5.286   6.206  15.790  0.00  0.00    +0.000 C 
ATOM     12  C   UNL     1       4.820   6.629  17.167  0.00  0.00    +0.000 C 
ATOM     13  O   UNL     1       5.152   7.700  17.676  0.00  0.00    +0.000 OA
ENDROOT
BRANCH   1  14
ATOM     14  C   UNL     1       2.416   2.380  18.047  0.00  0.00    +0.000 C 
BRANCH  14  16
ATOM     15  C   UNL     1       4.296   1.777  19.698  0.00  0.00    +0.000 C 
ATOM     16  C   UNL     1       3.344   1.299  18.611  0.00  0.00    +0.000 C 
ENDBRANCH  14  16
ENDBRANCH   1  14
BRANCH   4  17
ATOM     17  C   UNL     1       2.709   7.221  19.518  0.00  0.00    +0.000 C 
BRANCH  17  18
ATOM     18  C   UNL     1       1.944   8.201  18.622  0.00  0.00    +0.000 C 
ATOM     19  O   UNL     1       1.724   7.986  17.432  0.00  0.00    +0.000 OA
ATOM     20  N   UNL     1       1.486   9.332  19.283  0.00  0.00    +0.000 N 
ATOM     21  H   UNL     1       2.096   9.635  20.042  0.00  0.00    +0.000 HD
BRANCH  20  22
ATOM     22  C   UNL     1       0.782  10.390  18.570  0.00  0.00    +0.000 C 
BRANCH  22  23
ATOM     23  C   UNL     1       0.868  11.713  19.320  0.00  0.00    +0.000 C 
BRANCH  23  24
ATOM     24  C   UNL     1       1.629  12.755  18.532  0.00  0.00    +0.000 C 
ATOM     25  N   UNL     1       2.412  12.246  17.536  0.00  0.00    +0.000 N 
ATOM     26  O   UNL     1       1.576  13.961  18.730  0.00  0.00    +0.000 OA
ATOM     27  H   UNL     1       2.473  11.259  17.323  0.00  0.00    +0.000 HD
ATOM     28  H   UNL     1       2.946  12.900  16.978  0.00  0.00    +0.000 HD
ENDBRANCH  23  24
ENDBRANCH  22  23
ENDBRANCH  20  22
ENDBRANCH  17  18
ENDBRANCH   4  17
TORSDOF 7
ENDMDL
MODEL 9
REMARK VINA RESULT:      -6.7      2.074      3.297
REMARK  Name = 
REMARK  11 active torsions:
REMARK  status: ('A' for Active; 'I' for Inactive)
REMARK    1  A    between atoms: C_1  and  C_2
REMARK    2  A    between atoms: C_2  and  C_3
REMARK    3  A    between atoms: C_3  and  N_4
REMARK    4  A    between atoms: C_5  and  C_6
REMARK    5  A    between atoms: C_7  and  C_8
REMARK    6  A    between atoms: C_8  and  C_9
REMARK    7  A    between atoms: N_11  and  C_12
REMARK    8  A    between atoms: C_12  and  C_13
REMARK    9  A    between atoms: C_13  and  C_14
REMARK   10  A    between atoms: C_20  and  C_21
REMARK   11  A    between atoms: C_20  and  C_22
REMARK                            x       y       z     vdW  Elec       q    Type
REMARK                         _______ _______ _______ _____ _____    ______ ____
ROOT
ATOM      1  N   UNL     1       2.912   6.290  18.388  0.00  0.00    +0.000 N 
ATOM      2  C   UNL     1       3.839   6.197  17.363  0.00  0.00    +0.000 A 
ATOM      3  C   UNL     1       4.457   7.357  16.649  0.00  0.00    +0.000 C 
ATOM      4  C   UNL     1       4.063   4.849  17.096  0.00  0.00    +0.000 A 
ATOM      5  C   UNL     1       3.283   4.117  18.020  0.00  0.00    +0.000 A 
ATOM      6  C   UNL     1       2.552   5.014  18.775  0.00  0.00    +0.000 A 
ATOM      7  C   UNL     1       1.511   4.631  19.798  0.00  0.00    +0.000 C 
ATOM      8  C   UNL     1       1.613   3.108  20.160  0.00  0.00    +0.000 C 
ATOM      9  C   UNL     1       0.296   2.610  20.784  0.00  0.00    +0.000 C 
ATOM     10  C   UNL     1       2.741   2.882  21.189  0.00  0.00    +0.000 C 
ATOM     11  C   UNL     1       1.876   2.251  18.895  0.00  0.00    +0.000 C 
ATOM     12  C   UNL     1       3.145   2.682  18.190  0.00  0.00    +0.000 C 
ATOM     13  O   UNL     1       3.968   1.873  17.760  0.00  0.00    +0.000 OA
ENDROOT
BRANCH   1  14
ATOM     14  C   UNL     1       2.307   7.522  18.880  0.00  0.00    +0.000 C 
BRANCH  14  16
ATOM     15  C   UNL     1       1.162   9.760  18.327  0.00  0.00    +0.000 C 
ATOM     16  C   UNL     1       1.702   8.435  17.807  0.00  0.00    +0.000 C 
ENDBRANCH  14  16
ENDBRANCH   1  14
BRANCH   4  17
ATOM     17  C   UNL     1       4.938   4.256  16.036  0.00  0.00    +0.000 C 
BRANCH  17  18
ATOM     18  C   UNL     1       6.432   4.416  16.339  0.00  0.00    +0.000 C 
ATOM     19  O   UNL     1       7.293   4.447  15.462  0.00  0.00    +0.000 OA
ATOM     20  N   UNL     1       6.722   4.567  17.688  0.00  0.00    +0.000 N 
ATOM     21  H   UNL     1       6.084   4.060  18.301  0.00  0.00    +0.000 HD
BRANCH  20  22
ATOM     22  C   UNL     1       8.098   4.683  18.156  0.00  0.00    +0.000 C 
BRANCH  22  23
ATOM     23  C   UNL     1       8.265   5.877  19.087  0.00  0.00    +0.000 C 
BRANCH  23  24
ATOM     24  C   UNL     1       8.178   7.187  18.337  0.00  0.00    +0.000 C 
ATOM     25  N   UNL     1       8.698   8.256  19.009  0.00  0.00    +0.000 N 
ATOM     26  O   UNL     1       7.696   7.326  17.221  0.00  0.00    +0.000 OA
ATOM     27  H   UNL     1       9.123   8.186  19.924  0.00  0.00    +0.000 HD
ATOM     28  H   UNL     1       8.663   9.159  18.553  0.00  0.00    +0.000 HD
ENDBRANCH  23  24
ENDBRANCH  22  23
ENDBRANCH  20  22
ENDBRANCH  17  18
ENDBRANCH   4  17
TORSDOF 7
ENDMDL
