MODEL 1
REMARK VINA RESULT:      -8.9      0.000      0.000
REMARK  Name = 
REMARK  7 active torsions:
REMARK  status: ('A' for Active; 'I' for Inactive)
REMARK    1  A    between atoms: C_1  and  C_2
REMARK    2  A    between atoms: N_3  and  C_4
REMARK    3  A    between atoms: C_4  and  C_5
REMARK    4  A    between atoms: C_4  and  C_11
REMARK    5  A    between atoms: N_22  and  C_23
REMARK    6  A    between atoms: C_23  and  C_24
REMARK    7  A    between atoms: C_24  and  C_26
REMARK                            x       y       z     vdW  Elec       q    Type
REMARK                         _______ _______ _______ _____ _____    ______ ____
ROOT
ATOM      1  C   UNL     1       1.457   7.621  21.509  0.00  0.00    +0.000 C 
ATOM      2  C   UNL     1       1.692   7.972  20.072  0.00  0.00    +0.000 A 
ATOM      3  N   UNL     1       2.434   7.322  19.145  0.00  0.00    +0.000 N 
ATOM      4  C   UNL     1       2.295   7.941  17.911  0.00  0.00    +0.000 A 
ATOM      5  C   UNL     1       1.568   9.068  18.113  0.00  0.00    +0.000 A 
ATOM      6  N   UNL     1       1.217   9.082  19.448  0.00  0.00    +0.000 N 
ENDROOT
BRANCH   3   7
ATOM      7  C   UNL     1       3.265   6.124  19.344  0.00  0.00    +0.000 C 
BRANCH   7   8
ATOM      8  C   UNL     1       4.214   5.907  18.214  0.00  0.00    +0.000 A 
ATOM      9  C   UNL     1       5.531   6.297  18.076  0.00  0.00    +0.000 A 
ATOM     10  C   UNL     1       5.952   5.843  16.814  0.00  0.00    +0.000 A 
ATOM     11  C   UNL     1       7.119   5.933  16.056  0.00  0.00    +0.000 A 
ATOM     12  C   UNL     1       7.424   4.845  15.256  0.00  0.00    +0.000 A 
ATOM     13  C   UNL     1       6.387   4.038  14.798  0.00  0.00    +0.000 A 
ATOM     14  C   UNL     1       5.055   4.257  15.197  0.00  0.00    +0.000 A 
ATOM     15  C   UNL     1       4.915   5.071  16.312  0.00  0.00    +0.000 A 
ATOM     16  O   UNL     1       3.811   5.212  17.103  0.00  0.00    +0.000 OA
ENDBRANCH   7   8
BRANCH   7  17
ATOM     17  C   UNL     1       2.421   4.958  19.831  0.00  0.00    +0.000 A 
ATOM     18  C   UNL     1       1.419   4.347  19.063  0.00  0.00    +0.000 A 
ATOM     19  C   UNL     1       0.698   3.261  19.565  0.00  0.00    +0.000 A 
ATOM     20  C   UNL     1       0.967   2.756  20.835  0.00  0.00    +0.000 A 
ATOM     21  C   UNL     1       1.969   3.339  21.610  0.00  0.00    +0.000 A 
ATOM     22  C   UNL     1       2.677   4.433  21.112  0.00  0.00    +0.000 A 
ENDBRANCH   7  17
ENDBRANCH   3   7
BRANCH   6  23
ATOM     23  C   UNL     1       0.359  10.112  20.076  0.00  0.00    +0.000 C 
BRANCH  23  24
ATOM     24  C   UNL     1      -0.143  11.125  19.057  0.00  0.00    +0.000 C 
ATOM     25  O   UNL     1       0.610  11.934  18.511  0.00  0.00    +0.000 OA
BRANCH  24  26
ATOM     26  C   UNL     1      -1.602  11.140  18.733  0.00  0.00    +0.000 A 
ATOM     27  C   UNL     1      -2.406  12.119  19.386  0.00  0.00    +0.000 A 
ATOM     28  C   UNL     1      -3.774  12.138  19.157  0.00  0.00    +0.000 A 
ATOM     29  C   UNL     1      -4.363  11.232  18.288  0.00  0.00    +0.000 A 
ATOM     30 BR   UNL     1      -6.223  11.301  17.973  0.00  0.00    +0.000 Br
ATOM     31  C   UNL     1      -3.583  10.272  17.647  0.00  0.00    +0.000 A 
ATOM     32  C   UNL     1      -2.203  10.233  17.864  0.00  0.00    +0.000 A 
ENDBRANCH  24  26
ENDBRANCH  23  24
ENDBRANCH   6  23
TORSDOF 6
ENDMDL
MODEL 2
REMARK VINA RESULT:      -8.9      0.800      1.224
REMARK  Name = 
REMARK  7 active torsions:
REMARK  status: ('A' for Active; 'I' for Inactive)
REMARK    1  A    between atoms: C_1  and  C_2
REMARK    2  A    between atoms: N_3  and  C_4
REMARK    3  A    between atoms: C_4  and  C_5
REMARK    4  A    between atoms: C_4  and  C_11
REMARK    5  A    between atoms: N_22  and  C_23
REMARK    6  A    between atoms: C_23  and  C_24
REMARK    7  A    between atoms: C_24  and  C_26
REMARK                            x       y       z     vdW  Elec       q    Type
REMARK                         _______ _______ _______ _____ _____    ______ ____
ROOT
ATOM      1  C   UNL     1       1.628   7.099  21.290  0.00  0.00    +0.000 C 
ATOM      2  C   UNL     1       2.039   7.489  19.904  0.00  0.00    +0.000 A 
ATOM      3  N   UNL     1       2.821   6.818  19.025  0.00  0.00    +0.000 N 
ATOM      4  C   UNL     1       2.862   7.497  17.816  0.00  0.00    +0.000 A 
ATOM      5  C   UNL     1       2.208   8.672  17.999  0.00  0.00    +0.000 A 
ATOM      6  N   UNL     1       1.721   8.659  19.291  0.00  0.00    +0.000 N 
ENDROOT
BRANCH   3   7
ATOM      7  C   UNL     1       3.530   5.548  19.247  0.00  0.00    +0.000 C 
BRANCH   7   8
ATOM      8  C   UNL     1       4.359   5.156  18.070  0.00  0.00    +0.000 A 
ATOM      9  C   UNL     1       4.044   4.348  16.996  0.00  0.00    +0.000 A 
ATOM     10  C   UNL     1       5.189   4.305  16.181  0.00  0.00    +0.000 A 
ATOM     11  C   UNL     1       5.553   3.659  14.999  0.00  0.00    +0.000 A 
ATOM     12  C   UNL     1       6.399   4.350  14.149  0.00  0.00    +0.000 A 
ATOM     13  C   UNL     1       7.263   5.298  14.690  0.00  0.00    +0.000 A 
ATOM     14  C   UNL     1       7.235   5.622  16.059  0.00  0.00    +0.000 A 
ATOM     15  C   UNL     1       6.089   5.209  16.724  0.00  0.00    +0.000 A 
ATOM     16  O   UNL     1       5.637   5.633  17.942  0.00  0.00    +0.000 OA
ENDBRANCH   7   8
BRANCH   7  17
ATOM     17  C   UNL     1       2.606   4.517  19.872  0.00  0.00    +0.000 A 
ATOM     18  C   UNL     1       1.417   4.072  19.274  0.00  0.00    +0.000 A 
ATOM     19  C   UNL     1       0.627   3.102  19.894  0.00  0.00    +0.000 A 
ATOM     20  C   UNL     1       1.008   2.549  21.114  0.00  0.00    +0.000 A 
ATOM     21  C   UNL     1       2.193   2.966  21.720  0.00  0.00    +0.000 A 
ATOM     22  C   UNL     1       2.973   3.946  21.106  0.00  0.00    +0.000 A 
ENDBRANCH   7  17
ENDBRANCH   3   7
BRANCH   6  23
ATOM     23  C   UNL     1       0.885   9.729  19.880  0.00  0.00    +0.000 C 
BRANCH  23  24
ATOM     24  C   UNL     1       0.496  10.775  18.843  0.00  0.00    +0.000 C 
ATOM     25  O   UNL     1       1.327  11.517  18.317  0.00  0.00    +0.000 OA
BRANCH  24  26
ATOM     26  C   UNL     1      -0.947  10.905  18.476  0.00  0.00    +0.000 A 
ATOM     27  C   UNL     1      -1.711  11.889  19.168  0.00  0.00    +0.000 A 
ATOM     28  C   UNL     1      -3.066  12.011  18.898  0.00  0.00    +0.000 A 
ATOM     29  C   UNL     1      -3.679  11.203  17.953  0.00  0.00    +0.000 A 
ATOM     30 BR   UNL     1      -5.519  11.412  17.587  0.00  0.00    +0.000 Br
ATOM     31  C   UNL     1      -2.939  10.238  17.274  0.00  0.00    +0.000 A 
ATOM     32  C   UNL     1      -1.573  10.096  17.531  0.00  0.00    +0.000 A 
ENDBRANCH  24  26
ENDBRANCH  23  24
ENDBRANCH   6  23
TORSDOF 6
ENDMDL
MODEL 3
REMARK VINA RESULT:      -8.7      2.620      3.332
REMARK  Name = 
REMARK  7 active torsions:
REMARK  status: ('A' for Active; 'I' for Inactive)
REMARK    1  A    between atoms: C_1  and  C_2
REMARK    2  A    between atoms: N_3  and  C_4
REMARK    3  A    between atoms: C_4  and  C_5
REMARK    4  A    between atoms: C_4  and  C_11
REMARK    5  A    between atoms: N_22  and  C_23
REMARK    6  A    between atoms: C_23  and  C_24
REMARK    7  A    between atoms: C_24  and  C_26
REMARK                            x       y       z     vdW  Elec       q    Type
REMARK                         _______ _______ _______ _____ _____    ______ ____
ROOT
ATOM      1  C   UNL     1       1.254   7.648  21.323  0.00  0.00    +0.000 C 
ATOM      2  C   UNL     1       1.602   8.016  19.913  0.00  0.00    +0.000 A 
ATOM      3  N   UNL     1       2.437   7.393  19.050  0.00  0.00    +0.000 N 
ATOM      4  C   UNL     1       2.389   8.018  17.812  0.00  0.00    +0.000 A 
ATOM      5  C   UNL     1       1.618   9.126  17.957  0.00  0.00    +0.000 A 
ATOM      6  N   UNL     1       1.154   9.119  19.257  0.00  0.00    +0.000 N 
ENDROOT
BRANCH   3   7
ATOM      7  C   UNL     1       3.279   6.214  19.312  0.00  0.00    +0.000 C 
BRANCH   7   8
ATOM      8  C   UNL     1       4.254   5.966  18.210  0.00  0.00    +0.000 A 
ATOM      9  C   UNL     1       5.598   6.272  18.132  0.00  0.00    +0.000 A 
ATOM     10  C   UNL     1       6.035   5.827  16.872  0.00  0.00    +0.000 A 
ATOM     11  C   UNL     1       7.234   5.860  16.159  0.00  0.00    +0.000 A 
ATOM     12  C   UNL     1       7.498   4.777  15.339  0.00  0.00    +0.000 A 
ATOM     13  C   UNL     1       6.428   4.054  14.819  0.00  0.00    +0.000 A 
ATOM     14  C   UNL     1       5.099   4.349  15.177  0.00  0.00    +0.000 A 
ATOM     15  C   UNL     1       4.970   5.139  16.310  0.00  0.00    +0.000 A 
ATOM     16  O   UNL     1       3.848   5.331  17.065  0.00  0.00    +0.000 OA
ENDBRANCH   7   8
BRANCH   7  17
ATOM     17  C   UNL     1       2.439   5.057  19.826  0.00  0.00    +0.000 A 
ATOM     18  C   UNL     1       1.406   4.457  19.092  0.00  0.00    +0.000 A 
ATOM     19  C   UNL     1       0.691   3.379  19.617  0.00  0.00    +0.000 A 
ATOM     20  C   UNL     1       0.996   2.870  20.877  0.00  0.00    +0.000 A 
ATOM     21  C   UNL     1       2.030   3.442  21.618  0.00  0.00    +0.000 A 
ATOM     22  C   UNL     1       2.732   4.529  21.098  0.00  0.00    +0.000 A 
ENDBRANCH   7  17
ENDBRANCH   3   7
BRANCH   6  23
ATOM     23  C   UNL     1       0.219  10.122  19.816  0.00  0.00    +0.000 C 
BRANCH  23  24
ATOM     24  C   UNL     1       0.941  11.139  20.690  0.00  0.00    +0.000 C 
ATOM     25  O   UNL     1       1.029  11.009  21.912  0.00  0.00    +0.000 OA
BRANCH  24  26
ATOM     26  C   UNL     1       1.540  12.340  20.030  0.00  0.00    +0.000 A 
ATOM     27  C   UNL     1       1.203  12.571  18.665  0.00  0.00    +0.000 A 
ATOM     28  C   UNL     1       1.776  13.643  17.997  0.00  0.00    +0.000 A 
ATOM     29  C   UNL     1       2.654  14.499  18.644  0.00  0.00    +0.000 A 
ATOM     30 BR   UNL     1       3.395  15.966  17.715  0.00  0.00    +0.000 Br
ATOM     31  C   UNL     1       2.990  14.277  19.977  0.00  0.00    +0.000 A 
ATOM     32  C   UNL     1       2.426  13.203  20.670  0.00  0.00    +0.000 A 
ENDBRANCH  24  26
ENDBRANCH  23  24
ENDBRANCH   6  23
TORSDOF 6
ENDMDL
MODEL 4
REMARK VINA RESULT:      -8.6      2.291      2.915
REMARK  Name = 
REMARK  7 active torsions:
REMARK  status: ('A' for Active; 'I' for Inactive)
REMARK    1  A    between atoms: C_1  and  C_2
REMARK    2  A    between atoms: N_3  and  C_4
REMARK    3  A    between atoms: C_4  and  C_5
REMARK    4  A    between atoms: C_4  and  C_11
REMARK    5  A    between atoms: N_22  and  C_23
REMARK    6  A    between atoms: C_23  and  C_24
REMARK    7  A    between atoms: C_24  and  C_26
REMARK                            x       y       z     vdW  Elec       q    Type
REMARK                         _______ _______ _______ _____ _____    ______ ____
ROOT
ATOM      1  C   UNL     1       1.412   7.709  21.382  0.00  0.00    +0.000 C 
ATOM      2  C   UNL     1       1.684   8.028  19.944  0.00  0.00    +0.000 A 
ATOM      3  N   UNL     1       2.457   7.363  19.054  0.00  0.00    +0.000 N 
ATOM      4  C   UNL     1       2.348   7.952  17.802  0.00  0.00    +0.000 A 
ATOM      5  C   UNL     1       1.606   9.077  17.957  0.00  0.00    +0.000 A 
ATOM      6  N   UNL     1       1.218   9.119  19.281  0.00  0.00    +0.000 N 
ENDROOT
BRANCH   3   7
ATOM      7  C   UNL     1       3.291   6.177  19.304  0.00  0.00    +0.000 C 
BRANCH   7   8
ATOM      8  C   UNL     1       4.266   5.935  18.200  0.00  0.00    +0.000 A 
ATOM      9  C   UNL     1       5.605   6.261  18.114  0.00  0.00    +0.000 A 
ATOM     10  C   UNL     1       6.044   5.812  16.856  0.00  0.00    +0.000 A 
ATOM     11  C   UNL     1       7.239   5.859  16.139  0.00  0.00    +0.000 A 
ATOM     12  C   UNL     1       7.517   4.774  15.326  0.00  0.00    +0.000 A 
ATOM     13  C   UNL     1       6.457   4.029  14.817  0.00  0.00    +0.000 A 
ATOM     14  C   UNL     1       5.125   4.307  15.177  0.00  0.00    +0.000 A 
ATOM     15  C   UNL     1       4.988   5.103  16.304  0.00  0.00    +0.000 A 
ATOM     16  O   UNL     1       3.866   5.284  17.062  0.00  0.00    +0.000 OA
ENDBRANCH   7   8
BRANCH   7  17
ATOM     17  C   UNL     1       2.445   5.019  19.805  0.00  0.00    +0.000 A 
ATOM     18  C   UNL     1       1.435   4.408  19.048  0.00  0.00    +0.000 A 
ATOM     19  C   UNL     1       0.711   3.329  19.563  0.00  0.00    +0.000 A 
ATOM     20  C   UNL     1       0.986   2.832  20.834  0.00  0.00    +0.000 A 
ATOM     21  C   UNL     1       1.997   3.416  21.599  0.00  0.00    +0.000 A 
ATOM     22  C   UNL     1       2.706   4.502  21.088  0.00  0.00    +0.000 A 
ENDBRANCH   7  17
ENDBRANCH   3   7
BRANCH   6  23
ATOM     23  C   UNL     1       0.335  10.156  19.861  0.00  0.00    +0.000 C 
BRANCH  23  24
ATOM     24  C   UNL     1      -0.200  11.101  18.794  0.00  0.00    +0.000 C 
ATOM     25  O   UNL     1      -1.038  10.745  17.962  0.00  0.00    +0.000 OA
BRANCH  24  26
ATOM     26  C   UNL     1       0.331  12.498  18.754  0.00  0.00    +0.000 A 
ATOM     27  C   UNL     1       1.740  12.657  18.609  0.00  0.00    +0.000 A 
ATOM     28  C   UNL     1       2.284  13.932  18.620  0.00  0.00    +0.000 A 
ATOM     29  C   UNL     1       1.475  15.051  18.750  0.00  0.00    +0.000 A 
ATOM     30 BR   UNL     1       2.242  16.776  18.732  0.00  0.00    +0.000 Br
ATOM     31  C   UNL     1       0.098  14.903  18.894  0.00  0.00    +0.000 A 
ATOM     32  C   UNL     1      -0.473  13.627  18.887  0.00  0.00    +0.000 A 
ENDBRANCH  24  26
ENDBRANCH  23  24
ENDBRANCH   6  23
TORSDOF 6
ENDMDL
MODEL 5
REMARK VINA RESULT:      -8.6      0.861      1.749
REMARK  Name = 
REMARK  7 active torsions:
REMARK  status: ('A' for Active; 'I' for Inactive)
REMARK    1  A    between atoms: C_1  and  C_2
REMARK    2  A    between atoms: N_3  and  C_4
REMARK    3  A    between atoms: C_4  and  C_5
REMARK    4  A    between atoms: C_4  and  C_11
REMARK    5  A    between atoms: N_22  and  C_23
REMARK    6  A    between atoms: C_23  and  C_24
REMARK    7  A    between atoms: C_24  and  C_26
REMARK                            x       y       z     vdW  Elec       q    Type
REMARK                         _______ _______ _______ _____ _____    ______ ____
ROOT
ATOM      1  C   UNL     1       1.750   7.015  21.293  0.00  0.00    +0.000 C 
ATOM      2  C   UNL     1       2.111   7.393  19.889  0.00  0.00    +0.000 A 
ATOM      3  N   UNL     1       2.877   6.724  18.996  0.00  0.00    +0.000 N 
ATOM      4  C   UNL     1       2.868   7.387  17.777  0.00  0.00    +0.000 A 
ATOM      5  C   UNL     1       2.199   8.553  17.965  0.00  0.00    +0.000 A 
ATOM      6  N   UNL     1       1.753   8.549  19.271  0.00  0.00    +0.000 N 
ENDROOT
BRANCH   3   7
ATOM      7  C   UNL     1       3.615   5.469  19.213  0.00  0.00    +0.000 C 
BRANCH   7   8
ATOM      8  C   UNL     1       4.422   5.081  18.019  0.00  0.00    +0.000 A 
ATOM      9  C   UNL     1       4.099   4.251  16.965  0.00  0.00    +0.000 A 
ATOM     10  C   UNL     1       5.223   4.224  16.120  0.00  0.00    +0.000 A 
ATOM     11  C   UNL     1       5.572   3.571  14.938  0.00  0.00    +0.000 A 
ATOM     12  C   UNL     1       6.378   4.271  14.057  0.00  0.00    +0.000 A 
ATOM     13  C   UNL     1       7.232   5.247  14.562  0.00  0.00    +0.000 A 
ATOM     14  C   UNL     1       7.232   5.589  15.927  0.00  0.00    +0.000 A 
ATOM     15  C   UNL     1       6.114   5.158  16.627  0.00  0.00    +0.000 A 
ATOM     16  O   UNL     1       5.684   5.587  17.851  0.00  0.00    +0.000 OA
ENDBRANCH   7   8
BRANCH   7  17
ATOM     17  C   UNL     1       2.725   4.428  19.869  0.00  0.00    +0.000 A 
ATOM     18  C   UNL     1       3.001   3.839  21.112  0.00  0.00    +0.000 A 
ATOM     19  C   UNL     1       2.124   2.906  21.670  0.00  0.00    +0.000 A 
ATOM     20  C   UNL     1       0.952   2.549  21.008  0.00  0.00    +0.000 A 
ATOM     21  C   UNL     1       0.650   3.133  19.777  0.00  0.00    +0.000 A 
ATOM     22  C   UNL     1       1.535   4.053  19.216  0.00  0.00    +0.000 A 
ENDBRANCH   7  17
ENDBRANCH   3   7
BRANCH   6  23
ATOM     23  C   UNL     1       0.917   9.613  19.872  0.00  0.00    +0.000 C 
BRANCH  23  24
ATOM     24  C   UNL     1       0.534  10.673  18.849  0.00  0.00    +0.000 C 
ATOM     25  O   UNL     1       1.377  11.359  18.268  0.00  0.00    +0.000 OA
BRANCH  24  26
ATOM     26  C   UNL     1      -0.918  10.889  18.563  0.00  0.00    +0.000 A 
ATOM     27  C   UNL     1      -1.503  10.107  17.526  0.00  0.00    +0.000 A 
ATOM     28  C   UNL     1      -2.834  10.310  17.190  0.00  0.00    +0.000 A 
ATOM     29  C   UNL     1      -3.603  11.248  17.862  0.00  0.00    +0.000 A 
ATOM     30 BR   UNL     1      -5.419  11.482  17.402  0.00  0.00    +0.000 Br
ATOM     31  C   UNL     1      -3.036  12.018  18.876  0.00  0.00    +0.000 A 
ATOM     32  C   UNL     1      -1.697  11.831  19.230  0.00  0.00    +0.000 A 
ENDBRANCH  24  26
ENDBRANCH  23  24
ENDBRANCH   6  23
TORSDOF 6
ENDMDL
MODEL 6
REMARK VINA RESULT:      -8.6      3.330      8.892
REMARK  Name = 
REMARK  7 active torsions:
REMARK  status: ('A' for Active; 'I' for Inactive)
REMARK    1  A    between atoms: C_1  and  C_2
REMARK    2  A    between atoms: N_3  and  C_4
REMARK    3  A    between atoms: C_4  and  C_5
REMARK    4  A    between atoms: C_4  and  C_11
REMARK    5  A    between atoms: N_22  and  C_23
REMARK    6  A    between atoms: C_23  and  C_24
REMARK    7  A    between atoms: C_24  and  C_26
REMARK                            x       y       z     vdW  Elec       q    Type
REMARK                         _______ _______ _______ _____ _____    ______ ____
ROOT
ATOM      1  C   UNL     1       0.671   8.667  22.019  0.00  0.00    +0.000 C 
ATOM      2  C   UNL     1       1.178   8.654  20.610  0.00  0.00    +0.000 A 
ATOM      3  N   UNL     1       1.060   9.603  19.651  0.00  0.00    +0.000 N 
ATOM      4  C   UNL     1       1.765   9.221  18.519  0.00  0.00    +0.000 A 
ATOM      5  C   UNL     1       2.207   7.956  18.736  0.00  0.00    +0.000 A 
ATOM      6  N   UNL     1       1.826   7.616  20.018  0.00  0.00    +0.000 N 
ENDROOT
BRANCH   3   7
ATOM      7  C   UNL     1       0.329  10.878  19.739  0.00  0.00    +0.000 C 
BRANCH   7   8
ATOM      8  C   UNL     1      -0.922  10.864  18.928  0.00  0.00    +0.000 A 
ATOM      9  C   UNL     1      -2.083  11.595  19.078  0.00  0.00    +0.000 A 
ATOM     10  C   UNL     1      -2.949  11.186  18.049  0.00  0.00    +0.000 A 
ATOM     11  C   UNL     1      -4.254  11.486  17.660  0.00  0.00    +0.000 A 
ATOM     12  C   UNL     1      -4.515  11.471  16.301  0.00  0.00    +0.000 A 
ATOM     13  C   UNL     1      -3.740  10.658  15.478  0.00  0.00    +0.000 A 
ATOM     14  C   UNL     1      -2.653   9.923  15.987  0.00  0.00    +0.000 A 
ATOM     15  C   UNL     1      -2.213  10.336  17.236  0.00  0.00    +0.000 A 
ATOM     16  O   UNL     1      -1.024  10.039  17.838  0.00  0.00    +0.000 OA
ENDBRANCH   7   8
BRANCH   7  17
ATOM     17  C   UNL     1       1.281  12.054  19.603  0.00  0.00    +0.000 A 
ATOM     18  C   UNL     1       1.873  12.708  20.694  0.00  0.00    +0.000 A 
ATOM     19  C   UNL     1       2.760  13.768  20.494  0.00  0.00    +0.000 A 
ATOM     20  C   UNL     1       3.085  14.190  19.207  0.00  0.00    +0.000 A 
ATOM     21  C   UNL     1       2.520  13.544  18.107  0.00  0.00    +0.000 A 
ATOM     22  C   UNL     1       1.622  12.496  18.310  0.00  0.00    +0.000 A 
ENDBRANCH   7  17
ENDBRANCH   3   7
BRANCH   6  23
ATOM     23  C   UNL     1       2.170   6.338  20.681  0.00  0.00    +0.000 C 
BRANCH  23  24
ATOM     24  C   UNL     1       2.130   5.170  19.706  0.00  0.00    +0.000 C 
ATOM     25  O   UNL     1       1.167   4.403  19.640  0.00  0.00    +0.000 OA
BRANCH  24  26
ATOM     26  C   UNL     1       3.313   4.947  18.819  0.00  0.00    +0.000 A 
ATOM     27  C   UNL     1       4.593   5.297  19.338  0.00  0.00    +0.000 A 
ATOM     28  C   UNL     1       5.713   5.157  18.532  0.00  0.00    +0.000 A 
ATOM     29  C   UNL     1       5.605   4.666  17.240  0.00  0.00    +0.000 A 
ATOM     30 BR   UNL     1       7.152   4.460  16.178  0.00  0.00    +0.000 Br
ATOM     31  C   UNL     1       4.356   4.324  16.726  0.00  0.00    +0.000 A 
ATOM     32  C   UNL     1       3.213   4.458  17.519  0.00  0.00    +0.000 A 
ENDBRANCH  24  26
ENDBRANCH  23  24
ENDBRANCH   6  23
TORSDOF 6
ENDMDL
MODEL 7
REMARK VINA RESULT:      -8.6      2.479      3.157
REMARK  Name = 
REMARK  7 active torsions:
REMARK  status: ('A' for Active; 'I' for Inactive)
REMARK    1  A    between atoms: C_1  and  C_2
REMARK    2  A    between atoms: N_3  and  C_4
REMARK    3  A    between atoms: C_4  and  C_5
REMARK    4  A    between atoms: C_4  and  C_11
REMARK    5  A    between atoms: N_22  and  C_23
REMARK    6  A    between atoms: C_23  and  C_24
REMARK    7  A    between atoms: C_24  and  C_26
REMARK                            x       y       z     vdW  Elec       q    Type
REMARK                         _______ _______ _______ _____ _____    ______ ____
ROOT
ATOM      1  C   UNL     1       1.570   7.254  21.292  0.00  0.00    +0.000 C 
ATOM      2  C   UNL     1       1.972   7.604  19.892  0.00  0.00    +0.000 A 
ATOM      3  N   UNL     1       2.756   6.914  19.031  0.00  0.00    +0.000 N 
ATOM      4  C   UNL     1       2.785   7.555  17.801  0.00  0.00    +0.000 A 
ATOM      5  C   UNL     1       2.122   8.729  17.951  0.00  0.00    +0.000 A 
ATOM      6  N   UNL     1       1.641   8.752  19.244  0.00  0.00    +0.000 N 
ENDROOT
BRANCH   3   7
ATOM      7  C   UNL     1       3.478   5.657  19.289  0.00  0.00    +0.000 C 
BRANCH   7   8
ATOM      8  C   UNL     1       4.328   5.252  18.132  0.00  0.00    +0.000 A 
ATOM      9  C   UNL     1       4.051   4.393  17.088  0.00  0.00    +0.000 A 
ATOM     10  C   UNL     1       5.202   4.362  16.281  0.00  0.00    +0.000 A 
ATOM     11  C   UNL     1       5.597   3.686  15.127  0.00  0.00    +0.000 A 
ATOM     12  C   UNL     1       6.423   4.376  14.256  0.00  0.00    +0.000 A 
ATOM     13  C   UNL     1       7.248   5.374  14.765  0.00  0.00    +0.000 A 
ATOM     14  C   UNL     1       7.198   5.748  16.121  0.00  0.00    +0.000 A 
ATOM     15  C   UNL     1       6.064   5.319  16.794  0.00  0.00    +0.000 A 
ATOM     16  O   UNL     1       5.589   5.771  17.993  0.00  0.00    +0.000 OA
ENDBRANCH   7   8
BRANCH   7  17
ATOM     17  C   UNL     1       2.556   4.628  19.921  0.00  0.00    +0.000 A 
ATOM     18  C   UNL     1       1.399   4.133  19.302  0.00  0.00    +0.000 A 
ATOM     19  C   UNL     1       0.611   3.167  19.932  0.00  0.00    +0.000 A 
ATOM     20  C   UNL     1       0.964   2.667  21.182  0.00  0.00    +0.000 A 
ATOM     21  C   UNL     1       2.119   3.134  21.810  0.00  0.00    +0.000 A 
ATOM     22  C   UNL     1       2.896   4.110  21.186  0.00  0.00    +0.000 A 
ENDBRANCH   7  17
ENDBRANCH   3   7
BRANCH   6  23
ATOM     23  C   UNL     1       0.797   9.833  19.804  0.00  0.00    +0.000 C 
BRANCH  23  24
ATOM     24  C   UNL     1       0.326  10.796  18.723  0.00  0.00    +0.000 C 
ATOM     25  O   UNL     1      -0.521  10.478  17.885  0.00  0.00    +0.000 OA
BRANCH  24  26
ATOM     26  C   UNL     1       0.933  12.162  18.677  0.00  0.00    +0.000 A 
ATOM     27  C   UNL     1       0.070  13.268  18.926  0.00  0.00    +0.000 A 
ATOM     28  C   UNL     1       0.577  14.556  18.842  0.00  0.00    +0.000 A 
ATOM     29  C   UNL     1       1.912  14.779  18.541  0.00  0.00    +0.000 A 
ATOM     30 BR   UNL     1       2.580  16.543  18.463  0.00  0.00    +0.000 Br
ATOM     31  C   UNL     1       2.761  13.702  18.295  0.00  0.00    +0.000 A 
ATOM     32  C   UNL     1       2.272  12.395  18.371  0.00  0.00    +0.000 A 
ENDBRANCH  24  26
ENDBRANCH  23  24
ENDBRANCH   6  23
TORSDOF 6
ENDMDL
MODEL 8
REMARK VINA RESULT:      -8.5      3.260      8.947
REMARK  Name = 
REMARK  7 active torsions:
REMARK  status: ('A' for Active; 'I' for Inactive)
REMARK    1  A    between atoms: C_1  and  C_2
REMARK    2  A    between atoms: N_3  and  C_4
REMARK    3  A    between atoms: C_4  and  C_5
REMARK    4  A    between atoms: C_4  and  C_11
REMARK    5  A    between atoms: N_22  and  C_23
REMARK    6  A    between atoms: C_23  and  C_24
REMARK    7  A    between atoms: C_24  and  C_26
REMARK                            x       y       z     vdW  Elec       q    Type
REMARK                         _______ _______ _______ _____ _____    ______ ____
ROOT
ATOM      1  C   UNL     1       1.136   7.833  21.018  0.00  0.00    +0.000 C 
ATOM      2  C   UNL     1       1.623   8.216  19.654  0.00  0.00    +0.000 A 
ATOM      3  N   UNL     1       1.454   9.379  18.983  0.00  0.00    +0.000 N 
ATOM      4  C   UNL     1       2.157   9.340  17.787  0.00  0.00    +0.000 A 
ATOM      5  C   UNL     1       2.650   8.083  17.658  0.00  0.00    +0.000 A 
ATOM      6  N   UNL     1       2.301   7.399  18.805  0.00  0.00    +0.000 N 
ENDROOT
BRANCH   3   7
ATOM      7  C   UNL     1       0.676  10.554  19.409  0.00  0.00    +0.000 C 
BRANCH   7   8
ATOM      8  C   UNL     1      -0.658  10.613  18.745  0.00  0.00    +0.000 A 
ATOM      9  C   UNL     1      -1.779  11.349  19.074  0.00  0.00    +0.000 A 
ATOM     10  C   UNL     1      -2.762  11.024  18.123  0.00  0.00    +0.000 A 
ATOM     11  C   UNL     1      -4.096  11.369  17.905  0.00  0.00    +0.000 A 
ATOM     12  C   UNL     1      -4.507  11.453  16.586  0.00  0.00    +0.000 A 
ATOM     13  C   UNL     1      -3.846  10.689  15.628  0.00  0.00    +0.000 A 
ATOM     14  C   UNL     1      -2.726   9.905  15.960  0.00  0.00    +0.000 A 
ATOM     15  C   UNL     1      -2.141  10.223  17.177  0.00  0.00    +0.000 A 
ATOM     16  O   UNL     1      -0.898   9.868  17.620  0.00  0.00    +0.000 OA
ENDBRANCH   7   8
BRANCH   7  17
ATOM     17  C   UNL     1       1.547  11.798  19.425  0.00  0.00    +0.000 A 
ATOM     18  C   UNL     1       2.161  12.335  18.284  0.00  0.00    +0.000 A 
ATOM     19  C   UNL     1       2.929  13.499  18.367  0.00  0.00    +0.000 A 
ATOM     20  C   UNL     1       3.091  14.157  19.584  0.00  0.00    +0.000 A 
ATOM     21  C   UNL     1       2.477  13.649  20.729  0.00  0.00    +0.000 A 
ATOM     22  C   UNL     1       1.724  12.479  20.646  0.00  0.00    +0.000 A 
ENDBRANCH   7  17
ENDBRANCH   3   7
BRANCH   6  23
ATOM     23  C   UNL     1       2.703   6.006  19.103  0.00  0.00    +0.000 C 
BRANCH  23  24
ATOM     24  C   UNL     1       4.190   5.785  18.862  0.00  0.00    +0.000 C 
ATOM     25  O   UNL     1       5.031   5.953  19.747  0.00  0.00    +0.000 OA
BRANCH  24  26
ATOM     26  C   UNL     1       4.631   5.370  17.495  0.00  0.00    +0.000 A 
ATOM     27  C   UNL     1       4.614   3.976  17.199  0.00  0.00    +0.000 A 
ATOM     28  C   UNL     1       5.064   3.539  15.962  0.00  0.00    +0.000 A 
ATOM     29  C   UNL     1       5.510   4.440  15.007  0.00  0.00    +0.000 A 
ATOM     30 BR   UNL     1       6.090   3.817  13.322  0.00  0.00    +0.000 Br
ATOM     31  C   UNL     1       5.532   5.804  15.290  0.00  0.00    +0.000 A 
ATOM     32  C   UNL     1       5.084   6.267  16.531  0.00  0.00    +0.000 A 
ENDBRANCH  24  26
ENDBRANCH  23  24
ENDBRANCH   6  23
TORSDOF 6
ENDMDL
MODEL 9
REMARK VINA RESULT:      -8.5      3.591      8.191
REMARK  Name = 
REMARK  7 active torsions:
REMARK  status: ('A' for Active; 'I' for Inactive)
REMARK    1  A    between atoms: C_1  and  C_2
REMARK    2  A    between atoms: N_3  and  C_4
REMARK    3  A    between atoms: C_4  and  C_5
REMARK    4  A    between atoms: C_4  and  C_11
REMARK    5  A    between atoms: N_22  and  C_23
REMARK    6  A    between atoms: C_23  and  C_24
REMARK    7  A    between atoms: C_24  and  C_26
REMARK                            x       y       z     vdW  Elec       q    Type
REMARK                         _______ _______ _______ _____ _____    ______ ____
ROOT
ATOM      1  C   UNL     1       4.803   5.226  19.671  0.00  0.00    +0.000 C 
ATOM      2  C   UNL     1       4.833   6.108  18.461  0.00  0.00    +0.000 A 
ATOM      3  N   UNL     1       3.804   6.696  17.808  0.00  0.00    +0.000 N 
ATOM      4  C   UNL     1       4.291   7.510  16.795  0.00  0.00    +0.000 A 
ATOM      5  C   UNL     1       5.632   7.310  16.737  0.00  0.00    +0.000 A 
ATOM      6  N   UNL     1       5.948   6.435  17.756  0.00  0.00    +0.000 N 
ENDROOT
BRANCH   3   7
ATOM      7  C   UNL     1       2.367   6.555  18.091  0.00  0.00    +0.000 C 
BRANCH   7   8
ATOM      8  C   UNL     1       1.861   7.645  18.975  0.00  0.00    +0.000 A 
ATOM      9  C   UNL     1       1.274   8.851  18.647  0.00  0.00    +0.000 A 
ATOM     10  C   UNL     1       0.996   9.503  19.861  0.00  0.00    +0.000 A 
ATOM     11  C   UNL     1       0.460  10.735  20.236  0.00  0.00    +0.000 A 
ATOM     12  C   UNL     1      -0.296  10.756  21.395  0.00  0.00    +0.000 A 
ATOM     13  C   UNL     1      -0.035   9.809  22.382  0.00  0.00    +0.000 A 
ATOM     14  C   UNL     1       0.917   8.791  22.189  0.00  0.00    +0.000 A 
ATOM     15  C   UNL     1       1.291   8.596  20.867  0.00  0.00    +0.000 A 
ATOM     16  O   UNL     1       1.935   7.514  20.338  0.00  0.00    +0.000 OA
ENDBRANCH   7   8
BRANCH   7  17
ATOM     17  C   UNL     1       2.024   5.115  18.430  0.00  0.00    +0.000 A 
ATOM     18  C   UNL     1       2.236   4.038  17.557  0.00  0.00    +0.000 A 
ATOM     19  C   UNL     1       1.921   2.733  17.944  0.00  0.00    +0.000 A 
ATOM     20  C   UNL     1       1.399   2.474  19.208  0.00  0.00    +0.000 A 
ATOM     21  C   UNL     1       1.193   3.529  20.098  0.00  0.00    +0.000 A 
ATOM     22  C   UNL     1       1.495   4.832  19.703  0.00  0.00    +0.000 A 
ENDBRANCH   7  17
ENDBRANCH   3   7
BRANCH   6  23
ATOM     23  C   UNL     1       7.324   6.001  18.089  0.00  0.00    +0.000 C 
BRANCH  23  24
ATOM     24  C   UNL     1       7.687   4.698  17.392  0.00  0.00    +0.000 C 
ATOM     25  O   UNL     1       8.539   3.928  17.842  0.00  0.00    +0.000 OA
BRANCH  24  26
ATOM     26  C   UNL     1       6.993   4.362  16.111  0.00  0.00    +0.000 A 
ATOM     27  C   UNL     1       7.569   4.861  14.906  0.00  0.00    +0.000 A 
ATOM     28  C   UNL     1       6.931   4.619  13.699  0.00  0.00    +0.000 A 
ATOM     29  C   UNL     1       5.756   3.885  13.648  0.00  0.00    +0.000 A 
ATOM     30 BR   UNL     1       4.926   3.548  11.986  0.00  0.00    +0.000 Br
ATOM     31  C   UNL     1       5.187   3.397  14.822  0.00  0.00    +0.000 A 
ATOM     32  C   UNL     1       5.811   3.629  16.050  0.00  0.00    +0.000 A 
ENDBRANCH  24  26
ENDBRANCH  23  24
ENDBRANCH   6  23
TORSDOF 6
ENDMDL
