MODEL 1
REMARK VINA RESULT:      -7.1      0.000      0.000
REMARK  Name = 
REMARK  9 active torsions:
REMARK  status: ('A' for Active; 'I' for Inactive)
REMARK    1  A    between atoms: C_1  and  O_2
REMARK    2  A    between atoms: O_2  and  C_3
REMARK    3  A    between atoms: C_3  and  C_4
REMARK    4  A    between atoms: C_4  and  N_5
REMARK    5  A    between atoms: C_6  and  C_7
REMARK    6  A    between atoms: C_11  and  O_12
REMARK    7  A    between atoms: O_12  and  C_13
REMARK    8  A    between atoms: C_20  and  C_21
REMARK    9  A    between atoms: N_30  and  C_31
REMARK                            x       y       z     vdW  Elec       q    Type
REMARK                         _______ _______ _______ _____ _____    ______ ____
ROOT
ATOM      1  N   UNL     1      -4.430  12.639  21.060  0.00  0.00    +0.000 N 
ATOM      2  C   UNL     1      -3.580  12.172  20.050  0.00  0.00    +0.000 A 
ATOM      3  C   UNL     1      -4.268  11.625  19.029  0.00  0.00    +0.000 A 
ATOM      4  C   UNL     1      -5.705  11.700  19.433  0.00  0.00    +0.000 A 
ATOM      5  O   UNL     1      -6.640  11.232  18.799  0.00  0.00    +0.000 OA
ATOM      6  N   UNL     1      -5.751  12.370  20.643  0.00  0.00    +0.000 N 
ATOM      7  C   UNL     1      -6.909  12.435  21.494  0.00  0.00    +0.000 C 
ENDROOT
BRANCH   3   8
ATOM      8  C   UNL     1      -3.856  11.066  17.750  0.00  0.00    +0.000 A 
ATOM      9  C   UNL     1      -4.310  11.632  16.553  0.00  0.00    +0.000 A 
ATOM     10  C   UNL     1      -3.812  11.176  15.330  0.00  0.00    +0.000 A 
ATOM     11  C   UNL     1      -2.868  10.155  15.311  0.00  0.00    +0.000 A 
ATOM     12  F   UNL     1      -2.379   9.730  14.138  0.00  0.00    +0.000 F 
ATOM     13  C   UNL     1      -2.411   9.579  16.491  0.00  0.00    +0.000 A 
ATOM     14  C   UNL     1      -2.904  10.035  17.713  0.00  0.00    +0.000 A 
ENDBRANCH   3   8
BRANCH   2  15
ATOM     15  C   UNL     1      -2.115  12.347  20.050  0.00  0.00    +0.000 A 
ATOM     16  C   UNL     1      -1.578  13.545  19.612  0.00  0.00    +0.000 A 
ATOM     17  C   UNL     1      -0.216  13.672  19.712  0.00  0.00    +0.000 A 
ATOM     18  N   UNL     1       0.580  12.689  20.149  0.00  0.00    +0.000 NA
ATOM     19  C   UNL     1      -0.026  11.552  20.544  0.00  0.00    +0.000 A 
ATOM     20  N   UNL     1      -1.355  11.334  20.523  0.00  0.00    +0.000 NA
BRANCH  19  21
ATOM     21  O   UNL     1       0.760  10.500  21.017  0.00  0.00    +0.000 OA
BRANCH  21  22
ATOM     22  C   UNL     1       1.228   9.583  20.097  0.00  0.00    +0.000 A 
ATOM     23  C   UNL     1       1.661   8.299  20.452  0.00  0.00    +0.000 A 
ATOM     24  C   UNL     1       2.132   7.417  19.481  0.00  0.00    +0.000 A 
ATOM     25  C   UNL     1       2.129   7.791  18.139  0.00  0.00    +0.000 A 
ATOM     26  C   UNL     1       1.646   9.047  17.766  0.00  0.00    +0.000 A 
ATOM     27  C   UNL     1       1.193   9.943  18.746  0.00  0.00    +0.000 A 
ENDBRANCH  21  22
ENDBRANCH  19  21
ENDBRANCH   2  15
BRANCH   1  28
ATOM     28  C   UNL     1      -4.192  13.428  22.269  0.00  0.00    +0.000 C 
BRANCH  28  29
ATOM     29  C   UNL     1      -3.213  12.820  23.279  0.00  0.00    +0.000 C 
BRANCH  29  31
ATOM     30  C   UNL     1      -5.021  12.423  24.756  0.00  0.00    +0.000 C 
ATOM     31  O   UNL     1      -3.879  11.872  24.118  0.00  0.00    +0.000 OA
ENDBRANCH  29  31
ENDBRANCH  28  29
ENDBRANCH   1  28
TORSDOF 7
ENDMDL
MODEL 2
REMARK VINA RESULT:      -7.1      6.666     10.261
REMARK  Name = 
REMARK  9 active torsions:
REMARK  status: ('A' for Active; 'I' for Inactive)
REMARK    1  A    between atoms: C_1  and  O_2
REMARK    2  A    between atoms: O_2  and  C_3
REMARK    3  A    between atoms: C_3  and  C_4
REMARK    4  A    between atoms: C_4  and  N_5
REMARK    5  A    between atoms: C_6  and  C_7
REMARK    6  A    between atoms: C_11  and  O_12
REMARK    7  A    between atoms: O_12  and  C_13
REMARK    8  A    between atoms: C_20  and  C_21
REMARK    9  A    between atoms: N_30  and  C_31
REMARK                            x       y       z     vdW  Elec       q    Type
REMARK                         _______ _______ _______ _____ _____    ______ ____
ROOT
ATOM      1  N   UNL     1       3.595   3.281  19.532  0.00  0.00    +0.000 N 
ATOM      2  C   UNL     1       3.741   4.611  19.119  0.00  0.00    +0.000 A 
ATOM      3  C   UNL     1       2.661   5.354  19.434  0.00  0.00    +0.000 A 
ATOM      4  C   UNL     1       1.698   4.406  20.070  0.00  0.00    +0.000 A 
ATOM      5  O   UNL     1       0.562   4.689  20.424  0.00  0.00    +0.000 OA
ATOM      6  N   UNL     1       2.333   3.179  20.153  0.00  0.00    +0.000 N 
ATOM      7  C   UNL     1       1.673   1.940  20.471  0.00  0.00    +0.000 C 
ENDROOT
BRANCH   3   8
ATOM      8  C   UNL     1       2.359   6.769  19.276  0.00  0.00    +0.000 A 
ATOM      9  C   UNL     1       2.378   7.358  18.006  0.00  0.00    +0.000 A 
ATOM     10  C   UNL     1       1.963   8.682  17.842  0.00  0.00    +0.000 A 
ATOM     11  C   UNL     1       1.535   9.409  18.947  0.00  0.00    +0.000 A 
ATOM     12  F   UNL     1       1.121  10.673  18.785  0.00  0.00    +0.000 F 
ATOM     13  C   UNL     1       1.515   8.840  20.215  0.00  0.00    +0.000 A 
ATOM     14  C   UNL     1       1.925   7.517  20.381  0.00  0.00    +0.000 A 
ENDBRANCH   3   8
BRANCH   2  15
ATOM     15  C   UNL     1       4.965   5.163  18.510  0.00  0.00    +0.000 A 
ATOM     16  C   UNL     1       6.115   5.262  19.273  0.00  0.00    +0.000 A 
ATOM     17  C   UNL     1       7.238   5.709  18.625  0.00  0.00    +0.000 A 
ATOM     18  N   UNL     1       7.239   6.089  17.342  0.00  0.00    +0.000 NA
ATOM     19  C   UNL     1       6.074   5.971  16.676  0.00  0.00    +0.000 A 
ATOM     20  N   UNL     1       4.922   5.511  17.204  0.00  0.00    +0.000 NA
BRANCH  19  21
ATOM     21  O   UNL     1       6.025   6.345  15.333  0.00  0.00    +0.000 OA
BRANCH  21  22
ATOM     22  C   UNL     1       6.169   5.353  14.383  0.00  0.00    +0.000 A 
ATOM     23  C   UNL     1       5.185   4.387  14.134  0.00  0.00    +0.000 A 
ATOM     24  C   UNL     1       5.389   3.402  13.169  0.00  0.00    +0.000 A 
ATOM     25  C   UNL     1       6.555   3.402  12.408  0.00  0.00    +0.000 A 
ATOM     26  C   UNL     1       7.518   4.393  12.607  0.00  0.00    +0.000 A 
ATOM     27  C   UNL     1       7.323   5.371  13.594  0.00  0.00    +0.000 A 
ENDBRANCH  21  22
ENDBRANCH  19  21
ENDBRANCH   2  15
BRANCH   1  28
ATOM     28  C   UNL     1       4.518   2.146  19.563  0.00  0.00    +0.000 C 
BRANCH  28  29
ATOM     29  C   UNL     1       5.053   1.759  20.946  0.00  0.00    +0.000 C 
BRANCH  29  31
ATOM     30  C   UNL     1       6.208   0.087  22.161  0.00  0.00    +0.000 C 
ATOM     31  O   UNL     1       5.704   0.486  20.895  0.00  0.00    +0.000 OA
ENDBRANCH  29  31
ENDBRANCH  28  29
ENDBRANCH   1  28
TORSDOF 7
ENDMDL
MODEL 3
REMARK VINA RESULT:      -6.9      5.106      9.902
REMARK  Name = 
REMARK  9 active torsions:
REMARK  status: ('A' for Active; 'I' for Inactive)
REMARK    1  A    between atoms: C_1  and  O_2
REMARK    2  A    between atoms: O_2  and  C_3
REMARK    3  A    between atoms: C_3  and  C_4
REMARK    4  A    between atoms: C_4  and  N_5
REMARK    5  A    between atoms: C_6  and  C_7
REMARK    6  A    between atoms: C_11  and  O_12
REMARK    7  A    between atoms: O_12  and  C_13
REMARK    8  A    between atoms: C_20  and  C_21
REMARK    9  A    between atoms: N_30  and  C_31
REMARK                            x       y       z     vdW  Elec       q    Type
REMARK                         _______ _______ _______ _____ _____    ______ ____
ROOT
ATOM      1  N   UNL     1       4.321   5.796  16.867  0.00  0.00    +0.000 N 
ATOM      2  C   UNL     1       3.424   5.614  17.928  0.00  0.00    +0.000 A 
ATOM      3  C   UNL     1       3.362   4.325  18.316  0.00  0.00    +0.000 A 
ATOM      4  C   UNL     1       4.270   3.586  17.387  0.00  0.00    +0.000 A 
ATOM      5  O   UNL     1       4.423   2.374  17.368  0.00  0.00    +0.000 OA
ATOM      6  N   UNL     1       4.864   4.530  16.566  0.00  0.00    +0.000 N 
ATOM      7  C   UNL     1       5.611   4.220  15.376  0.00  0.00    +0.000 C 
ENDROOT
BRANCH   3   8
ATOM      8  C   UNL     1       2.642   3.651  19.386  0.00  0.00    +0.000 A 
ATOM      9  C   UNL     1       3.321   3.223  20.533  0.00  0.00    +0.000 A 
ATOM     10  C   UNL     1       2.609   2.693  21.611  0.00  0.00    +0.000 A 
ATOM     11  C   UNL     1       1.223   2.593  21.536  0.00  0.00    +0.000 A 
ATOM     12  F   UNL     1       0.540   2.101  22.578  0.00  0.00    +0.000 F 
ATOM     13  C   UNL     1       0.536   3.009  20.402  0.00  0.00    +0.000 A 
ATOM     14  C   UNL     1       1.244   3.542  19.325  0.00  0.00    +0.000 A 
ENDBRANCH   3   8
BRANCH   2  15
ATOM     15  C   UNL     1       2.712   6.710  18.611  0.00  0.00    +0.000 A 
ATOM     16  C   UNL     1       2.500   6.632  19.976  0.00  0.00    +0.000 A 
ATOM     17  C   UNL     1       1.903   7.719  20.561  0.00  0.00    +0.000 A 
ATOM     18  N   UNL     1       1.484   8.785  19.869  0.00  0.00    +0.000 NA
ATOM     19  C   UNL     1       1.720   8.773  18.542  0.00  0.00    +0.000 A 
ATOM     20  N   UNL     1       2.330   7.776  17.872  0.00  0.00    +0.000 NA
BRANCH  19  21
ATOM     21  O   UNL     1       1.311   9.865  17.776  0.00  0.00    +0.000 OA
BRANCH  21  22
ATOM     22  C   UNL     1       0.045  10.370  18.001  0.00  0.00    +0.000 A 
ATOM     23  C   UNL     1      -1.123   9.697  17.619  0.00  0.00    +0.000 A 
ATOM     24  C   UNL     1      -2.375  10.258  17.865  0.00  0.00    +0.000 A 
ATOM     25  C   UNL     1      -2.475  11.473  18.538  0.00  0.00    +0.000 A 
ATOM     26  C   UNL     1      -1.320  12.126  18.975  0.00  0.00    +0.000 A 
ATOM     27  C   UNL     1      -0.059  11.572  18.708  0.00  0.00    +0.000 A 
ENDBRANCH  21  22
ENDBRANCH  19  21
ENDBRANCH   2  15
BRANCH   1  28
ATOM     28  C   UNL     1       4.846   6.992  16.208  0.00  0.00    +0.000 C 
BRANCH  28  29
ATOM     29  C   UNL     1       5.793   7.855  17.049  0.00  0.00    +0.000 C 
BRANCH  29  31
ATOM     30  C   UNL     1       8.048   8.150  17.709  0.00  0.00    +0.000 C 
ATOM     31  O   UNL     1       7.142   7.399  16.914  0.00  0.00    +0.000 OA
ENDBRANCH  29  31
ENDBRANCH  28  29
ENDBRANCH   1  28
TORSDOF 7
ENDMDL
MODEL 4
REMARK VINA RESULT:      -6.9      5.181      9.677
REMARK  Name = 
REMARK  9 active torsions:
REMARK  status: ('A' for Active; 'I' for Inactive)
REMARK    1  A    between atoms: C_1  and  O_2
REMARK    2  A    between atoms: O_2  and  C_3
REMARK    3  A    between atoms: C_3  and  C_4
REMARK    4  A    between atoms: C_4  and  N_5
REMARK    5  A    between atoms: C_6  and  C_7
REMARK    6  A    between atoms: C_11  and  O_12
REMARK    7  A    between atoms: O_12  and  C_13
REMARK    8  A    between atoms: C_20  and  C_21
REMARK    9  A    between atoms: N_30  and  C_31
REMARK                            x       y       z     vdW  Elec       q    Type
REMARK                         _______ _______ _______ _____ _____    ______ ____
ROOT
ATOM      1  N   UNL     1       2.437   3.918  18.220  0.00  0.00    +0.000 N 
ATOM      2  C   UNL     1       3.137   5.105  18.467  0.00  0.00    +0.000 A 
ATOM      3  C   UNL     1       4.401   5.046  18.005  0.00  0.00    +0.000 A 
ATOM      4  C   UNL     1       4.556   3.670  17.444  0.00  0.00    +0.000 A 
ATOM      5  O   UNL     1       5.594   3.204  16.998  0.00  0.00    +0.000 OA
ATOM      6  N   UNL     1       3.323   3.048  17.552  0.00  0.00    +0.000 N 
ATOM      7  C   UNL     1       3.102   1.640  17.359  0.00  0.00    +0.000 C 
ENDROOT
BRANCH   3   8
ATOM      8  C   UNL     1       5.483   6.019  17.965  0.00  0.00    +0.000 A 
ATOM      9  C   UNL     1       6.635   5.826  18.736  0.00  0.00    +0.000 A 
ATOM     10  C   UNL     1       7.722   6.692  18.599  0.00  0.00    +0.000 A 
ATOM     11  C   UNL     1       7.650   7.747  17.696  0.00  0.00    +0.000 A 
ATOM     12  F   UNL     1       8.700   8.567  17.553  0.00  0.00    +0.000 F 
ATOM     13  C   UNL     1       6.511   7.955  16.927  0.00  0.00    +0.000 A 
ATOM     14  C   UNL     1       5.425   7.090  17.060  0.00  0.00    +0.000 A 
ENDBRANCH   3   8
BRANCH   2  15
ATOM     15  C   UNL     1       2.539   6.314  19.065  0.00  0.00    +0.000 A 
ATOM     16  C   UNL     1       2.251   6.327  20.418  0.00  0.00    +0.000 A 
ATOM     17  C   UNL     1       1.771   7.507  20.926  0.00  0.00    +0.000 A 
ATOM     18  N   UNL     1       1.529   8.584  20.169  0.00  0.00    +0.000 NA
ATOM     19  C   UNL     1       1.827   8.480  18.859  0.00  0.00    +0.000 A 
ATOM     20  N   UNL     1       2.335   7.383  18.264  0.00  0.00    +0.000 NA
BRANCH  19  21
ATOM     21  O   UNL     1       1.602   9.579  18.028  0.00  0.00    +0.000 OA
BRANCH  21  22
ATOM     22  C   UNL     1       0.451  10.315  18.235  0.00  0.00    +0.000 A 
ATOM     23  C   UNL     1       0.453  11.577  18.844  0.00  0.00    +0.000 A 
ATOM     24  C   UNL     1      -0.740  12.272  19.034  0.00  0.00    +0.000 A 
ATOM     25  C   UNL     1      -1.940  11.737  18.574  0.00  0.00    +0.000 A 
ATOM     26  C   UNL     1      -1.948  10.506  17.914  0.00  0.00    +0.000 A 
ATOM     27  C   UNL     1      -0.750   9.796  17.742  0.00  0.00    +0.000 A 
ENDBRANCH  21  22
ENDBRANCH  19  21
ENDBRANCH   2  15
BRANCH   1  28
ATOM     28  C   UNL     1       1.031   3.545  18.382  0.00  0.00    +0.000 C 
BRANCH  28  29
ATOM     29  C   UNL     1       0.606   3.147  19.800  0.00  0.00    +0.000 C 
BRANCH  29  31
ATOM     30  C   UNL     1       2.009   2.836  21.682  0.00  0.00    +0.000 C 
ATOM     31  O   UNL     1       1.609   2.334  20.416  0.00  0.00    +0.000 OA
ENDBRANCH  29  31
ENDBRANCH  28  29
ENDBRANCH   1  28
TORSDOF 7
ENDMDL
MODEL 5
REMARK VINA RESULT:      -6.9      0.803      1.194
REMARK  Name = 
REMARK  9 active torsions:
REMARK  status: ('A' for Active; 'I' for Inactive)
REMARK    1  A    between atoms: C_1  and  O_2
REMARK    2  A    between atoms: O_2  and  C_3
REMARK    3  A    between atoms: C_3  and  C_4
REMARK    4  A    between atoms: C_4  and  N_5
REMARK    5  A    between atoms: C_6  and  C_7
REMARK    6  A    between atoms: C_11  and  O_12
REMARK    7  A    between atoms: O_12  and  C_13
REMARK    8  A    between atoms: C_20  and  C_21
REMARK    9  A    between atoms: N_30  and  C_31
REMARK                            x       y       z     vdW  Elec       q    Type
REMARK                         _______ _______ _______ _____ _____    ______ ____
ROOT
ATOM      1  N   UNL     1      -3.766  12.765  20.867  0.00  0.00    +0.000 N 
ATOM      2  C   UNL     1      -3.057  12.169  19.816  0.00  0.00    +0.000 A 
ATOM      3  C   UNL     1      -3.880  11.722  18.847  0.00  0.00    +0.000 A 
ATOM      4  C   UNL     1      -5.262  12.012  19.335  0.00  0.00    +0.000 A 
ATOM      5  O   UNL     1      -6.293  11.682  18.766  0.00  0.00    +0.000 OA
ATOM      6  N   UNL     1      -5.134  12.690  20.535  0.00  0.00    +0.000 N 
ATOM      7  C   UNL     1      -6.216  12.932  21.453  0.00  0.00    +0.000 C 
ENDROOT
BRANCH   3   8
ATOM      8  C   UNL     1      -3.634  11.099  17.555  0.00  0.00    +0.000 A 
ATOM      9  C   UNL     1      -4.240  11.606  16.400  0.00  0.00    +0.000 A 
ATOM     10  C   UNL     1      -3.903  11.088  15.147  0.00  0.00    +0.000 A 
ATOM     11  C   UNL     1      -2.965  10.064  15.058  0.00  0.00    +0.000 A 
ATOM     12  F   UNL     1      -2.631   9.579  13.854  0.00  0.00    +0.000 F 
ATOM     13  C   UNL     1      -2.359   9.546  16.196  0.00  0.00    +0.000 A 
ATOM     14  C   UNL     1      -2.692  10.065  17.448  0.00  0.00    +0.000 A 
ENDBRANCH   3   8
BRANCH   2  15
ATOM     15  C   UNL     1      -1.586  12.126  19.725  0.00  0.00    +0.000 A 
ATOM     16  C   UNL     1      -0.915  13.172  19.117  0.00  0.00    +0.000 A 
ATOM     17  C   UNL     1       0.455  13.109  19.136  0.00  0.00    +0.000 A 
ATOM     18  N   UNL     1       1.132  12.077  19.654  0.00  0.00    +0.000 NA
ATOM     19  C   UNL     1       0.399  11.095  20.216  0.00  0.00    +0.000 A 
ATOM     20  N   UNL     1      -0.946  11.075  20.285  0.00  0.00    +0.000 NA
BRANCH  19  21
ATOM     21  O   UNL     1       1.058  10.002  20.780  0.00  0.00    +0.000 OA
BRANCH  21  22
ATOM     22  C   UNL     1       1.495   9.007  19.928  0.00  0.00    +0.000 A 
ATOM     23  C   UNL     1       1.632   9.192  18.545  0.00  0.00    +0.000 A 
ATOM     24  C   UNL     1       2.070   8.148  17.732  0.00  0.00    +0.000 A 
ATOM     25  C   UNL     1       2.422   6.925  18.296  0.00  0.00    +0.000 A 
ATOM     26  C   UNL     1       2.346   6.746  19.679  0.00  0.00    +0.000 A 
ATOM     27  C   UNL     1       1.884   7.789  20.495  0.00  0.00    +0.000 A 
ENDBRANCH  21  22
ENDBRANCH  19  21
ENDBRANCH   2  15
BRANCH   1  28
ATOM     28  C   UNL     1      -3.340  13.519  22.047  0.00  0.00    +0.000 C 
BRANCH  28  29
ATOM     29  C   UNL     1      -2.960  12.681  23.272  0.00  0.00    +0.000 C 
BRANCH  29  31
ATOM     30  C   UNL     1      -3.378  14.437  24.804  0.00  0.00    +0.000 C 
ATOM     31  O   UNL     1      -3.696  13.107  24.422  0.00  0.00    +0.000 OA
ENDBRANCH  29  31
ENDBRANCH  28  29
ENDBRANCH   1  28
TORSDOF 7
ENDMDL
MODEL 6
REMARK VINA RESULT:      -6.9      2.783      5.220
REMARK  Name = 
REMARK  9 active torsions:
REMARK  status: ('A' for Active; 'I' for Inactive)
REMARK    1  A    between atoms: C_1  and  O_2
REMARK    2  A    between atoms: O_2  and  C_3
REMARK    3  A    between atoms: C_3  and  C_4
REMARK    4  A    between atoms: C_4  and  N_5
REMARK    5  A    between atoms: C_6  and  C_7
REMARK    6  A    between atoms: C_11  and  O_12
REMARK    7  A    between atoms: O_12  and  C_13
REMARK    8  A    between atoms: C_20  and  C_21
REMARK    9  A    between atoms: N_30  and  C_31
REMARK                            x       y       z     vdW  Elec       q    Type
REMARK                         _______ _______ _______ _____ _____    ______ ____
ROOT
ATOM      1  N   UNL     1      -3.756  11.397  18.278  0.00  0.00    +0.000 N 
ATOM      2  C   UNL     1      -2.962  12.027  19.244  0.00  0.00    +0.000 A 
ATOM      3  C   UNL     1      -3.708  12.624  20.194  0.00  0.00    +0.000 A 
ATOM      4  C   UNL     1      -5.127  12.403  19.782  0.00  0.00    +0.000 A 
ATOM      5  O   UNL     1      -6.106  12.863  20.352  0.00  0.00    +0.000 OA
ATOM      6  N   UNL     1      -5.100  11.610  18.647  0.00  0.00    +0.000 N 
ATOM      7  C   UNL     1      -6.233  11.373  17.792  0.00  0.00    +0.000 C 
ENDROOT
BRANCH   3   8
ATOM      8  C   UNL     1      -3.363  13.339  21.414  0.00  0.00    +0.000 A 
ATOM      9  C   UNL     1      -3.163  14.724  21.387  0.00  0.00    +0.000 A 
ATOM     10  C   UNL     1      -2.959  15.426  22.577  0.00  0.00    +0.000 A 
ATOM     11  C   UNL     1      -2.954  14.738  23.787  0.00  0.00    +0.000 A 
ATOM     12  F   UNL     1      -2.775  15.415  24.929  0.00  0.00    +0.000 F 
ATOM     13  C   UNL     1      -3.146  13.362  23.829  0.00  0.00    +0.000 A 
ATOM     14  C   UNL     1      -3.353  12.661  22.642  0.00  0.00    +0.000 A 
ENDBRANCH   3   8
BRANCH   2  15
ATOM     15  C   UNL     1      -1.489  11.960  19.282  0.00  0.00    +0.000 A 
ATOM     16  C   UNL     1      -0.750  12.980  18.708  0.00  0.00    +0.000 A 
ATOM     17  C   UNL     1       0.611  12.897  18.847  0.00  0.00    +0.000 A 
ATOM     18  N   UNL     1       1.224  11.869  19.447  0.00  0.00    +0.000 NA
ATOM     19  C   UNL     1       0.429  10.913  19.967  0.00  0.00    +0.000 A 
ATOM     20  N   UNL     1      -0.917  10.913  19.920  0.00  0.00    +0.000 NA
BRANCH  19  21
ATOM     21  O   UNL     1       1.019   9.825  20.612  0.00  0.00    +0.000 OA
BRANCH  21  22
ATOM     22  C   UNL     1       1.516   8.804  19.825  0.00  0.00    +0.000 A 
ATOM     23  C   UNL     1       1.790   8.959  18.459  0.00  0.00    +0.000 A 
ATOM     24  C   UNL     1       2.283   7.891  17.712  0.00  0.00    +0.000 A 
ATOM     25  C   UNL     1       2.555   6.673  18.330  0.00  0.00    +0.000 A 
ATOM     26  C   UNL     1       2.341   6.524  19.702  0.00  0.00    +0.000 A 
ATOM     27  C   UNL     1       1.823   7.592  20.450  0.00  0.00    +0.000 A 
ENDBRANCH  21  22
ENDBRANCH  19  21
ENDBRANCH   2  15
BRANCH   1  28
ATOM     28  C   UNL     1      -3.437  10.508  17.160  0.00  0.00    +0.000 C 
BRANCH  28  29
ATOM     29  C   UNL     1      -2.745  11.166  15.962  0.00  0.00    +0.000 C 
BRANCH  29  31
ATOM     30  C   UNL     1      -3.876  10.087  14.184  0.00  0.00    +0.000 C 
ATOM     31  O   UNL     1      -2.645  10.246  14.871  0.00  0.00    +0.000 OA
ENDBRANCH  29  31
ENDBRANCH  28  29
ENDBRANCH   1  28
TORSDOF 7
ENDMDL
MODEL 7
REMARK VINA RESULT:      -6.9      6.430      9.913
REMARK  Name = 
REMARK  9 active torsions:
REMARK  status: ('A' for Active; 'I' for Inactive)
REMARK    1  A    between atoms: C_1  and  O_2
REMARK    2  A    between atoms: O_2  and  C_3
REMARK    3  A    between atoms: C_3  and  C_4
REMARK    4  A    between atoms: C_4  and  N_5
REMARK    5  A    between atoms: C_6  and  C_7
REMARK    6  A    between atoms: C_11  and  O_12
REMARK    7  A    between atoms: O_12  and  C_13
REMARK    8  A    between atoms: C_20  and  C_21
REMARK    9  A    between atoms: N_30  and  C_31
REMARK                            x       y       z     vdW  Elec       q    Type
REMARK                         _______ _______ _______ _____ _____    ______ ____
ROOT
ATOM      1  N   UNL     1       3.461   3.649  20.022  0.00  0.00    +0.000 N 
ATOM      2  C   UNL     1       3.629   4.907  19.428  0.00  0.00    +0.000 A 
ATOM      3  C   UNL     1       2.583   5.720  19.676  0.00  0.00    +0.000 A 
ATOM      4  C   UNL     1       1.619   4.898  20.468  0.00  0.00    +0.000 A 
ATOM      5  O   UNL     1       0.506   5.262  20.820  0.00  0.00    +0.000 OA
ATOM      6  N   UNL     1       2.222   3.672  20.694  0.00  0.00    +0.000 N 
ATOM      7  C   UNL     1       1.541   2.510  21.199  0.00  0.00    +0.000 C 
ENDROOT
BRANCH   3   8
ATOM      8  C   UNL     1       2.314   7.111  19.340  0.00  0.00    +0.000 A 
ATOM      9  C   UNL     1       2.446   7.555  18.019  0.00  0.00    +0.000 A 
ATOM     10  C   UNL     1       2.065   8.854  17.676  0.00  0.00    +0.000 A 
ATOM     11  C   UNL     1       1.557   9.702  18.656  0.00  0.00    +0.000 A 
ATOM     12  F   UNL     1       1.176  10.942  18.322  0.00  0.00    +0.000 F 
ATOM     13  C   UNL     1       1.425   9.276  19.973  0.00  0.00    +0.000 A 
ATOM     14  C   UNL     1       1.802   7.978  20.316  0.00  0.00    +0.000 A 
ENDBRANCH   3   8
BRANCH   2  15
ATOM     15  C   UNL     1       4.843   5.331  18.708  0.00  0.00    +0.000 A 
ATOM     16  C   UNL     1       6.057   5.338  19.373  0.00  0.00    +0.000 A 
ATOM     17  C   UNL     1       7.158   5.666  18.625  0.00  0.00    +0.000 A 
ATOM     18  N   UNL     1       7.088   6.021  17.337  0.00  0.00    +0.000 NA
ATOM     19  C   UNL     1       5.865   5.998  16.770  0.00  0.00    +0.000 A 
ATOM     20  N   UNL     1       4.724   5.657  17.401  0.00  0.00    +0.000 NA
BRANCH  19  21
ATOM     21  O   UNL     1       5.739   6.351  15.426  0.00  0.00    +0.000 OA
BRANCH  21  22
ATOM     22  C   UNL     1       6.026   5.386  14.479  0.00  0.00    +0.000 A 
ATOM     23  C   UNL     1       5.118   4.383  14.114  0.00  0.00    +0.000 A 
ATOM     24  C   UNL     1       5.465   3.430  13.157  0.00  0.00    +0.000 A 
ATOM     25  C   UNL     1       6.702   3.498  12.521  0.00  0.00    +0.000 A 
ATOM     26  C   UNL     1       7.592   4.527  12.835  0.00  0.00    +0.000 A 
ATOM     27  C   UNL     1       7.252   5.474  13.814  0.00  0.00    +0.000 A 
ENDBRANCH  21  22
ENDBRANCH  19  21
ENDBRANCH   2  15
BRANCH   1  28
ATOM     28  C   UNL     1       4.353   2.499  20.173  0.00  0.00    +0.000 C 
BRANCH  28  29
ATOM     29  C   UNL     1       4.382   1.518  18.996  0.00  0.00    +0.000 C 
BRANCH  29  31
ATOM     30  C   UNL     1       2.838   2.136  17.311  0.00  0.00    +0.000 C 
ATOM     31  O   UNL     1       3.069   1.336  18.460  0.00  0.00    +0.000 OA
ENDBRANCH  29  31
ENDBRANCH  28  29
ENDBRANCH   1  28
TORSDOF 7
ENDMDL
MODEL 8
REMARK VINA RESULT:      -6.8      2.741      5.183
REMARK  Name = 
REMARK  9 active torsions:
REMARK  status: ('A' for Active; 'I' for Inactive)
REMARK    1  A    between atoms: C_1  and  O_2
REMARK    2  A    between atoms: O_2  and  C_3
REMARK    3  A    between atoms: C_3  and  C_4
REMARK    4  A    between atoms: C_4  and  N_5
REMARK    5  A    between atoms: C_6  and  C_7
REMARK    6  A    between atoms: C_11  and  O_12
REMARK    7  A    between atoms: O_12  and  C_13
REMARK    8  A    between atoms: C_20  and  C_21
REMARK    9  A    between atoms: N_30  and  C_31
REMARK                            x       y       z     vdW  Elec       q    Type
REMARK                         _______ _______ _______ _____ _____    ______ ____
ROOT
ATOM      1  N   UNL     1      -3.653  11.524  18.563  0.00  0.00    +0.000 N 
ATOM      2  C   UNL     1      -3.004  12.162  19.627  0.00  0.00    +0.000 A 
ATOM      3  C   UNL     1      -3.879  12.749  20.468  0.00  0.00    +0.000 A 
ATOM      4  C   UNL     1      -5.226  12.511  19.868  0.00  0.00    +0.000 A 
ATOM      5  O   UNL     1      -6.279  12.958  20.301  0.00  0.00    +0.000 OA
ATOM      6  N   UNL     1      -5.037  11.720  18.747  0.00  0.00    +0.000 N 
ATOM      7  C   UNL     1      -6.041  11.470  17.748  0.00  0.00    +0.000 C 
ENDROOT
BRANCH   3   8
ATOM      8  C   UNL     1      -3.710  13.467  21.722  0.00  0.00    +0.000 A 
ATOM      9  C   UNL     1      -3.678  14.867  21.735  0.00  0.00    +0.000 A 
ATOM     10  C   UNL     1      -3.645  15.555  22.950  0.00  0.00    +0.000 A 
ATOM     11  C   UNL     1      -3.642  14.840  24.144  0.00  0.00    +0.000 A 
ATOM     12  F   UNL     1      -3.628  15.502  25.309  0.00  0.00    +0.000 F 
ATOM     13  C   UNL     1      -3.668  13.451  24.147  0.00  0.00    +0.000 A 
ATOM     14  C   UNL     1      -3.705  12.761  22.935  0.00  0.00    +0.000 A 
ENDBRANCH   3   8
BRANCH   2  15
ATOM     15  C   UNL     1      -1.549  12.114  19.862  0.00  0.00    +0.000 A 
ATOM     16  C   UNL     1      -0.789  13.249  19.640  0.00  0.00    +0.000 A 
ATOM     17  C   UNL     1       0.542  13.160  19.953  0.00  0.00    +0.000 A 
ATOM     18  N   UNL     1       1.116  12.035  20.396  0.00  0.00    +0.000 NA
ATOM     19  C   UNL     1       0.305  10.973  20.573  0.00  0.00    +0.000 A 
ATOM     20  N   UNL     1      -1.020  10.961  20.332  0.00  0.00    +0.000 NA
BRANCH  19  21
ATOM     21  O   UNL     1       0.853   9.778  21.042  0.00  0.00    +0.000 OA
BRANCH  21  22
ATOM     22  C   UNL     1       1.402   8.915  20.113  0.00  0.00    +0.000 A 
ATOM     23  C   UNL     1       1.858   7.632  20.442  0.00  0.00    +0.000 A 
ATOM     24  C   UNL     1       2.411   6.806  19.465  0.00  0.00    +0.000 A 
ATOM     25  C   UNL     1       2.468   7.233  18.141  0.00  0.00    +0.000 A 
ATOM     26  C   UNL     1       1.963   8.487  17.790  0.00  0.00    +0.000 A 
ATOM     27  C   UNL     1       1.427   9.328  18.778  0.00  0.00    +0.000 A 
ENDBRANCH  21  22
ENDBRANCH  19  21
ENDBRANCH   2  15
BRANCH   1  28
ATOM     28  C   UNL     1      -3.176  10.641  17.498  0.00  0.00    +0.000 C 
BRANCH  28  29
ATOM     29  C   UNL     1      -2.494  11.333  16.313  0.00  0.00    +0.000 C 
BRANCH  29  31
ATOM     30  C   UNL     1      -3.113  10.035  14.433  0.00  0.00    +0.000 C 
ATOM     31  O   UNL     1      -3.311  11.247  15.142  0.00  0.00    +0.000 OA
ENDBRANCH  29  31
ENDBRANCH  28  29
ENDBRANCH   1  28
TORSDOF 7
ENDMDL
MODEL 9
REMARK VINA RESULT:      -6.8      5.217     10.024
REMARK  Name = 
REMARK  9 active torsions:
REMARK  status: ('A' for Active; 'I' for Inactive)
REMARK    1  A    between atoms: C_1  and  O_2
REMARK    2  A    between atoms: O_2  and  C_3
REMARK    3  A    between atoms: C_3  and  C_4
REMARK    4  A    between atoms: C_4  and  N_5
REMARK    5  A    between atoms: C_6  and  C_7
REMARK    6  A    between atoms: C_11  and  O_12
REMARK    7  A    between atoms: O_12  and  C_13
REMARK    8  A    between atoms: C_20  and  C_21
REMARK    9  A    between atoms: N_30  and  C_31
REMARK                            x       y       z     vdW  Elec       q    Type
REMARK                         _______ _______ _______ _____ _____    ______ ____
ROOT
ATOM      1  N   UNL     1       4.469   5.630  16.796  0.00  0.00    +0.000 N 
ATOM      2  C   UNL     1       3.550   5.497  17.845  0.00  0.00    +0.000 A 
ATOM      3  C   UNL     1       3.455   4.221  18.269  0.00  0.00    +0.000 A 
ATOM      4  C   UNL     1       4.365   3.438  17.380  0.00  0.00    +0.000 A 
ATOM      5  O   UNL     1       4.496   2.222  17.400  0.00  0.00    +0.000 OA
ATOM      6  N   UNL     1       4.993   4.345  16.543  0.00  0.00    +0.000 N 
ATOM      7  C   UNL     1       5.755   3.986  15.377  0.00  0.00    +0.000 C 
ENDROOT
BRANCH   3   8
ATOM      8  C   UNL     1       2.703   3.593  19.345  0.00  0.00    +0.000 A 
ATOM      9  C   UNL     1       3.357   3.161  20.505  0.00  0.00    +0.000 A 
ATOM     10  C   UNL     1       2.618   2.677  21.587  0.00  0.00    +0.000 A 
ATOM     11  C   UNL     1       1.230   2.625  21.502  0.00  0.00    +0.000 A 
ATOM     12  F   UNL     1       0.521   2.177  22.546  0.00  0.00    +0.000 F 
ATOM     13  C   UNL     1       0.567   3.046  20.355  0.00  0.00    +0.000 A 
ATOM     14  C   UNL     1       1.303   3.533  19.275  0.00  0.00    +0.000 A 
ENDBRANCH   3   8
BRANCH   2  15
ATOM     15  C   UNL     1       2.846   6.625  18.481  0.00  0.00    +0.000 A 
ATOM     16  C   UNL     1       2.563   6.570  19.835  0.00  0.00    +0.000 A 
ATOM     17  C   UNL     1       1.979   7.684  20.380  0.00  0.00    +0.000 A 
ATOM     18  N   UNL     1       1.636   8.758  19.658  0.00  0.00    +0.000 NA
ATOM     19  C   UNL     1       1.937   8.723  18.345  0.00  0.00    +0.000 A 
ATOM     20  N   UNL     1       2.542   7.697  17.715  0.00  0.00    +0.000 NA
BRANCH  19  21
ATOM     21  O   UNL     1       1.610   9.822  17.550  0.00  0.00    +0.000 OA
BRANCH  21  22
ATOM     22  C   UNL     1       1.396  11.031  18.182  0.00  0.00    +0.000 A 
ATOM     23  C   UNL     1       2.378  12.027  18.276  0.00  0.00    +0.000 A 
ATOM     24  C   UNL     1       2.108  13.226  18.934  0.00  0.00    +0.000 A 
ATOM     25  C   UNL     1       0.841  13.463  19.461  0.00  0.00    +0.000 A 
ATOM     26  C   UNL     1      -0.163  12.503  19.323  0.00  0.00    +0.000 A 
ATOM     27  C   UNL     1       0.114  11.286  18.680  0.00  0.00    +0.000 A 
ENDBRANCH  21  22
ENDBRANCH  19  21
ENDBRANCH   2  15
BRANCH   1  28
ATOM     28  C   UNL     1       5.029   6.796  16.112  0.00  0.00    +0.000 C 
BRANCH  28  29
ATOM     29  C   UNL     1       6.098   7.573  16.887  0.00  0.00    +0.000 C 
BRANCH  29  31
ATOM     30  C   UNL     1       7.678   6.446  18.242  0.00  0.00    +0.000 C 
ATOM     31  O   UNL     1       7.325   6.839  16.925  0.00  0.00    +0.000 OA
ENDBRANCH  29  31
ENDBRANCH  28  29
ENDBRANCH   1  28
TORSDOF 7
ENDMDL
