MODEL 1
REMARK VINA RESULT:      -8.1      0.000      0.000
REMARK  Name = 
REMARK  8 active torsions:
REMARK  status: ('A' for Active; 'I' for Inactive)
REMARK    1  A    between atoms: C_1  and  O_2
REMARK    2  A    between atoms: O_2  and  C_3
REMARK    3  A    between atoms: C_7  and  C_8
REMARK    4  A    between atoms: C_16  and  C_17
REMARK    5  A    between atoms: C_20  and  O_21
REMARK    6  A    between atoms: O_21  and  C_22
REMARK    7  A    between atoms: C_22  and  C_23
REMARK    8  A    between atoms: C_23  and  N_24
REMARK                            x       y       z     vdW  Elec       q    Type
REMARK                         _______ _______ _______ _____ _____    ______ ____
ROOT
ATOM      1  C   UNL     1      -0.582  12.278  18.511  0.00  0.00    +0.000 A 
ATOM      2  S   UNL     1      -0.678  13.981  18.722  0.00  0.00    +0.000 S 
ATOM      3  C   UNL     1       1.001  14.179  18.827  0.00  0.00    +0.000 A 
ATOM      4  C   UNL     1       1.649  15.418  19.035  0.00  0.00    +0.000 A 
ATOM      5  C   UNL     1       3.034  15.487  18.968  0.00  0.00    +0.000 A 
ATOM      6  C   UNL     1       3.755  14.342  18.700  0.00  0.00    +0.000 A 
ATOM      7  C   UNL     1       3.101  13.103  18.562  0.00  0.00    +0.000 A 
ATOM      8  C   UNL     1       1.681  12.971  18.651  0.00  0.00    +0.000 A 
ATOM      9  C   UNL     1       0.740  11.807  18.644  0.00  0.00    +0.000 A 
ENDROOT
BRANCH   1  14
ATOM     10  C   UNL     1      -4.290  11.459  18.616  0.00  0.00    +0.000 A 
ATOM     11  C   UNL     1      -4.341  10.338  17.779  0.00  0.00    +0.000 A 
ATOM     12  C   UNL     1      -3.185   9.854  17.179  0.00  0.00    +0.000 A 
ATOM     13  C   UNL     1      -1.971  10.502  17.397  0.00  0.00    +0.000 A 
ATOM     14  C   UNL     1      -1.889  11.629  18.239  0.00  0.00    +0.000 A 
ATOM     15  C   UNL     1      -3.065  12.093  18.852  0.00  0.00    +0.000 A 
BRANCH  10  17
ATOM     16  C   UNL     1      -6.659  11.212  18.578  0.00  0.00    +0.000 C 
ATOM     17  O   UNL     1      -5.502  11.814  19.140  0.00  0.00    +0.000 OA
ENDBRANCH  10  17
ENDBRANCH   1  14
BRANCH   9  18
ATOM     18  C   UNL     1       1.070  10.348  18.849  0.00  0.00    +0.000 A 
ATOM     19  C   UNL     1       1.731   9.580  17.883  0.00  0.00    +0.000 A 
ATOM     20  C   UNL     1       2.273   8.309  18.161  0.00  0.00    +0.000 A 
ATOM     21  C   UNL     1       2.137   7.740  19.421  0.00  0.00    +0.000 A 
ATOM     22  C   UNL     1       1.353   8.403  20.351  0.00  0.00    +0.000 A 
ATOM     23  C   UNL     1       0.868   9.696  20.079  0.00  0.00    +0.000 A 
BRANCH  21  24
ATOM     24  O   UNL     1       2.732   6.585  19.846  0.00  0.00    +0.000 OA
BRANCH  24  25
ATOM     25  C   UNL     1       3.262   5.763  18.788  0.00  0.00    +0.000 C 
BRANCH  25  26
ATOM     26  C   UNL     1       4.327   4.778  19.328  0.00  0.00    +0.000 C 
BRANCH  26  27
ATOM     27  N   UNL     1       5.310   4.329  18.312  0.00  0.00    +0.000 NA
ATOM     28  C   UNL     1       4.736   4.435  16.956  0.00  0.00    +0.000 C 
ATOM     29  C   UNL     1       5.701   3.941  15.873  0.00  0.00    +0.000 C 
ATOM     30  C   UNL     1       7.045   4.654  15.953  0.00  0.00    +0.000 C 
ATOM     31  C   UNL     1       7.598   4.561  17.367  0.00  0.00    +0.000 C 
ATOM     32  C   UNL     1       6.583   5.058  18.398  0.00  0.00    +0.000 C 
ENDBRANCH  26  27
ENDBRANCH  25  26
ENDBRANCH  24  25
ENDBRANCH  21  24
ENDBRANCH   9  18
TORSDOF 7
ENDMDL
MODEL 2
REMARK VINA RESULT:      -8.1      7.042     10.255
REMARK  Name = 
REMARK  8 active torsions:
REMARK  status: ('A' for Active; 'I' for Inactive)
REMARK    1  A    between atoms: C_1  and  O_2
REMARK    2  A    between atoms: O_2  and  C_3
REMARK    3  A    between atoms: C_7  and  C_8
REMARK    4  A    between atoms: C_16  and  C_17
REMARK    5  A    between atoms: C_20  and  O_21
REMARK    6  A    between atoms: O_21  and  C_22
REMARK    7  A    between atoms: C_22  and  C_23
REMARK    8  A    between atoms: C_23  and  N_24
REMARK                            x       y       z     vdW  Elec       q    Type
REMARK                         _______ _______ _______ _____ _____    ______ ____
ROOT
ATOM      1  C   UNL     1       4.883   4.408  16.275  0.00  0.00    +0.000 A 
ATOM      2  S   UNL     1       3.649   3.231  16.488  0.00  0.00    +0.000 S 
ATOM      3  C   UNL     1       3.124   3.878  17.961  0.00  0.00    +0.000 A 
ATOM      4  C   UNL     1       2.075   3.343  18.743  0.00  0.00    +0.000 A 
ATOM      5  C   UNL     1       1.635   4.032  19.865  0.00  0.00    +0.000 A 
ATOM      6  C   UNL     1       2.233   5.229  20.200  0.00  0.00    +0.000 A 
ATOM      7  C   UNL     1       3.321   5.717  19.452  0.00  0.00    +0.000 A 
ATOM      8  C   UNL     1       3.832   5.034  18.305  0.00  0.00    +0.000 A 
ATOM      9  C   UNL     1       5.002   5.251  17.398  0.00  0.00    +0.000 A 
ENDROOT
BRANCH   1  14
ATOM     10  C   UNL     1       5.679   3.546  12.661  0.00  0.00    +0.000 A 
ATOM     11  C   UNL     1       6.969   4.075  12.538  0.00  0.00    +0.000 A 
ATOM     12  C   UNL     1       7.575   4.712  13.613  0.00  0.00    +0.000 A 
ATOM     13  C   UNL     1       6.886   4.842  14.816  0.00  0.00    +0.000 A 
ATOM     14  C   UNL     1       5.588   4.315  14.972  0.00  0.00    +0.000 A 
ATOM     15  C   UNL     1       4.998   3.657  13.879  0.00  0.00    +0.000 A 
BRANCH  10  17
ATOM     16  C   UNL     1       3.842   3.113  11.209  0.00  0.00    +0.000 C 
ATOM     17  O   UNL     1       5.216   2.942  11.525  0.00  0.00    +0.000 OA
ENDBRANCH  10  17
ENDBRANCH   1  14
BRANCH   9  18
ATOM     18  C   UNL     1       6.204   6.134  17.632  0.00  0.00    +0.000 A 
ATOM     19  C   UNL     1       6.323   7.412  17.074  0.00  0.00    +0.000 A 
ATOM     20  C   UNL     1       7.302   8.338  17.492  0.00  0.00    +0.000 A 
ATOM     21  C   UNL     1       8.229   7.997  18.468  0.00  0.00    +0.000 A 
ATOM     22  C   UNL     1       8.238   6.690  18.927  0.00  0.00    +0.000 A 
ATOM     23  C   UNL     1       7.220   5.796  18.545  0.00  0.00    +0.000 A 
BRANCH  21  24
ATOM     24  O   UNL     1       9.129   8.847  19.048  0.00  0.00    +0.000 OA
BRANCH  24  25
ATOM     25  C   UNL     1       8.998  10.223  18.640  0.00  0.00    +0.000 C 
BRANCH  25  26
ATOM     26  C   UNL     1       9.659  11.174  19.668  0.00  0.00    +0.000 C 
BRANCH  26  27
ATOM     27  N   UNL     1      10.571  12.177  19.067  0.00  0.00    +0.000 NA
ATOM     28  C   UNL     1      10.471  12.151  17.594  0.00  0.00    +0.000 C 
ATOM     29  C   UNL     1      11.429  13.143  16.926  0.00  0.00    +0.000 C 
ATOM     30  C   UNL     1      11.235  14.556  17.460  0.00  0.00    +0.000 C 
ATOM     31  C   UNL     1      11.307  14.550  18.980  0.00  0.00    +0.000 C 
ATOM     32  C   UNL     1      10.337  13.533  19.582  0.00  0.00    +0.000 C 
ENDBRANCH  26  27
ENDBRANCH  25  26
ENDBRANCH  24  25
ENDBRANCH  21  24
ENDBRANCH   9  18
TORSDOF 7
ENDMDL
MODEL 3
REMARK VINA RESULT:      -8.0      0.604      1.067
REMARK  Name = 
REMARK  8 active torsions:
REMARK  status: ('A' for Active; 'I' for Inactive)
REMARK    1  A    between atoms: C_1  and  O_2
REMARK    2  A    between atoms: O_2  and  C_3
REMARK    3  A    between atoms: C_7  and  C_8
REMARK    4  A    between atoms: C_16  and  C_17
REMARK    5  A    between atoms: C_20  and  O_21
REMARK    6  A    between atoms: O_21  and  C_22
REMARK    7  A    between atoms: C_22  and  C_23
REMARK    8  A    between atoms: C_23  and  N_24
REMARK                            x       y       z     vdW  Elec       q    Type
REMARK                         _______ _______ _______ _____ _____    ______ ____
ROOT
ATOM      1  C   UNL     1      -0.532  12.250  18.519  0.00  0.00    +0.000 A 
ATOM      2  S   UNL     1      -0.610  13.953  18.733  0.00  0.00    +0.000 S 
ATOM      3  C   UNL     1       1.073  14.143  18.761  0.00  0.00    +0.000 A 
ATOM      4  C   UNL     1       1.736  15.379  18.938  0.00  0.00    +0.000 A 
ATOM      5  C   UNL     1       3.117  15.441  18.807  0.00  0.00    +0.000 A 
ATOM      6  C   UNL     1       3.819  14.292  18.507  0.00  0.00    +0.000 A 
ATOM      7  C   UNL     1       3.153  13.056  18.401  0.00  0.00    +0.000 A 
ATOM      8  C   UNL     1       1.738  12.931  18.554  0.00  0.00    +0.000 A 
ATOM      9  C   UNL     1       0.792  11.772  18.591  0.00  0.00    +0.000 A 
ENDROOT
BRANCH   1  14
ATOM     10  C   UNL     1      -4.249  11.496  18.736  0.00  0.00    +0.000 A 
ATOM     11  C   UNL     1      -4.332  10.331  17.964  0.00  0.00    +0.000 A 
ATOM     12  C   UNL     1      -3.195   9.796  17.373  0.00  0.00    +0.000 A 
ATOM     13  C   UNL     1      -1.968  10.435  17.532  0.00  0.00    +0.000 A 
ATOM     14  C   UNL     1      -1.853  11.606  18.307  0.00  0.00    +0.000 A 
ATOM     15  C   UNL     1      -3.011  12.123  18.914  0.00  0.00    +0.000 A 
BRANCH  10  17
ATOM     16  C   UNL     1      -5.428  12.477  20.558  0.00  0.00    +0.000 C 
ATOM     17  O   UNL     1      -5.446  11.900  19.261  0.00  0.00    +0.000 OA
ENDBRANCH  10  17
ENDBRANCH   1  14
BRANCH   9  18
ATOM     18  C   UNL     1       1.124  10.311  18.782  0.00  0.00    +0.000 A 
ATOM     19  C   UNL     1       1.777   9.552  17.805  0.00  0.00    +0.000 A 
ATOM     20  C   UNL     1       2.322   8.278  18.069  0.00  0.00    +0.000 A 
ATOM     21  C   UNL     1       2.196   7.699  19.325  0.00  0.00    +0.000 A 
ATOM     22  C   UNL     1       1.419   8.354  20.266  0.00  0.00    +0.000 A 
ATOM     23  C   UNL     1       0.932   9.650  20.009  0.00  0.00    +0.000 A 
BRANCH  21  24
ATOM     24  O   UNL     1       2.795   6.541  19.737  0.00  0.00    +0.000 OA
BRANCH  24  25
ATOM     25  C   UNL     1       2.339   5.358  19.052  0.00  0.00    +0.000 C 
BRANCH  25  26
ATOM     26  C   UNL     1       3.481   4.323  18.908  0.00  0.00    +0.000 C 
BRANCH  26  27
ATOM     27  N   UNL     1       4.642   4.805  18.121  0.00  0.00    +0.000 NA
ATOM     28  C   UNL     1       5.858   4.830  18.957  0.00  0.00    +0.000 C 
ATOM     29  C   UNL     1       7.078   5.363  18.197  0.00  0.00    +0.000 C 
ATOM     30  C   UNL     1       7.318   4.588  16.908  0.00  0.00    +0.000 C 
ATOM     31  C   UNL     1       6.041   4.546  16.082  0.00  0.00    +0.000 C 
ATOM     32  C   UNL     1       4.863   4.016  16.901  0.00  0.00    +0.000 C 
ENDBRANCH  26  27
ENDBRANCH  25  26
ENDBRANCH  24  25
ENDBRANCH  21  24
ENDBRANCH   9  18
TORSDOF 7
ENDMDL
MODEL 4
REMARK VINA RESULT:      -8.0      3.782     10.090
REMARK  Name = 
REMARK  8 active torsions:
REMARK  status: ('A' for Active; 'I' for Inactive)
REMARK    1  A    between atoms: C_1  and  O_2
REMARK    2  A    between atoms: O_2  and  C_3
REMARK    3  A    between atoms: C_7  and  C_8
REMARK    4  A    between atoms: C_16  and  C_17
REMARK    5  A    between atoms: C_20  and  O_21
REMARK    6  A    between atoms: O_21  and  C_22
REMARK    7  A    between atoms: C_22  and  C_23
REMARK    8  A    between atoms: C_23  and  N_24
REMARK                            x       y       z     vdW  Elec       q    Type
REMARK                         _______ _______ _______ _____ _____    ______ ____
ROOT
ATOM      1  C   UNL     1       4.267   4.692  18.565  0.00  0.00    +0.000 A 
ATOM      2  S   UNL     1       4.723   3.192  19.270  0.00  0.00    +0.000 S 
ATOM      3  C   UNL     1       3.365   3.121  20.279  0.00  0.00    +0.000 A 
ATOM      4  C   UNL     1       3.107   2.081  21.201  0.00  0.00    +0.000 A 
ATOM      5  C   UNL     1       1.896   2.052  21.880  0.00  0.00    +0.000 A 
ATOM      6  C   UNL     1       0.964   3.041  21.643  0.00  0.00    +0.000 A 
ATOM      7  C   UNL     1       1.262   4.107  20.773  0.00  0.00    +0.000 A 
ATOM      8  C   UNL     1       2.503   4.201  20.071  0.00  0.00    +0.000 A 
ATOM      9  C   UNL     1       3.123   5.235  19.183  0.00  0.00    +0.000 A 
ENDROOT
BRANCH   1  14
ATOM     10  C   UNL     1       6.981   6.515  16.630  0.00  0.00    +0.000 A 
ATOM     11  C   UNL     1       6.766   6.022  15.338  0.00  0.00    +0.000 A 
ATOM     12  C   UNL     1       5.754   5.102  15.095  0.00  0.00    +0.000 A 
ATOM     13  C   UNL     1       4.962   4.652  16.148  0.00  0.00    +0.000 A 
ATOM     14  C   UNL     1       5.152   5.134  17.458  0.00  0.00    +0.000 A 
ATOM     15  C   UNL     1       6.168   6.079  17.683  0.00  0.00    +0.000 A 
BRANCH  10  17
ATOM     16  C   UNL     1       7.991   8.317  17.816  0.00  0.00    +0.000 C 
ATOM     17  O   UNL     1       8.004   7.418  16.716  0.00  0.00    +0.000 OA
ENDBRANCH  10  17
ENDBRANCH   1  14
BRANCH   9  18
ATOM     18  C   UNL     1       2.707   6.676  19.009  0.00  0.00    +0.000 A 
ATOM     19  C   UNL     1       2.790   7.344  17.782  0.00  0.00    +0.000 A 
ATOM     20  C   UNL     1       2.167   8.587  17.548  0.00  0.00    +0.000 A 
ATOM     21  C   UNL     1       1.464   9.230  18.558  0.00  0.00    +0.000 A 
ATOM     22  C   UNL     1       1.496   8.673  19.826  0.00  0.00    +0.000 A 
ATOM     23  C   UNL     1       2.070   7.404  20.031  0.00  0.00    +0.000 A 
BRANCH  21  24
ATOM     24  O   UNL     1       0.710  10.360  18.414  0.00  0.00    +0.000 OA
BRANCH  24  25
ATOM     25  C   UNL     1      -0.020  10.745  19.596  0.00  0.00    +0.000 C 
BRANCH  25  26
ATOM     26  C   UNL     1      -1.128  11.772  19.257  0.00  0.00    +0.000 C 
BRANCH  26  27
ATOM     27  N   UNL     1      -2.277  11.202  18.512  0.00  0.00    +0.000 NA
ATOM     28  C   UNL     1      -3.539  11.833  18.947  0.00  0.00    +0.000 C 
ATOM     29  C   UNL     1      -4.761  11.244  18.234  0.00  0.00    +0.000 C 
ATOM     30  C   UNL     1      -4.612  11.311  16.719  0.00  0.00    +0.000 C 
ATOM     31  C   UNL     1      -3.289  10.688  16.301  0.00  0.00    +0.000 C 
ATOM     32  C   UNL     1      -2.114  11.310  17.056  0.00  0.00    +0.000 C 
ENDBRANCH  26  27
ENDBRANCH  25  26
ENDBRANCH  24  25
ENDBRANCH  21  24
ENDBRANCH   9  18
TORSDOF 7
ENDMDL
MODEL 5
REMARK VINA RESULT:      -8.0      2.056      2.551
REMARK  Name = 
REMARK  8 active torsions:
REMARK  status: ('A' for Active; 'I' for Inactive)
REMARK    1  A    between atoms: C_1  and  O_2
REMARK    2  A    between atoms: O_2  and  C_3
REMARK    3  A    between atoms: C_7  and  C_8
REMARK    4  A    between atoms: C_16  and  C_17
REMARK    5  A    between atoms: C_20  and  O_21
REMARK    6  A    between atoms: O_21  and  C_22
REMARK    7  A    between atoms: C_22  and  C_23
REMARK    8  A    between atoms: C_23  and  N_24
REMARK                            x       y       z     vdW  Elec       q    Type
REMARK                         _______ _______ _______ _____ _____    ______ ____
ROOT
ATOM      1  C   UNL     1      -0.393  12.785  18.622  0.00  0.00    +0.000 A 
ATOM      2  S   UNL     1      -0.327  14.491  18.821  0.00  0.00    +0.000 S 
ATOM      3  C   UNL     1       1.365  14.544  18.802  0.00  0.00    +0.000 A 
ATOM      4  C   UNL     1       2.131  15.724  18.949  0.00  0.00    +0.000 A 
ATOM      5  C   UNL     1       3.508  15.672  18.782  0.00  0.00    +0.000 A 
ATOM      6  C   UNL     1       4.107  14.468  18.476  0.00  0.00    +0.000 A 
ATOM      7  C   UNL     1       3.341  13.290  18.399  0.00  0.00    +0.000 A 
ATOM      8  C   UNL     1       1.925  13.281  18.591  0.00  0.00    +0.000 A 
ATOM      9  C   UNL     1       0.889  12.203  18.665  0.00  0.00    +0.000 A 
ENDROOT
BRANCH   1  14
ATOM     10  C   UNL     1      -3.465  11.169  17.077  0.00  0.00    +0.000 A 
ATOM     11  C   UNL     1      -4.394  11.316  18.113  0.00  0.00    +0.000 A 
ATOM     12  C   UNL     1      -4.029  11.927  19.306  0.00  0.00    +0.000 A 
ATOM     13  C   UNL     1      -2.723  12.379  19.478  0.00  0.00    +0.000 A 
ATOM     14  C   UNL     1      -1.767  12.250  18.451  0.00  0.00    +0.000 A 
ATOM     15  C   UNL     1      -2.159  11.645  17.244  0.00  0.00    +0.000 A 
BRANCH  10  17
ATOM     16  C   UNL     1      -3.039  10.118  14.982  0.00  0.00    +0.000 C 
ATOM     17  O   UNL     1      -3.968  10.557  15.963  0.00  0.00    +0.000 OA
ENDBRANCH  10  17
ENDBRANCH   1  14
BRANCH   9  18
ATOM     18  C   UNL     1       1.107  10.721  18.861  0.00  0.00    +0.000 A 
ATOM     19  C   UNL     1       1.745   9.919  17.908  0.00  0.00    +0.000 A 
ATOM     20  C   UNL     1       2.186   8.608  18.189  0.00  0.00    +0.000 A 
ATOM     21  C   UNL     1       1.965   8.038  19.435  0.00  0.00    +0.000 A 
ATOM     22  C   UNL     1       1.199   8.745  20.346  0.00  0.00    +0.000 A 
ATOM     23  C   UNL     1       0.817  10.073  20.076  0.00  0.00    +0.000 A 
BRANCH  21  24
ATOM     24  O   UNL     1       2.461   6.839  19.865  0.00  0.00    +0.000 OA
BRANCH  24  25
ATOM     25  C   UNL     1       1.559   6.084  20.697  0.00  0.00    +0.000 C 
BRANCH  25  26
ATOM     26  C   UNL     1       2.131   4.679  21.009  0.00  0.00    +0.000 C 
BRANCH  26  27
ATOM     27  N   UNL     1       2.735   3.996  19.839  0.00  0.00    +0.000 NA
ATOM     28  C   UNL     1       3.364   2.725  20.250  0.00  0.00    +0.000 C 
ATOM     29  C   UNL     1       4.041   2.004  19.080  0.00  0.00    +0.000 C 
ATOM     30  C   UNL     1       3.075   1.785  17.922  0.00  0.00    +0.000 C 
ATOM     31  C   UNL     1       2.416   3.102  17.542  0.00  0.00    +0.000 C 
ATOM     32  C   UNL     1       1.770   3.775  18.754  0.00  0.00    +0.000 C 
ENDBRANCH  26  27
ENDBRANCH  25  26
ENDBRANCH  24  25
ENDBRANCH  21  24
ENDBRANCH   9  18
TORSDOF 7
ENDMDL
MODEL 6
REMARK VINA RESULT:      -7.9      3.949     10.088
REMARK  Name = 
REMARK  8 active torsions:
REMARK  status: ('A' for Active; 'I' for Inactive)
REMARK    1  A    between atoms: C_1  and  O_2
REMARK    2  A    between atoms: O_2  and  C_3
REMARK    3  A    between atoms: C_7  and  C_8
REMARK    4  A    between atoms: C_16  and  C_17
REMARK    5  A    between atoms: C_20  and  O_21
REMARK    6  A    between atoms: O_21  and  C_22
REMARK    7  A    between atoms: C_22  and  C_23
REMARK    8  A    between atoms: C_23  and  N_24
REMARK                            x       y       z     vdW  Elec       q    Type
REMARK                         _______ _______ _______ _____ _____    ______ ____
ROOT
ATOM      1  C   UNL     1       4.270   4.628  18.602  0.00  0.00    +0.000 A 
ATOM      2  S   UNL     1       4.713   3.127  19.315  0.00  0.00    +0.000 S 
ATOM      3  C   UNL     1       3.361   3.080  20.333  0.00  0.00    +0.000 A 
ATOM      4  C   UNL     1       3.097   2.049  21.264  0.00  0.00    +0.000 A 
ATOM      5  C   UNL     1       1.890   2.039  21.951  0.00  0.00    +0.000 A 
ATOM      6  C   UNL     1       0.968   3.038  21.713  0.00  0.00    +0.000 A 
ATOM      7  C   UNL     1       1.273   4.094  20.833  0.00  0.00    +0.000 A 
ATOM      8  C   UNL     1       2.510   4.169  20.123  0.00  0.00    +0.000 A 
ATOM      9  C   UNL     1       3.137   5.189  19.224  0.00  0.00    +0.000 A 
ENDROOT
BRANCH   1  14
ATOM     10  C   UNL     1       6.925   6.477  16.611  0.00  0.00    +0.000 A 
ATOM     11  C   UNL     1       6.761   5.900  15.346  0.00  0.00    +0.000 A 
ATOM     12  C   UNL     1       5.804   4.916  15.140  0.00  0.00    +0.000 A 
ATOM     13  C   UNL     1       5.015   4.486  16.204  0.00  0.00    +0.000 A 
ATOM     14  C   UNL     1       5.154   5.051  17.487  0.00  0.00    +0.000 A 
ATOM     15  C   UNL     1       6.115   6.060  17.673  0.00  0.00    +0.000 A 
BRANCH  10  17
ATOM     16  C   UNL     1       7.863   8.346  17.751  0.00  0.00    +0.000 C 
ATOM     17  O   UNL     1       7.898   7.436  16.661  0.00  0.00    +0.000 OA
ENDBRANCH  10  17
ENDBRANCH   1  14
BRANCH   9  18
ATOM     18  C   UNL     1       2.737   6.634  19.043  0.00  0.00    +0.000 A 
ATOM     19  C   UNL     1       2.850   7.301  17.817  0.00  0.00    +0.000 A 
ATOM     20  C   UNL     1       2.242   8.550  17.572  0.00  0.00    +0.000 A 
ATOM     21  C   UNL     1       1.526   9.198  18.569  0.00  0.00    +0.000 A 
ATOM     22  C   UNL     1       1.529   8.641  19.837  0.00  0.00    +0.000 A 
ATOM     23  C   UNL     1       2.088   7.367  20.053  0.00  0.00    +0.000 A 
BRANCH  21  24
ATOM     24  O   UNL     1       0.785  10.335  18.411  0.00  0.00    +0.000 OA
BRANCH  24  25
ATOM     25  C   UNL     1       1.328  11.498  19.068  0.00  0.00    +0.000 C 
BRANCH  25  26
ATOM     26  C   UNL     1       0.211  12.508  19.427  0.00  0.00    +0.000 C 
BRANCH  26  27
ATOM     27  N   UNL     1      -0.742  12.020  20.453  0.00  0.00    +0.000 NA
ATOM     28  C   UNL     1      -0.015  11.464  21.611  0.00  0.00    +0.000 C 
ATOM     29  C   UNL     1      -0.960  10.907  22.681  0.00  0.00    +0.000 C 
ATOM     30  C   UNL     1      -1.979  11.948  23.126  0.00  0.00    +0.000 C 
ATOM     31  C   UNL     1      -2.688  12.531  21.913  0.00  0.00    +0.000 C 
ATOM     32  C   UNL     1      -1.690  13.058  20.881  0.00  0.00    +0.000 C 
ENDBRANCH  26  27
ENDBRANCH  25  26
ENDBRANCH  24  25
ENDBRANCH  21  24
ENDBRANCH   9  18
TORSDOF 7
ENDMDL
MODEL 7
REMARK VINA RESULT:      -7.9      7.055     10.425
REMARK  Name = 
REMARK  8 active torsions:
REMARK  status: ('A' for Active; 'I' for Inactive)
REMARK    1  A    between atoms: C_1  and  O_2
REMARK    2  A    between atoms: O_2  and  C_3
REMARK    3  A    between atoms: C_7  and  C_8
REMARK    4  A    between atoms: C_16  and  C_17
REMARK    5  A    between atoms: C_20  and  O_21
REMARK    6  A    between atoms: O_21  and  C_22
REMARK    7  A    between atoms: C_22  and  C_23
REMARK    8  A    between atoms: C_23  and  N_24
REMARK                            x       y       z     vdW  Elec       q    Type
REMARK                         _______ _______ _______ _____ _____    ______ ____
ROOT
ATOM      1  C   UNL     1       4.934   4.463  16.420  0.00  0.00    +0.000 A 
ATOM      2  S   UNL     1       3.731   3.264  16.683  0.00  0.00    +0.000 S 
ATOM      3  C   UNL     1       3.231   3.924  18.160  0.00  0.00    +0.000 A 
ATOM      4  C   UNL     1       2.214   3.379  18.977  0.00  0.00    +0.000 A 
ATOM      5  C   UNL     1       1.789   4.077  20.100  0.00  0.00    +0.000 A 
ATOM      6  C   UNL     1       2.370   5.292  20.401  0.00  0.00    +0.000 A 
ATOM      7  C   UNL     1       3.428   5.789  19.617  0.00  0.00    +0.000 A 
ATOM      8  C   UNL     1       3.923   5.099  18.468  0.00  0.00    +0.000 A 
ATOM      9  C   UNL     1       5.065   5.326  17.527  0.00  0.00    +0.000 A 
ENDROOT
BRANCH   1  14
ATOM     10  C   UNL     1       5.691   3.498  12.824  0.00  0.00    +0.000 A 
ATOM     11  C   UNL     1       6.932   4.118  12.636  0.00  0.00    +0.000 A 
ATOM     12  C   UNL     1       7.517   4.848  13.663  0.00  0.00    +0.000 A 
ATOM     13  C   UNL     1       6.855   4.981  14.881  0.00  0.00    +0.000 A 
ATOM     14  C   UNL     1       5.607   4.364  15.101  0.00  0.00    +0.000 A 
ATOM     15  C   UNL     1       5.039   3.613  14.057  0.00  0.00    +0.000 A 
BRANCH  10  17
ATOM     16  C   UNL     1       5.959   1.638  11.360  0.00  0.00    +0.000 C 
ATOM     17  O   UNL     1       5.245   2.809  11.731  0.00  0.00    +0.000 OA
ENDBRANCH  10  17
ENDBRANCH   1  14
BRANCH   9  18
ATOM     18  C   UNL     1       6.254   6.237  17.716  0.00  0.00    +0.000 A 
ATOM     19  C   UNL     1       6.316   7.523  17.165  0.00  0.00    +0.000 A 
ATOM     20  C   UNL     1       7.289   8.469  17.549  0.00  0.00    +0.000 A 
ATOM     21  C   UNL     1       8.267   8.143  18.479  0.00  0.00    +0.000 A 
ATOM     22  C   UNL     1       8.329   6.833  18.923  0.00  0.00    +0.000 A 
ATOM     23  C   UNL     1       7.318   5.916  18.578  0.00  0.00    +0.000 A 
BRANCH  21  24
ATOM     24  O   UNL     1       9.171   9.010  19.027  0.00  0.00    +0.000 OA
BRANCH  24  25
ATOM     25  C   UNL     1       9.061  10.365  18.550  0.00  0.00    +0.000 C 
BRANCH  25  26
ATOM     26  C   UNL     1       9.386  11.380  19.674  0.00  0.00    +0.000 C 
BRANCH  26  27
ATOM     27  N   UNL     1       9.986  12.648  19.193  0.00  0.00    +0.000 NA
ATOM     28  C   UNL     1      10.961  13.163  20.174  0.00  0.00    +0.000 C 
ATOM     29  C   UNL     1      11.576  14.498  19.739  0.00  0.00    +0.000 C 
ATOM     30  C   UNL     1      12.197  14.403  18.351  0.00  0.00    +0.000 C 
ATOM     31  C   UNL     1      11.184  13.837  17.368  0.00  0.00    +0.000 C 
ATOM     32  C   UNL     1      10.601  12.513  17.866  0.00  0.00    +0.000 C 
ENDBRANCH  26  27
ENDBRANCH  25  26
ENDBRANCH  24  25
ENDBRANCH  21  24
ENDBRANCH   9  18
TORSDOF 7
ENDMDL
MODEL 8
REMARK VINA RESULT:      -7.9      3.941     10.228
REMARK  Name = 
REMARK  8 active torsions:
REMARK  status: ('A' for Active; 'I' for Inactive)
REMARK    1  A    between atoms: C_1  and  O_2
REMARK    2  A    between atoms: O_2  and  C_3
REMARK    3  A    between atoms: C_7  and  C_8
REMARK    4  A    between atoms: C_16  and  C_17
REMARK    5  A    between atoms: C_20  and  O_21
REMARK    6  A    between atoms: O_21  and  C_22
REMARK    7  A    between atoms: C_22  and  C_23
REMARK    8  A    between atoms: C_23  and  N_24
REMARK                            x       y       z     vdW  Elec       q    Type
REMARK                         _______ _______ _______ _____ _____    ______ ____
ROOT
ATOM      1  C   UNL     1       4.431   5.060  18.799  0.00  0.00    +0.000 A 
ATOM      2  S   UNL     1       4.864   3.556  19.509  0.00  0.00    +0.000 S 
ATOM      3  C   UNL     1       3.377   3.367  20.297  0.00  0.00    +0.000 A 
ATOM      4  C   UNL     1       3.046   2.274  21.130  0.00  0.00    +0.000 A 
ATOM      5  C   UNL     1       1.750   2.150  21.615  0.00  0.00    +0.000 A 
ATOM      6  C   UNL     1       0.808   3.098  21.276  0.00  0.00    +0.000 A 
ATOM      7  C   UNL     1       1.169   4.217  20.501  0.00  0.00    +0.000 A 
ATOM      8  C   UNL     1       2.493   4.409  20.000  0.00  0.00    +0.000 A 
ATOM      9  C   UNL     1       3.177   5.513  19.256  0.00  0.00    +0.000 A 
ENDROOT
BRANCH   1  14
ATOM     10  C   UNL     1       6.556   5.555  15.689  0.00  0.00    +0.000 A 
ATOM     11  C   UNL     1       7.422   6.569  16.115  0.00  0.00    +0.000 A 
ATOM     12  C   UNL     1       7.315   7.094  17.397  0.00  0.00    +0.000 A 
ATOM     13  C   UNL     1       6.327   6.621  18.257  0.00  0.00    +0.000 A 
ATOM     14  C   UNL     1       5.444   5.598  17.858  0.00  0.00    +0.000 A 
ATOM     15  C   UNL     1       5.578   5.066  16.563  0.00  0.00    +0.000 A 
BRANCH  10  17
ATOM     16  C   UNL     1       5.924   4.128  13.890  0.00  0.00    +0.000 C 
ATOM     17  O   UNL     1       6.783   5.133  14.409  0.00  0.00    +0.000 OA
ENDBRANCH  10  17
ENDBRANCH   1  14
BRANCH   9  18
ATOM     18  C   UNL     1       2.707   6.937  19.075  0.00  0.00    +0.000 A 
ATOM     19  C   UNL     1       2.824   7.622  17.860  0.00  0.00    +0.000 A 
ATOM     20  C   UNL     1       2.160   8.839  17.605  0.00  0.00    +0.000 A 
ATOM     21  C   UNL     1       1.378   9.438  18.584  0.00  0.00    +0.000 A 
ATOM     22  C   UNL     1       1.368   8.869  19.846  0.00  0.00    +0.000 A 
ATOM     23  C   UNL     1       1.987   7.623  20.068  0.00  0.00    +0.000 A 
BRANCH  21  24
ATOM     24  O   UNL     1       0.582  10.536  18.411  0.00  0.00    +0.000 OA
BRANCH  24  25
ATOM     25  C   UNL     1       0.792  11.583  19.379  0.00  0.00    +0.000 C 
BRANCH  25  26
ATOM     26  C   UNL     1      -0.479  12.450  19.548  0.00  0.00    +0.000 C 
BRANCH  26  27
ATOM     27  N   UNL     1      -1.352  12.035  20.673  0.00  0.00    +0.000 NA
ATOM     28  C   UNL     1      -0.540  11.690  21.857  0.00  0.00    +0.000 C 
ATOM     29  C   UNL     1      -1.398  11.213  23.034  0.00  0.00    +0.000 C 
ATOM     30  C   UNL     1      -2.477  12.228  23.389  0.00  0.00    +0.000 C 
ATOM     31  C   UNL     1      -3.275  12.592  22.147  0.00  0.00    +0.000 C 
ATOM     32  C   UNL     1      -2.361  13.049  21.009  0.00  0.00    +0.000 C 
ENDBRANCH  26  27
ENDBRANCH  25  26
ENDBRANCH  24  25
ENDBRANCH  21  24
ENDBRANCH   9  18
TORSDOF 7
ENDMDL
MODEL 9
REMARK VINA RESULT:      -7.9      1.481      1.908
REMARK  Name = 
REMARK  8 active torsions:
REMARK  status: ('A' for Active; 'I' for Inactive)
REMARK    1  A    between atoms: C_1  and  O_2
REMARK    2  A    between atoms: O_2  and  C_3
REMARK    3  A    between atoms: C_7  and  C_8
REMARK    4  A    between atoms: C_16  and  C_17
REMARK    5  A    between atoms: C_20  and  O_21
REMARK    6  A    between atoms: O_21  and  C_22
REMARK    7  A    between atoms: C_22  and  C_23
REMARK    8  A    between atoms: C_23  and  N_24
REMARK                            x       y       z     vdW  Elec       q    Type
REMARK                         _______ _______ _______ _____ _____    ______ ____
ROOT
ATOM      1  C   UNL     1      -0.906  12.274  19.372  0.00  0.00    +0.000 A 
ATOM      2  S   UNL     1      -1.202  13.860  19.964  0.00  0.00    +0.000 S 
ATOM      3  C   UNL     1       0.376  14.064  20.543  0.00  0.00    +0.000 A 
ATOM      4  C   UNL     1       0.841  15.221  21.209  0.00  0.00    +0.000 A 
ATOM      5  C   UNL     1       2.190  15.338  21.519  0.00  0.00    +0.000 A 
ATOM      6  C   UNL     1       3.054  14.320  21.172  0.00  0.00    +0.000 A 
ATOM      7  C   UNL     1       2.566  13.145  20.570  0.00  0.00    +0.000 A 
ATOM      8  C   UNL     1       1.184  12.960  20.255  0.00  0.00    +0.000 A 
ATOM      9  C   UNL     1       0.381  11.816  19.720  0.00  0.00    +0.000 A 
ENDROOT
BRANCH   1  14
ATOM     10  C   UNL     1      -2.901  10.377  16.753  0.00  0.00    +0.000 A 
ATOM     11  C   UNL     1      -4.211  10.651  17.164  0.00  0.00    +0.000 A 
ATOM     12  C   UNL     1      -4.447  11.438  18.284  0.00  0.00    +0.000 A 
ATOM     13  C   UNL     1      -3.373  11.941  19.014  0.00  0.00    +0.000 A 
ATOM     14  C   UNL     1      -2.044  11.686  18.622  0.00  0.00    +0.000 A 
ATOM     15  C   UNL     1      -1.824  10.904  17.475  0.00  0.00    +0.000 A 
BRANCH  10  17
ATOM     16  C   UNL     1      -3.191  10.192  14.396  0.00  0.00    +0.000 C 
ATOM     17  O   UNL     1      -2.823   9.597  15.633  0.00  0.00    +0.000 OA
ENDBRANCH  10  17
ENDBRANCH   1  14
BRANCH   9  18
ATOM     18  C   UNL     1       0.781  10.362  19.637  0.00  0.00    +0.000 A 
ATOM     19  C   UNL     1       1.401   9.813  18.509  0.00  0.00    +0.000 A 
ATOM     20  C   UNL     1       2.011   8.541  18.519  0.00  0.00    +0.000 A 
ATOM     21  C   UNL     1       1.986   7.752  19.661  0.00  0.00    +0.000 A 
ATOM     22  C   UNL     1       1.245   8.199  20.742  0.00  0.00    +0.000 A 
ATOM     23  C   UNL     1       0.693   9.494  20.740  0.00  0.00    +0.000 A 
BRANCH  21  24
ATOM     24  O   UNL     1       2.654   6.572  19.833  0.00  0.00    +0.000 OA
BRANCH  24  25
ATOM     25  C   UNL     1       3.407   6.141  18.682  0.00  0.00    +0.000 C 
BRANCH  25  26
ATOM     26  C   UNL     1       3.793   4.645  18.797  0.00  0.00    +0.000 C 
BRANCH  26  27
ATOM     27  N   UNL     1       4.978   4.260  17.993  0.00  0.00    +0.000 NA
ATOM     28  C   UNL     1       4.659   4.297  16.552  0.00  0.00    +0.000 C 
ATOM     29  C   UNL     1       5.843   3.864  15.681  0.00  0.00    +0.000 C 
ATOM     30  C   UNL     1       7.091   4.684  15.984  0.00  0.00    +0.000 C 
ATOM     31  C   UNL     1       7.377   4.659  17.477  0.00  0.00    +0.000 C 
ATOM     32  C   UNL     1       6.154   5.090  18.288  0.00  0.00    +0.000 C 
ENDBRANCH  26  27
ENDBRANCH  25  26
ENDBRANCH  24  25
ENDBRANCH  21  24
ENDBRANCH   9  18
TORSDOF 7
ENDMDL
