MODEL 1
REMARK VINA RESULT:      -7.5      0.000      0.000
REMARK  Name = 
REMARK  5 active torsions:
REMARK  status: ('A' for Active; 'I' for Inactive)
REMARK    1  A    between atoms: N_12  and  N_13
REMARK    2  A    between atoms: N_13  and  C_14
REMARK    3  A    between atoms: C_14  and  N_16
REMARK    4  A    between atoms: N_16  and  N_17
REMARK    5  A    between atoms: C_18  and  C_19
REMARK                            x       y       z     vdW  Elec       q    Type
REMARK                         _______ _______ _______ _____ _____    ______ ____
ROOT
ATOM      1  N   UNL     1       3.483   2.229  18.934  0.00  0.00    +0.000 N 
ATOM      2  H   UNL     1       4.096   1.865  19.663  0.00  0.00    +0.000 HD
ENDROOT
BRANCH   1  14
ATOM      3  O   UNL     1       5.406   4.117  19.887  0.00  0.00    +0.000 OA
ATOM      4  C   UNL     1       5.641   4.193  18.706  0.00  0.00    +0.000 C 
ATOM      5  N   UNL     1       6.523   5.018  18.032  0.00  0.00    +0.000 N 
ATOM      6  C   UNL     1       6.475   4.780  16.661  0.00  0.00    +0.000 A 
ATOM      7  C   UNL     1       7.196   5.406  15.666  0.00  0.00    +0.000 A 
ATOM      8  C   UNL     1       6.964   4.993  14.344  0.00  0.00    +0.000 A 
ATOM      9  C   UNL     1       6.029   3.978  14.054  0.00  0.00    +0.000 A 
ATOM     10 BR   UNL     1       5.755   3.453  12.258  0.00  0.00    +0.000 Br
ATOM     11  C   UNL     1       5.302   3.354  15.066  0.00  0.00    +0.000 A 
ATOM     12  C   UNL     1       5.559   3.778  16.354  0.00  0.00    +0.000 A 
ATOM     13  C   UNL     1       4.962   3.362  17.615  0.00  0.00    +0.000 C 
ATOM     14  N   UNL     1       4.013   2.502  17.707  0.00  0.00    +0.000 NA
ATOM     15  H   UNL     1       7.102   5.698  18.500  0.00  0.00    +0.000 HD
ENDBRANCH   1  14
BRANCH   1  16
ATOM     16  C   UNL     1       2.325   2.868  19.319  0.00  0.00    +0.000 C 
ATOM     17  S   UNL     1       0.830   2.276  18.858  0.00  0.00    +0.000 S 
BRANCH  16  18
ATOM     18  N   UNL     1       2.420   3.972  20.137  0.00  0.00    +0.000 N 
ATOM     19  H   UNL     1       2.423   3.826  21.140  0.00  0.00    +0.000 HD
BRANCH  18  20
ATOM     20  N   UNL     1       2.014   5.179  19.655  0.00  0.00    +0.000 NA
ATOM     21  C   UNL     1       2.615   6.241  20.067  0.00  0.00    +0.000 C 
BRANCH  21  22
ATOM     22  C   UNL     1       2.199   7.550  19.527  0.00  0.00    +0.000 A 
ATOM     23  C   UNL     1       1.302   8.350  20.250  0.00  0.00    +0.000 A 
ATOM     24  F   UNL     1       0.881   8.000  21.476  0.00  0.00    +0.000 F 
ATOM     25  C   UNL     1       0.836   9.555  19.737  0.00  0.00    +0.000 A 
ATOM     26  C   UNL     1       1.266   9.986  18.486  0.00  0.00    +0.000 A 
ATOM     27  C   UNL     1       2.168   9.209  17.760  0.00  0.00    +0.000 A 
ATOM     28  C   UNL     1       2.638   7.992  18.279  0.00  0.00    +0.000 A 
ATOM     29 CL   UNL     1       3.720   7.075  17.291  0.00  0.00    +0.000 Cl
ENDBRANCH  21  22
ENDBRANCH  18  20
ENDBRANCH  16  18
ENDBRANCH   1  16
TORSDOF 5
ENDMDL
MODEL 2
REMARK VINA RESULT:      -7.5      1.344      1.586
REMARK  Name = 
REMARK  5 active torsions:
REMARK  status: ('A' for Active; 'I' for Inactive)
REMARK    1  A    between atoms: N_12  and  N_13
REMARK    2  A    between atoms: N_13  and  C_14
REMARK    3  A    between atoms: C_14  and  N_16
REMARK    4  A    between atoms: N_16  and  N_17
REMARK    5  A    between atoms: C_18  and  C_19
REMARK                            x       y       z     vdW  Elec       q    Type
REMARK                         _______ _______ _______ _____ _____    ______ ____
ROOT
ATOM      1  N   UNL     1       4.312   4.232  18.110  0.00  0.00    +0.000 N 
ATOM      2  H   UNL     1       4.481   5.180  18.446  0.00  0.00    +0.000 HD
ENDROOT
BRANCH   1  14
ATOM      3  O   UNL     1       6.697   5.803  17.993  0.00  0.00    +0.000 OA
ATOM      4  C   UNL     1       6.675   5.414  16.851  0.00  0.00    +0.000 C 
ATOM      5  N   UNL     1       7.517   5.721  15.797  0.00  0.00    +0.000 N 
ATOM      6  C   UNL     1       7.126   5.051  14.640  0.00  0.00    +0.000 A 
ATOM      7  C   UNL     1       7.707   5.106  13.392  0.00  0.00    +0.000 A 
ATOM      8  C   UNL     1       7.121   4.338  12.372  0.00  0.00    +0.000 A 
ATOM      9  C   UNL     1       5.983   3.544  12.625  0.00  0.00    +0.000 A 
ATOM     10 BR   UNL     1       5.232   2.525  11.221  0.00  0.00    +0.000 Br
ATOM     11  C   UNL     1       5.400   3.498  13.890  0.00  0.00    +0.000 A 
ATOM     12  C   UNL     1       6.005   4.258  14.870  0.00  0.00    +0.000 A 
ATOM     13  C   UNL     1       5.638   4.453  16.265  0.00  0.00    +0.000 C 
ATOM     14  N   UNL     1       4.597   3.934  16.810  0.00  0.00    +0.000 NA
ATOM     15  H   UNL     1       8.294   6.356  15.885  0.00  0.00    +0.000 HD
ENDBRANCH   1  14
BRANCH   1  16
ATOM     16  C   UNL     1       3.393   3.460  18.786  0.00  0.00    +0.000 C 
ATOM     17  S   UNL     1       3.345   1.802  18.566  0.00  0.00    +0.000 S 
BRANCH  16  18
ATOM     18  N   UNL     1       2.552   4.071  19.688  0.00  0.00    +0.000 N 
ATOM     19  H   UNL     1       2.040   3.486  20.339  0.00  0.00    +0.000 HD
BRANCH  18  20
ATOM     20  N   UNL     1       2.050   5.300  19.384  0.00  0.00    +0.000 NA
ATOM     21  C   UNL     1       2.666   6.343  19.823  0.00  0.00    +0.000 C 
BRANCH  21  22
ATOM     22  C   UNL     1       2.144   7.678  19.474  0.00  0.00    +0.000 A 
ATOM     23  C   UNL     1       1.281   8.343  20.357  0.00  0.00    +0.000 A 
ATOM     24  F   UNL     1       0.989   7.837  21.566  0.00  0.00    +0.000 F 
ATOM     25  C   UNL     1       0.717   9.570  20.026  0.00  0.00    +0.000 A 
ATOM     26  C   UNL     1       1.012  10.158  18.801  0.00  0.00    +0.000 A 
ATOM     27  C   UNL     1       1.878   9.517  17.917  0.00  0.00    +0.000 A 
ATOM     28  C   UNL     1       2.448   8.279  18.251  0.00  0.00    +0.000 A 
ATOM     29 CL   UNL     1       3.477   7.537  17.077  0.00  0.00    +0.000 Cl
ENDBRANCH  21  22
ENDBRANCH  18  20
ENDBRANCH  16  18
ENDBRANCH   1  16
TORSDOF 5
ENDMDL
MODEL 3
REMARK VINA RESULT:      -7.4      1.457      1.735
REMARK  Name = 
REMARK  5 active torsions:
REMARK  status: ('A' for Active; 'I' for Inactive)
REMARK    1  A    between atoms: N_12  and  N_13
REMARK    2  A    between atoms: N_13  and  C_14
REMARK    3  A    between atoms: C_14  and  N_16
REMARK    4  A    between atoms: N_16  and  N_17
REMARK    5  A    between atoms: C_18  and  C_19
REMARK                            x       y       z     vdW  Elec       q    Type
REMARK                         _______ _______ _______ _____ _____    ______ ____
ROOT
ATOM      1  N   UNL     1       3.466   2.548  19.187  0.00  0.00    +0.000 N 
ATOM      2  H   UNL     1       4.091   2.327  19.962  0.00  0.00    +0.000 HD
ENDROOT
BRANCH   1  14
ATOM      3  O   UNL     1       5.376   4.496  20.042  0.00  0.00    +0.000 OA
ATOM      4  C   UNL     1       5.617   4.506  18.859  0.00  0.00    +0.000 C 
ATOM      5  N   UNL     1       6.500   5.295  18.145  0.00  0.00    +0.000 N 
ATOM      6  C   UNL     1       6.461   4.979  16.789  0.00  0.00    +0.000 A 
ATOM      7  C   UNL     1       7.185   5.550  15.765  0.00  0.00    +0.000 A 
ATOM      8  C   UNL     1       6.963   5.062  14.467  0.00  0.00    +0.000 A 
ATOM      9  C   UNL     1       6.033   4.027  14.230  0.00  0.00    +0.000 A 
ATOM     10 BR   UNL     1       5.771   3.400  12.465  0.00  0.00    +0.000 Br
ATOM     11  C   UNL     1       5.303   3.459  15.272  0.00  0.00    +0.000 A 
ATOM     12  C   UNL     1       5.551   3.957  16.534  0.00  0.00    +0.000 A 
ATOM     13  C   UNL     1       4.948   3.611  17.814  0.00  0.00    +0.000 C 
ATOM     14  N   UNL     1       4.002   2.753  17.950  0.00  0.00    +0.000 NA
ATOM     15  H   UNL     1       7.074   6.003  18.576  0.00  0.00    +0.000 HD
ENDBRANCH   1  14
BRANCH   1  16
ATOM     16  C   UNL     1       2.236   3.096  19.482  0.00  0.00    +0.000 C 
ATOM     17  S   UNL     1       0.832   2.405  18.890  0.00  0.00    +0.000 S 
BRANCH  16  18
ATOM     18  N   UNL     1       2.182   4.187  20.319  0.00  0.00    +0.000 N 
ATOM     19  H   UNL     1       2.080   4.024  21.313  0.00  0.00    +0.000 HD
BRANCH  18  20
ATOM     20  N   UNL     1       1.770   5.381  19.808  0.00  0.00    +0.000 NA
ATOM     21  C   UNL     1       2.453   6.438  20.083  0.00  0.00    +0.000 C 
BRANCH  21  22
ATOM     22  C   UNL     1       2.029   7.730  19.511  0.00  0.00    +0.000 A 
ATOM     23  C   UNL     1       2.454   8.099  18.227  0.00  0.00    +0.000 A 
ATOM     24  F   UNL     1       3.166   7.260  17.456  0.00  0.00    +0.000 F 
ATOM     25  C   UNL     1       2.130   9.338  17.688  0.00  0.00    +0.000 A 
ATOM     26  C   UNL     1       1.365  10.235  18.428  0.00  0.00    +0.000 A 
ATOM     27  C   UNL     1       0.922   9.879  19.701  0.00  0.00    +0.000 A 
ATOM     28  C   UNL     1       1.250   8.627  20.244  0.00  0.00    +0.000 A 
ATOM     29 CL   UNL     1       0.694   8.288  21.846  0.00  0.00    +0.000 Cl
ENDBRANCH  21  22
ENDBRANCH  18  20
ENDBRANCH  16  18
ENDBRANCH   1  16
TORSDOF 5
ENDMDL
MODEL 4
REMARK VINA RESULT:      -7.3      6.004      7.224
REMARK  Name = 
REMARK  5 active torsions:
REMARK  status: ('A' for Active; 'I' for Inactive)
REMARK    1  A    between atoms: N_12  and  N_13
REMARK    2  A    between atoms: N_13  and  C_14
REMARK    3  A    between atoms: C_14  and  N_16
REMARK    4  A    between atoms: N_16  and  N_17
REMARK    5  A    between atoms: C_18  and  C_19
REMARK                            x       y       z     vdW  Elec       q    Type
REMARK                         _______ _______ _______ _____ _____    ______ ____
ROOT
ATOM      1  N   UNL     1       7.868   6.061  18.740  0.00  0.00    +0.000 N 
ATOM      2  H   UNL     1       8.594   5.420  18.420  0.00  0.00    +0.000 HD
ENDROOT
BRANCH   1  14
ATOM      3  O   UNL     1       7.580   4.551  16.330  0.00  0.00    +0.000 OA
ATOM      4  C   UNL     1       6.511   4.303  16.834  0.00  0.00    +0.000 C 
ATOM      5  N   UNL     1       5.448   3.573  16.335  0.00  0.00    +0.000 N 
ATOM      6  C   UNL     1       4.398   3.539  17.249  0.00  0.00    +0.000 A 
ATOM      7  C   UNL     1       3.173   2.922  17.110  0.00  0.00    +0.000 A 
ATOM      8  C   UNL     1       2.268   3.037  18.178  0.00  0.00    +0.000 A 
ATOM      9  C   UNL     1       2.607   3.757  19.343  0.00  0.00    +0.000 A 
ATOM     10 BR   UNL     1       1.356   3.881  20.755  0.00  0.00    +0.000 Br
ATOM     11  C   UNL     1       3.846   4.382  19.471  0.00  0.00    +0.000 A 
ATOM     12  C   UNL     1       4.714   4.243  18.408  0.00  0.00    +0.000 A 
ATOM     13  C   UNL     1       6.051   4.785  18.211  0.00  0.00    +0.000 C 
ATOM     14  N   UNL     1       6.639   5.559  19.051  0.00  0.00    +0.000 NA
ATOM     15  H   UNL     1       5.459   3.144  15.423  0.00  0.00    +0.000 HD
ENDBRANCH   1  14
BRANCH   1  16
ATOM     16  C   UNL     1       7.980   7.390  18.396  0.00  0.00    +0.000 C 
ATOM     17  S   UNL     1       7.088   8.020  17.128  0.00  0.00    +0.000 S 
BRANCH  16  18
ATOM     18  N   UNL     1       8.798   8.203  19.148  0.00  0.00    +0.000 N 
ATOM     19  H   UNL     1       9.024   7.912  20.092  0.00  0.00    +0.000 HD
BRANCH  18  20
ATOM     20  N   UNL     1       8.865   9.528  18.841  0.00  0.00    +0.000 NA
ATOM     21  C   UNL     1       9.555  10.303  19.603  0.00  0.00    +0.000 C 
BRANCH  21  22
ATOM     22  C   UNL     1       9.655  11.735  19.260  0.00  0.00    +0.000 A 
ATOM     23  C   UNL     1      10.246  12.124  18.049  0.00  0.00    +0.000 A 
ATOM     24  F   UNL     1      10.641  11.217  17.139  0.00  0.00    +0.000 F 
ATOM     25  C   UNL     1      10.419  13.465  17.728  0.00  0.00    +0.000 A 
ATOM     26  C   UNL     1       9.997  14.447  18.618  0.00  0.00    +0.000 A 
ATOM     27  C   UNL     1       9.395  14.079  19.820  0.00  0.00    +0.000 A 
ATOM     28  C   UNL     1       9.221  12.725  20.143  0.00  0.00    +0.000 A 
ATOM     29 CL   UNL     1       8.505  12.361  21.674  0.00  0.00    +0.000 Cl
ENDBRANCH  21  22
ENDBRANCH  18  20
ENDBRANCH  16  18
ENDBRANCH   1  16
TORSDOF 5
ENDMDL
MODEL 5
REMARK VINA RESULT:      -7.3      1.072      1.248
REMARK  Name = 
REMARK  5 active torsions:
REMARK  status: ('A' for Active; 'I' for Inactive)
REMARK    1  A    between atoms: N_12  and  N_13
REMARK    2  A    between atoms: N_13  and  C_14
REMARK    3  A    between atoms: C_14  and  N_16
REMARK    4  A    between atoms: N_16  and  N_17
REMARK    5  A    between atoms: C_18  and  C_19
REMARK                            x       y       z     vdW  Elec       q    Type
REMARK                         _______ _______ _______ _____ _____    ______ ____
ROOT
ATOM      1  N   UNL     1       3.859   3.385  19.363  0.00  0.00    +0.000 N 
ATOM      2  H   UNL     1       4.537   3.155  20.090  0.00  0.00    +0.000 HD
ENDROOT
BRANCH   1  14
ATOM      3  O   UNL     1       6.118   5.079  19.812  0.00  0.00    +0.000 OA
ATOM      4  C   UNL     1       6.217   4.949  18.617  0.00  0.00    +0.000 C 
ATOM      5  N   UNL     1       7.115   5.528  17.738  0.00  0.00    +0.000 N 
ATOM      6  C   UNL     1       6.872   5.107  16.433  0.00  0.00    +0.000 A 
ATOM      7  C   UNL     1       7.547   5.469  15.286  0.00  0.00    +0.000 A 
ATOM      8  C   UNL     1       7.106   4.911  14.075  0.00  0.00    +0.000 A 
ATOM      9  C   UNL     1       6.015   4.016  14.043  0.00  0.00    +0.000 A 
ATOM     10 BR   UNL     1       5.461   3.288  12.388  0.00  0.00    +0.000 Br
ATOM     11  C   UNL     1       5.338   3.660  15.207  0.00  0.00    +0.000 A 
ATOM     12  C   UNL     1       5.801   4.219  16.380  0.00  0.00    +0.000 A 
ATOM     13  C   UNL     1       5.309   4.082  17.743  0.00  0.00    +0.000 C 
ATOM     14  N   UNL     1       4.271   3.397  18.062  0.00  0.00    +0.000 NA
ATOM     15  H   UNL     1       7.832   6.173  18.034  0.00  0.00    +0.000 HD
ENDBRANCH   1  14
BRANCH   1  16
ATOM     16  C   UNL     1       2.750   4.119  19.720  0.00  0.00    +0.000 C 
ATOM     17  S   UNL     1       1.213   3.482  19.543  0.00  0.00    +0.000 S 
BRANCH  16  18
ATOM     18  N   UNL     1       2.932   5.365  20.277  0.00  0.00    +0.000 N 
ATOM     19  H   UNL     1       3.363   5.422  21.192  0.00  0.00    +0.000 HD
BRANCH  18  20
ATOM     20  N   UNL     1       2.128   6.386  19.870  0.00  0.00    +0.000 NA
ATOM     21  C   UNL     1       2.141   7.486  20.541  0.00  0.00    +0.000 C 
BRANCH  21  22
ATOM     22  C   UNL     1       1.293   8.606  20.089  0.00  0.00    +0.000 A 
ATOM     23  C   UNL     1       0.339   9.154  20.957  0.00  0.00    +0.000 A 
ATOM     24  F   UNL     1       0.237   8.748  22.234  0.00  0.00    +0.000 F 
ATOM     25  C   UNL     1      -0.522  10.162  20.539  0.00  0.00    +0.000 A 
ATOM     26  C   UNL     1      -0.439  10.646  19.238  0.00  0.00    +0.000 A 
ATOM     27  C   UNL     1       0.514  10.122  18.366  0.00  0.00    +0.000 A 
ATOM     28  C   UNL     1       1.383   9.104  18.789  0.00  0.00    +0.000 A 
ATOM     29 CL   UNL     1       2.504   8.486  17.626  0.00  0.00    +0.000 Cl
ENDBRANCH  21  22
ENDBRANCH  18  20
ENDBRANCH  16  18
ENDBRANCH   1  16
TORSDOF 5
ENDMDL
MODEL 6
REMARK VINA RESULT:      -7.3      1.815      2.088
REMARK  Name = 
REMARK  5 active torsions:
REMARK  status: ('A' for Active; 'I' for Inactive)
REMARK    1  A    between atoms: N_12  and  N_13
REMARK    2  A    between atoms: N_13  and  C_14
REMARK    3  A    between atoms: C_14  and  N_16
REMARK    4  A    between atoms: N_16  and  N_17
REMARK    5  A    between atoms: C_18  and  C_19
REMARK                            x       y       z     vdW  Elec       q    Type
REMARK                         _______ _______ _______ _____ _____    ______ ____
ROOT
ATOM      1  N   UNL     1       4.045   4.120  19.566  0.00  0.00    +0.000 N 
ATOM      2  H   UNL     1       4.746   4.533  20.181  0.00  0.00    +0.000 HD
ENDROOT
BRANCH   1  14
ATOM      3  O   UNL     1       6.652   5.279  19.740  0.00  0.00    +0.000 OA
ATOM      4  C   UNL     1       6.611   5.094  18.549  0.00  0.00    +0.000 C 
ATOM      5  N   UNL     1       7.529   5.430  17.570  0.00  0.00    +0.000 N 
ATOM      6  C   UNL     1       7.080   5.034  16.313  0.00  0.00    +0.000 A 
ATOM      7  C   UNL     1       7.708   5.201  15.097  0.00  0.00    +0.000 A 
ATOM      8  C   UNL     1       7.046   4.719  13.957  0.00  0.00    +0.000 A 
ATOM      9  C   UNL     1       5.787   4.091  14.060  0.00  0.00    +0.000 A 
ATOM     10 BR   UNL     1       4.936   3.455  12.495  0.00  0.00    +0.000 Br
ATOM     11  C   UNL     1       5.158   3.930  15.293  0.00  0.00    +0.000 A 
ATOM     12  C   UNL     1       5.839   4.408  16.393  0.00  0.00    +0.000 A 
ATOM     13  C   UNL     1       5.457   4.426  17.798  0.00  0.00    +0.000 C 
ATOM     14  N   UNL     1       4.327   4.000  18.237  0.00  0.00    +0.000 NA
ATOM     15  H   UNL     1       8.394   5.907  17.773  0.00  0.00    +0.000 HD
ENDBRANCH   1  14
BRANCH   1  16
ATOM     16  C   UNL     1       2.728   4.152  19.969  0.00  0.00    +0.000 C 
ATOM     17  S   UNL     1       1.625   3.046  19.370  0.00  0.00    +0.000 S 
BRANCH  16  18
ATOM     18  N   UNL     1       2.349   5.076  20.916  0.00  0.00    +0.000 N 
ATOM     19  H   UNL     1       2.266   4.770  21.879  0.00  0.00    +0.000 HD
BRANCH  18  20
ATOM     20  N   UNL     1       1.639   6.168  20.516  0.00  0.00    +0.000 NA
ATOM     21  C   UNL     1       2.274   7.264  20.281  0.00  0.00    +0.000 C 
BRANCH  21  22
ATOM     22  C   UNL     1       1.514   8.443  19.821  0.00  0.00    +0.000 A 
ATOM     23  C   UNL     1       1.470   8.755  18.455  0.00  0.00    +0.000 A 
ATOM     24  F   UNL     1       2.026   7.951  17.533  0.00  0.00    +0.000 F 
ATOM     25  C   UNL     1       0.823   9.897  17.997  0.00  0.00    +0.000 A 
ATOM     26  C   UNL     1       0.200  10.748  18.903  0.00  0.00    +0.000 A 
ATOM     27  C   UNL     1       0.223  10.445  20.263  0.00  0.00    +0.000 A 
ATOM     28  C   UNL     1       0.876   9.292  20.725  0.00  0.00    +0.000 A 
ATOM     29 CL   UNL     1       0.889   9.019  22.433  0.00  0.00    +0.000 Cl
ENDBRANCH  21  22
ENDBRANCH  18  20
ENDBRANCH  16  18
ENDBRANCH   1  16
TORSDOF 5
ENDMDL
MODEL 7
REMARK VINA RESULT:      -7.2      4.801      8.487
REMARK  Name = 
REMARK  5 active torsions:
REMARK  status: ('A' for Active; 'I' for Inactive)
REMARK    1  A    between atoms: N_12  and  N_13
REMARK    2  A    between atoms: N_13  and  C_14
REMARK    3  A    between atoms: C_14  and  N_16
REMARK    4  A    between atoms: N_16  and  N_17
REMARK    5  A    between atoms: C_18  and  C_19
REMARK                            x       y       z     vdW  Elec       q    Type
REMARK                         _______ _______ _______ _____ _____    ______ ____
ROOT
ATOM      1  N   UNL     1       1.245   9.952  19.157  0.00  0.00    +0.000 N 
ATOM      2  H   UNL     1       1.402  10.733  19.795  0.00  0.00    +0.000 HD
ENDROOT
BRANCH   1  14
ATOM      3  O   UNL     1      -0.465  11.540  20.808  0.00  0.00    +0.000 OA
ATOM      4  C   UNL     1      -1.192  11.416  19.853  0.00  0.00    +0.000 C 
ATOM      5  N   UNL     1      -2.492  11.851  19.671  0.00  0.00    +0.000 N 
ATOM      6  C   UNL     1      -2.963  11.489  18.411  0.00  0.00    +0.000 A 
ATOM      7  C   UNL     1      -4.207  11.734  17.869  0.00  0.00    +0.000 A 
ATOM      8  C   UNL     1      -4.449  11.257  16.570  0.00  0.00    +0.000 A 
ATOM      9  C   UNL     1      -3.454  10.557  15.856  0.00  0.00    +0.000 A 
ATOM     10 BR   UNL     1      -3.827   9.938  14.108  0.00  0.00    +0.000 Br
ATOM     11  C   UNL     1      -2.202  10.310  16.415  0.00  0.00    +0.000 A 
ATOM     12  C   UNL     1      -1.994  10.798  17.688  0.00  0.00    +0.000 A 
ATOM     13  C   UNL     1      -0.830  10.690  18.556  0.00  0.00    +0.000 C 
ATOM     14  N   UNL     1       0.235  10.042  18.245  0.00  0.00    +0.000 NA
ATOM     15  H   UNL     1      -3.006  12.351  20.379  0.00  0.00    +0.000 HD
ENDBRANCH   1  14
BRANCH   1  16
ATOM     16  C   UNL     1       1.694   8.706  19.536  0.00  0.00    +0.000 C 
ATOM     17  S   UNL     1       1.266   8.060  21.019  0.00  0.00    +0.000 S 
BRANCH  16  18
ATOM     18  N   UNL     1       2.456   7.980  18.650  0.00  0.00    +0.000 N 
ATOM     19  H   UNL     1       2.532   8.314  17.696  0.00  0.00    +0.000 HD
BRANCH  18  20
ATOM     20  N   UNL     1       2.657   6.654  18.893  0.00  0.00    +0.000 NA
ATOM     21  C   UNL     1       2.148   5.794  18.080  0.00  0.00    +0.000 C 
BRANCH  21  22
ATOM     22  C   UNL     1       2.385   4.358  18.322  0.00  0.00    +0.000 A 
ATOM     23  C   UNL     1       1.627   3.678  19.285  0.00  0.00    +0.000 A 
ATOM     24  F   UNL     1       0.616   4.279  19.934  0.00  0.00    +0.000 F 
ATOM     25  C   UNL     1       1.873   2.344  19.586  0.00  0.00    +0.000 A 
ATOM     26  C   UNL     1       2.886   1.661  18.920  0.00  0.00    +0.000 A 
ATOM     27  C   UNL     1       3.640   2.318  17.950  0.00  0.00    +0.000 A 
ATOM     28  C   UNL     1       3.391   3.665  17.646  0.00  0.00    +0.000 A 
ATOM     29 CL   UNL     1       4.403   4.411  16.459  0.00  0.00    +0.000 Cl
ENDBRANCH  21  22
ENDBRANCH  18  20
ENDBRANCH  16  18
ENDBRANCH   1  16
TORSDOF 5
ENDMDL
MODEL 8
REMARK VINA RESULT:      -7.1      6.132      7.385
REMARK  Name = 
REMARK  5 active torsions:
REMARK  status: ('A' for Active; 'I' for Inactive)
REMARK    1  A    between atoms: N_12  and  N_13
REMARK    2  A    between atoms: N_13  and  C_14
REMARK    3  A    between atoms: C_14  and  N_16
REMARK    4  A    between atoms: N_16  and  N_17
REMARK    5  A    between atoms: C_18  and  C_19
REMARK                            x       y       z     vdW  Elec       q    Type
REMARK                         _______ _______ _______ _____ _____    ______ ____
ROOT
ATOM      1  N   UNL     1       7.965   6.288  18.853  0.00  0.00    +0.000 N 
ATOM      2  H   UNL     1       8.692   5.631  18.567  0.00  0.00    +0.000 HD
ENDROOT
BRANCH   1  14
ATOM      3  O   UNL     1       7.852   4.589  16.556  0.00  0.00    +0.000 OA
ATOM      4  C   UNL     1       6.747   4.381  16.995  0.00  0.00    +0.000 C 
ATOM      5  N   UNL     1       5.721   3.613  16.476  0.00  0.00    +0.000 N 
ATOM      6  C   UNL     1       4.604   3.651  17.308  0.00  0.00    +0.000 A 
ATOM      7  C   UNL     1       3.391   3.024  17.126  0.00  0.00    +0.000 A 
ATOM      8  C   UNL     1       2.408   3.223  18.109  0.00  0.00    +0.000 A 
ATOM      9  C   UNL     1       2.661   4.035  19.235  0.00  0.00    +0.000 A 
ATOM     10 BR   UNL     1       1.307   4.270  20.534  0.00  0.00    +0.000 Br
ATOM     11  C   UNL     1       3.890   4.668  19.407  0.00  0.00    +0.000 A 
ATOM     12  C   UNL     1       4.835   4.446  18.427  0.00  0.00    +0.000 A 
ATOM     13  C   UNL     1       6.186   4.971  18.290  0.00  0.00    +0.000 C 
ATOM     14  N   UNL     1       6.713   5.811  19.108  0.00  0.00    +0.000 NA
ATOM     15  H   UNL     1       5.799   3.112  15.605  0.00  0.00    +0.000 HD
ENDBRANCH   1  14
BRANCH   1  16
ATOM     16  C   UNL     1       8.119   7.613  18.510  0.00  0.00    +0.000 C 
ATOM     17  S   UNL     1       7.408   8.223  17.124  0.00  0.00    +0.000 S 
BRANCH  16  18
ATOM     18  N   UNL     1       8.822   8.438  19.358  0.00  0.00    +0.000 N 
ATOM     19  H   UNL     1       8.594   8.418  20.345  0.00  0.00    +0.000 HD
BRANCH  18  20
ATOM     20  N   UNL     1       9.402   9.559  18.847  0.00  0.00    +0.000 NA
ATOM     21  C   UNL     1       9.302  10.661  19.507  0.00  0.00    +0.000 C 
BRANCH  21  22
ATOM     22  C   UNL     1       9.952  11.874  18.973  0.00  0.00    +0.000 A 
ATOM     23  C   UNL     1      11.179  12.298  19.500  0.00  0.00    +0.000 A 
ATOM     24  F   UNL     1      11.835  11.573  20.421  0.00  0.00    +0.000 F 
ATOM     25  C   UNL     1      11.782  13.473  19.068  0.00  0.00    +0.000 A 
ATOM     26  C   UNL     1      11.165  14.247  18.090  0.00  0.00    +0.000 A 
ATOM     27  C   UNL     1       9.951  13.833  17.545  0.00  0.00    +0.000 A 
ATOM     28  C   UNL     1       9.343  12.646  17.982  0.00  0.00    +0.000 A 
ATOM     29 CL   UNL     1       7.818  12.233  17.281  0.00  0.00    +0.000 Cl
ENDBRANCH  21  22
ENDBRANCH  18  20
ENDBRANCH  16  18
ENDBRANCH   1  16
TORSDOF 5
ENDMDL
MODEL 9
REMARK VINA RESULT:      -7.1      5.932      7.199
REMARK  Name = 
REMARK  5 active torsions:
REMARK  status: ('A' for Active; 'I' for Inactive)
REMARK    1  A    between atoms: N_12  and  N_13
REMARK    2  A    between atoms: N_13  and  C_14
REMARK    3  A    between atoms: C_14  and  N_16
REMARK    4  A    between atoms: N_16  and  N_17
REMARK    5  A    between atoms: C_18  and  C_19
REMARK                            x       y       z     vdW  Elec       q    Type
REMARK                         _______ _______ _______ _____ _____    ______ ____
ROOT
ATOM      1  N   UNL     1       7.857   6.063  18.865  0.00  0.00    +0.000 N 
ATOM      2  H   UNL     1       8.605   5.412  18.624  0.00  0.00    +0.000 HD
ENDROOT
BRANCH   1  14
ATOM      3  O   UNL     1       7.642   4.509  16.475  0.00  0.00    +0.000 OA
ATOM      4  C   UNL     1       6.559   4.270  16.950  0.00  0.00    +0.000 C 
ATOM      5  N   UNL     1       5.512   3.530  16.432  0.00  0.00    +0.000 N 
ATOM      6  C   UNL     1       4.434   3.512  17.314  0.00  0.00    +0.000 A 
ATOM      7  C   UNL     1       3.214   2.892  17.150  0.00  0.00    +0.000 A 
ATOM      8  C   UNL     1       2.277   3.026  18.187  0.00  0.00    +0.000 A 
ATOM      9  C   UNL     1       2.580   3.768  19.348  0.00  0.00    +0.000 A 
ATOM     10 BR   UNL     1       1.287   3.916  20.720  0.00  0.00    +0.000 Br
ATOM     11  C   UNL     1       3.814   4.395  19.503  0.00  0.00    +0.000 A 
ATOM     12  C   UNL     1       4.715   4.237  18.469  0.00  0.00    +0.000 A 
ATOM     13  C   UNL     1       6.057   4.776  18.304  0.00  0.00    +0.000 C 
ATOM     14  N   UNL     1       6.619   5.566  19.147  0.00  0.00    +0.000 NA
ATOM     15  H   UNL     1       5.551   3.084  15.529  0.00  0.00    +0.000 HD
ENDBRANCH   1  14
BRANCH   1  16
ATOM     16  C   UNL     1       7.973   7.368  18.437  0.00  0.00    +0.000 C 
ATOM     17  S   UNL     1       7.068   7.925  17.145  0.00  0.00    +0.000 S 
BRANCH  16  18
ATOM     18  N   UNL     1       8.805   8.219  19.128  0.00  0.00    +0.000 N 
ATOM     19  H   UNL     1       8.887   8.100  20.131  0.00  0.00    +0.000 HD
BRANCH  18  20
ATOM     20  N   UNL     1       9.082   9.440  18.592  0.00  0.00    +0.000 NA
ATOM     21  C   UNL     1       9.418  10.399  19.384  0.00  0.00    +0.000 C 
BRANCH  21  22
ATOM     22  C   UNL     1       9.746  11.718  18.807  0.00  0.00    +0.000 A 
ATOM     23  C   UNL     1       8.881  12.307  17.875  0.00  0.00    +0.000 A 
ATOM     24  F   UNL     1       7.701  11.746  17.560  0.00  0.00    +0.000 F 
ATOM     25  C   UNL     1       9.196  13.514  17.261  0.00  0.00    +0.000 A 
ATOM     26  C   UNL     1      10.388  14.158  17.575  0.00  0.00    +0.000 A 
ATOM     27  C   UNL     1      11.254  13.592  18.510  0.00  0.00    +0.000 A 
ATOM     28  C   UNL     1      10.935  12.374  19.129  0.00  0.00    +0.000 A 
ATOM     29 CL   UNL     1      12.088  11.726  20.243  0.00  0.00    +0.000 Cl
ENDBRANCH  21  22
ENDBRANCH  18  20
ENDBRANCH  16  18
ENDBRANCH   1  16
TORSDOF 5
ENDMDL
