MODEL 1
REMARK VINA RESULT:      -7.9      0.000      0.000
REMARK  Name = 
REMARK  6 active torsions:
REMARK  status: ('A' for Active; 'I' for Inactive)
REMARK    1  A    between atoms: C_1  and  N_2
REMARK    2  A    between atoms: N_2  and  C_3
REMARK    3  A    between atoms: N_2  and  C_12
REMARK    4  A    between atoms: C_3  and  C_4
REMARK    5  A    between atoms: C_5  and  C_6
REMARK    6  A    between atoms: C_12  and  C_13
REMARK                            x       y       z     vdW  Elec       q    Type
REMARK                         _______ _______ _______ _____ _____    ______ ____
ROOT
ATOM      1  C   UNL     1       7.782   5.704  19.163  0.00  0.00    +0.000 C 
ATOM      2  N   UNL     1       6.831   6.318  18.224  0.00  0.00    +0.000 NA
ENDROOT
BRANCH   2   3
ATOM      3  C   UNL     1       7.579   7.249  17.356  0.00  0.00    +0.000 C 
BRANCH   3   4
ATOM      4  C   UNL     1       8.225   8.359  18.129  0.00  0.00    +0.000 C 
ATOM      5  C   UNL     1       8.390   9.607  17.655  0.00  0.00    +0.000 C 
BRANCH   5   6
ATOM      6  C   UNL     1       8.998  10.704  18.422  0.00  0.00    +0.000 A 
ATOM      7  C   UNL     1       8.991  11.997  17.881  0.00  0.00    +0.000 A 
ATOM      8  C   UNL     1       9.556  13.065  18.585  0.00  0.00    +0.000 A 
ATOM      9  C   UNL     1      10.121  12.852  19.840  0.00  0.00    +0.000 A 
ATOM     10  C   UNL     1      10.106  11.577  20.400  0.00  0.00    +0.000 A 
ATOM     11  C   UNL     1       9.539  10.512  19.699  0.00  0.00    +0.000 A 
ENDBRANCH   5   6
ENDBRANCH   3   4
ENDBRANCH   2   3
BRANCH   2  12
ATOM     12  C   UNL     1       6.166   5.278  17.409  0.00  0.00    +0.000 C 
BRANCH  12  13
ATOM     13  C   UNL     1       4.674   5.160  17.645  0.00  0.00    +0.000 A 
ATOM     14  C   UNL     1       3.884   6.320  17.748  0.00  0.00    +0.000 A 
ATOM     15  C   UNL     1       2.517   6.260  18.010  0.00  0.00    +0.000 A 
ATOM     16  C   UNL     1       1.880   5.028  18.192  0.00  0.00    +0.000 A 
ATOM     17  C   UNL     1       2.633   3.845  18.090  0.00  0.00    +0.000 A 
ATOM     18  C   UNL     1       2.317   2.463  18.217  0.00  0.00    +0.000 A 
ATOM     19  C   UNL     1       3.474   1.747  18.007  0.00  0.00    +0.000 A 
ATOM     20  N   UNL     1       4.477   2.644  17.748  0.00  0.00    +0.000 N 
ATOM     21  C   UNL     1       3.998   3.934  17.816  0.00  0.00    +0.000 A 
ATOM     22  H   UNL     1       5.435   2.414  17.517  0.00  0.00    +0.000 HD
ENDBRANCH  12  13
ENDBRANCH   2  12
TORSDOF 5
ENDMDL
MODEL 2
REMARK VINA RESULT:      -7.7      1.239      2.337
REMARK  Name = 
REMARK  6 active torsions:
REMARK  status: ('A' for Active; 'I' for Inactive)
REMARK    1  A    between atoms: C_1  and  N_2
REMARK    2  A    between atoms: N_2  and  C_3
REMARK    3  A    between atoms: N_2  and  C_12
REMARK    4  A    between atoms: C_3  and  C_4
REMARK    5  A    between atoms: C_5  and  C_6
REMARK    6  A    between atoms: C_12  and  C_13
REMARK                            x       y       z     vdW  Elec       q    Type
REMARK                         _______ _______ _______ _____ _____    ______ ____
ROOT
ATOM      1  C   UNL     1       7.815   5.822  19.085  0.00  0.00    +0.000 C 
ATOM      2  N   UNL     1       6.746   6.328  18.211  0.00  0.00    +0.000 NA
ENDROOT
BRANCH   2   3
ATOM      3  C   UNL     1       7.317   7.382  17.350  0.00  0.00    +0.000 C 
BRANCH   3   4
ATOM      4  C   UNL     1       8.271   8.272  18.088  0.00  0.00    +0.000 C 
ATOM      5  C   UNL     1       8.354   9.601  17.902  0.00  0.00    +0.000 C 
BRANCH   5   6
ATOM      6  C   UNL     1       9.270  10.479  18.646  0.00  0.00    +0.000 A 
ATOM      7  C   UNL     1      10.192  11.257  17.934  0.00  0.00    +0.000 A 
ATOM      8  C   UNL     1      11.075  12.107  18.608  0.00  0.00    +0.000 A 
ATOM      9  C   UNL     1      11.033  12.196  19.998  0.00  0.00    +0.000 A 
ATOM     10  C   UNL     1      10.100  11.449  20.713  0.00  0.00    +0.000 A 
ATOM     11  C   UNL     1       9.217  10.604  20.039  0.00  0.00    +0.000 A 
ENDBRANCH   5   6
ENDBRANCH   3   4
ENDBRANCH   2   3
BRANCH   2  12
ATOM     12  C   UNL     1       6.193   5.232  17.385  0.00  0.00    +0.000 C 
BRANCH  12  13
ATOM     13  C   UNL     1       4.713   4.981  17.592  0.00  0.00    +0.000 A 
ATOM     14  C   UNL     1       4.213   3.666  17.569  0.00  0.00    +0.000 A 
ATOM     15  C   UNL     1       2.854   3.392  17.709  0.00  0.00    +0.000 A 
ATOM     16  C   UNL     1       1.930   4.430  17.868  0.00  0.00    +0.000 A 
ATOM     17  C   UNL     1       2.391   5.758  17.902  0.00  0.00    +0.000 A 
ATOM     18  C   UNL     1       1.747   7.020  18.043  0.00  0.00    +0.000 A 
ATOM     19  C   UNL     1       2.721   7.993  18.010  0.00  0.00    +0.000 A 
ATOM     20  N   UNL     1       3.930   7.367  17.864  0.00  0.00    +0.000 N 
ATOM     21  C   UNL     1       3.758   6.003  17.771  0.00  0.00    +0.000 A 
ATOM     22  H   UNL     1       4.835   7.819  17.845  0.00  0.00    +0.000 HD
ENDBRANCH  12  13
ENDBRANCH   2  12
TORSDOF 5
ENDMDL
MODEL 3
REMARK VINA RESULT:      -7.7      3.194      6.354
REMARK  Name = 
REMARK  6 active torsions:
REMARK  status: ('A' for Active; 'I' for Inactive)
REMARK    1  A    between atoms: C_1  and  N_2
REMARK    2  A    between atoms: N_2  and  C_3
REMARK    3  A    between atoms: N_2  and  C_12
REMARK    4  A    between atoms: C_3  and  C_4
REMARK    5  A    between atoms: C_5  and  C_6
REMARK    6  A    between atoms: C_12  and  C_13
REMARK                            x       y       z     vdW  Elec       q    Type
REMARK                         _______ _______ _______ _____ _____    ______ ____
ROOT
ATOM      1  C   UNL     1       3.021   1.581  18.842  0.00  0.00    +0.000 C 
ATOM      2  N   UNL     1       3.261   3.031  18.882  0.00  0.00    +0.000 NA
ENDROOT
BRANCH   2   3
ATOM      3  C   UNL     1       2.555   3.582  20.056  0.00  0.00    +0.000 C 
BRANCH   3   4
ATOM      4  C   UNL     1       1.981   4.942  19.793  0.00  0.00    +0.000 C 
ATOM      5  C   UNL     1       2.699   6.079  19.827  0.00  0.00    +0.000 C 
BRANCH   5   6
ATOM      6  C   UNL     1       2.143   7.410  19.541  0.00  0.00    +0.000 A 
ATOM      7  C   UNL     1       2.309   7.954  18.261  0.00  0.00    +0.000 A 
ATOM      8  C   UNL     1       1.790   9.215  17.952  0.00  0.00    +0.000 A 
ATOM      9  C   UNL     1       1.090   9.937  18.917  0.00  0.00    +0.000 A 
ATOM     10  C   UNL     1       0.894   9.392  20.184  0.00  0.00    +0.000 A 
ATOM     11  C   UNL     1       1.409   8.132  20.490  0.00  0.00    +0.000 A 
ENDBRANCH   5   6
ENDBRANCH   3   4
ENDBRANCH   2   3
BRANCH   2  12
ATOM     12  C   UNL     1       4.711   3.312  18.976  0.00  0.00    +0.000 C 
BRANCH  12  13
ATOM     13  C   UNL     1       5.173   4.493  18.146  0.00  0.00    +0.000 A 
ATOM     14  C   UNL     1       4.487   4.833  16.965  0.00  0.00    +0.000 A 
ATOM     15  C   UNL     1       4.904   5.882  16.147  0.00  0.00    +0.000 A 
ATOM     16  C   UNL     1       6.039   6.632  16.473  0.00  0.00    +0.000 A 
ATOM     17  C   UNL     1       6.747   6.327  17.648  0.00  0.00    +0.000 A 
ATOM     18  C   UNL     1       7.911   6.867  18.265  0.00  0.00    +0.000 A 
ATOM     19  C   UNL     1       8.140   6.159  19.423  0.00  0.00    +0.000 A 
ATOM     20  N   UNL     1       7.153   5.216  19.536  0.00  0.00    +0.000 N 
ATOM     21  C   UNL     1       6.301   5.279  18.454  0.00  0.00    +0.000 A 
ATOM     22  H   UNL     1       7.034   4.569  20.305  0.00  0.00    +0.000 HD
ENDBRANCH  12  13
ENDBRANCH   2  12
TORSDOF 5
ENDMDL
MODEL 4
REMARK VINA RESULT:      -7.7      1.088      1.502
REMARK  Name = 
REMARK  6 active torsions:
REMARK  status: ('A' for Active; 'I' for Inactive)
REMARK    1  A    between atoms: C_1  and  N_2
REMARK    2  A    between atoms: N_2  and  C_3
REMARK    3  A    between atoms: N_2  and  C_12
REMARK    4  A    between atoms: C_3  and  C_4
REMARK    5  A    between atoms: C_5  and  C_6
REMARK    6  A    between atoms: C_12  and  C_13
REMARK                            x       y       z     vdW  Elec       q    Type
REMARK                         _______ _______ _______ _____ _____    ______ ____
ROOT
ATOM      1  C   UNL     1       6.964   5.295  16.536  0.00  0.00    +0.000 C 
ATOM      2  N   UNL     1       7.378   6.090  17.702  0.00  0.00    +0.000 NA
ENDROOT
BRANCH   2   3
ATOM      3  C   UNL     1       7.188   7.517  17.377  0.00  0.00    +0.000 C 
BRANCH   3   4
ATOM      4  C   UNL     1       8.316   8.372  17.869  0.00  0.00    +0.000 C 
ATOM      5  C   UNL     1       8.185   9.670  18.198  0.00  0.00    +0.000 C 
BRANCH   5   6
ATOM      6  C   UNL     1       9.284  10.503  18.708  0.00  0.00    +0.000 A 
ATOM      7  C   UNL     1       9.315  10.826  20.072  0.00  0.00    +0.000 A 
ATOM      8  C   UNL     1      10.347  11.612  20.593  0.00  0.00    +0.000 A 
ATOM      9  C   UNL     1      11.364  12.071  19.758  0.00  0.00    +0.000 A 
ATOM     10  C   UNL     1      11.359  11.731  18.407  0.00  0.00    +0.000 A 
ATOM     11  C   UNL     1      10.330  10.943  17.889  0.00  0.00    +0.000 A 
ENDBRANCH   5   6
ENDBRANCH   3   4
ENDBRANCH   2   3
BRANCH   2  12
ATOM     12  C   UNL     1       6.574   5.721  18.888  0.00  0.00    +0.000 C 
BRANCH  12  13
ATOM     13  C   UNL     1       5.126   5.392  18.583  0.00  0.00    +0.000 A 
ATOM     14  C   UNL     1       4.283   6.374  18.031  0.00  0.00    +0.000 A 
ATOM     15  C   UNL     1       2.935   6.129  17.778  0.00  0.00    +0.000 A 
ATOM     16  C   UNL     1       2.367   4.886  18.077  0.00  0.00    +0.000 A 
ATOM     17  C   UNL     1       3.179   3.877  18.623  0.00  0.00    +0.000 A 
ATOM     18  C   UNL     1       2.938   2.536  19.038  0.00  0.00    +0.000 A 
ATOM     19  C   UNL     1       4.128   2.018  19.495  0.00  0.00    +0.000 A 
ATOM     20  N   UNL     1       5.083   2.991  19.365  0.00  0.00    +0.000 N 
ATOM     21  C   UNL     1       4.528   4.145  18.856  0.00  0.00    +0.000 A 
ATOM     22  H   UNL     1       6.066   2.892  19.583  0.00  0.00    +0.000 HD
ENDBRANCH  12  13
ENDBRANCH   2  12
TORSDOF 5
ENDMDL
MODEL 5
REMARK VINA RESULT:      -7.5      1.254      1.630
REMARK  Name = 
REMARK  6 active torsions:
REMARK  status: ('A' for Active; 'I' for Inactive)
REMARK    1  A    between atoms: C_1  and  N_2
REMARK    2  A    between atoms: N_2  and  C_3
REMARK    3  A    between atoms: N_2  and  C_12
REMARK    4  A    between atoms: C_3  and  C_4
REMARK    5  A    between atoms: C_5  and  C_6
REMARK    6  A    between atoms: C_12  and  C_13
REMARK                            x       y       z     vdW  Elec       q    Type
REMARK                         _______ _______ _______ _____ _____    ______ ____
ROOT
ATOM      1  C   UNL     1       7.679   5.345  18.705  0.00  0.00    +0.000 C 
ATOM      2  N   UNL     1       6.772   6.359  18.147  0.00  0.00    +0.000 NA
ENDROOT
BRANCH   2   3
ATOM      3  C   UNL     1       7.524   7.153  17.156  0.00  0.00    +0.000 C 
BRANCH   3   4
ATOM      4  C   UNL     1       7.777   8.556  17.619  0.00  0.00    +0.000 C 
ATOM      5  C   UNL     1       8.753   8.897  18.479  0.00  0.00    +0.000 C 
BRANCH   5   6
ATOM      6  C   UNL     1       9.022  10.276  18.913  0.00  0.00    +0.000 A 
ATOM      7  C   UNL     1       9.445  10.504  20.230  0.00  0.00    +0.000 A 
ATOM      8  C   UNL     1       9.713  11.801  20.676  0.00  0.00    +0.000 A 
ATOM      9  C   UNL     1       9.574  12.880  19.806  0.00  0.00    +0.000 A 
ATOM     10  C   UNL     1       9.183  12.662  18.487  0.00  0.00    +0.000 A 
ATOM     11  C   UNL     1       8.919  11.366  18.042  0.00  0.00    +0.000 A 
ENDBRANCH   5   6
ENDBRANCH   3   4
ENDBRANCH   2   3
BRANCH   2  12
ATOM     12  C   UNL     1       5.606   5.710  17.507  0.00  0.00    +0.000 C 
BRANCH  12  13
ATOM     13  C   UNL     1       4.430   5.485  18.437  0.00  0.00    +0.000 A 
ATOM     14  C   UNL     1       3.499   6.518  18.655  0.00  0.00    +0.000 A 
ATOM     15  C   UNL     1       2.429   6.370  19.536  0.00  0.00    +0.000 A 
ATOM     16  C   UNL     1       2.251   5.180  20.249  0.00  0.00    +0.000 A 
ATOM     17  C   UNL     1       3.156   4.122  20.053  0.00  0.00    +0.000 A 
ATOM     18  C   UNL     1       3.273   2.812  20.598  0.00  0.00    +0.000 A 
ATOM     19  C   UNL     1       4.371   2.214  20.021  0.00  0.00    +0.000 A 
ATOM     20  N   UNL     1       4.919   3.109  19.141  0.00  0.00    +0.000 N 
ATOM     21  C   UNL     1       4.212   4.293  19.156  0.00  0.00    +0.000 A 
ATOM     22  H   UNL     1       5.714   2.941  18.540  0.00  0.00    +0.000 HD
ENDBRANCH  12  13
ENDBRANCH   2  12
TORSDOF 5
ENDMDL
MODEL 6
REMARK VINA RESULT:      -7.5      3.567      6.241
REMARK  Name = 
REMARK  6 active torsions:
REMARK  status: ('A' for Active; 'I' for Inactive)
REMARK    1  A    between atoms: C_1  and  N_2
REMARK    2  A    between atoms: N_2  and  C_3
REMARK    3  A    between atoms: N_2  and  C_12
REMARK    4  A    between atoms: C_3  and  C_4
REMARK    5  A    between atoms: C_5  and  C_6
REMARK    6  A    between atoms: C_12  and  C_13
REMARK                            x       y       z     vdW  Elec       q    Type
REMARK                         _______ _______ _______ _____ _____    ______ ____
ROOT
ATOM      1  C   UNL     1       3.926   1.478  18.705  0.00  0.00    +0.000 C 
ATOM      2  N   UNL     1       3.896   2.947  18.639  0.00  0.00    +0.000 NA
ENDROOT
BRANCH   2   3
ATOM      3  C   UNL     1       2.612   3.407  19.202  0.00  0.00    +0.000 C 
BRANCH   3   4
ATOM      4  C   UNL     1       2.299   4.825  18.832  0.00  0.00    +0.000 C 
ATOM      5  C   UNL     1       2.257   5.839  19.716  0.00  0.00    +0.000 C 
BRANCH   5   6
ATOM      6  C   UNL     1       1.979   7.236  19.351  0.00  0.00    +0.000 A 
ATOM      7  C   UNL     1       1.511   8.115  20.337  0.00  0.00    +0.000 A 
ATOM      8  C   UNL     1       1.241   9.451  20.028  0.00  0.00    +0.000 A 
ATOM      9  C   UNL     1       1.448   9.923  18.733  0.00  0.00    +0.000 A 
ATOM     10  C   UNL     1       1.940   9.065  17.753  0.00  0.00    +0.000 A 
ATOM     11  C   UNL     1       2.214   7.732  18.064  0.00  0.00    +0.000 A 
ENDBRANCH   5   6
ENDBRANCH   3   4
ENDBRANCH   2   3
BRANCH   2  12
ATOM     12  C   UNL     1       5.027   3.520  19.403  0.00  0.00    +0.000 C 
BRANCH  12  13
ATOM     13  C   UNL     1       5.904   4.464  18.606  0.00  0.00    +0.000 A 
ATOM     14  C   UNL     1       6.632   5.472  19.264  0.00  0.00    +0.000 A 
ATOM     15  C   UNL     1       7.415   6.390  18.566  0.00  0.00    +0.000 A 
ATOM     16  C   UNL     1       7.494   6.345  17.171  0.00  0.00    +0.000 A 
ATOM     17  C   UNL     1       6.786   5.348  16.477  0.00  0.00    +0.000 A 
ATOM     18  C   UNL     1       6.643   5.020  15.099  0.00  0.00    +0.000 A 
ATOM     19  C   UNL     1       5.817   3.922  15.012  0.00  0.00    +0.000 A 
ATOM     20  N   UNL     1       5.462   3.567  16.287  0.00  0.00    +0.000 N 
ATOM     21  C   UNL     1       6.020   4.434  17.201  0.00  0.00    +0.000 A 
ATOM     22  H   UNL     1       4.890   2.773  16.545  0.00  0.00    +0.000 HD
ENDBRANCH  12  13
ENDBRANCH   2  12
TORSDOF 5
ENDMDL
MODEL 7
REMARK VINA RESULT:      -7.5      4.097      6.089
REMARK  Name = 
REMARK  6 active torsions:
REMARK  status: ('A' for Active; 'I' for Inactive)
REMARK    1  A    between atoms: C_1  and  N_2
REMARK    2  A    between atoms: N_2  and  C_3
REMARK    3  A    between atoms: N_2  and  C_12
REMARK    4  A    between atoms: C_3  and  C_4
REMARK    5  A    between atoms: C_5  and  C_6
REMARK    6  A    between atoms: C_12  and  C_13
REMARK                            x       y       z     vdW  Elec       q    Type
REMARK                         _______ _______ _______ _____ _____    ______ ____
ROOT
ATOM      1  C   UNL     1       4.153   7.319  17.556  0.00  0.00    +0.000 C 
ATOM      2  N   UNL     1       4.648   6.014  18.020  0.00  0.00    +0.000 NA
ENDROOT
BRANCH   2   3
ATOM      3  C   UNL     1       6.118   6.003  17.880  0.00  0.00    +0.000 C 
BRANCH   3   4
ATOM      4  C   UNL     1       6.560   5.569  16.515  0.00  0.00    +0.000 C 
ATOM      5  C   UNL     1       5.745   5.001  15.608  0.00  0.00    +0.000 C 
BRANCH   5   6
ATOM      6  C   UNL     1       6.171   4.601  14.258  0.00  0.00    +0.000 A 
ATOM      7  C   UNL     1       7.315   5.189  13.705  0.00  0.00    +0.000 A 
ATOM      8  C   UNL     1       7.752   4.829  12.426  0.00  0.00    +0.000 A 
ATOM      9  C   UNL     1       7.055   3.869  11.696  0.00  0.00    +0.000 A 
ATOM     10  C   UNL     1       5.933   3.257  12.249  0.00  0.00    +0.000 A 
ATOM     11  C   UNL     1       5.500   3.614  13.527  0.00  0.00    +0.000 A 
ENDBRANCH   5   6
ENDBRANCH   3   4
ENDBRANCH   2   3
BRANCH   2  12
ATOM     12  C   UNL     1       4.264   5.789  19.431  0.00  0.00    +0.000 C 
BRANCH  12  13
ATOM     13  C   UNL     1       3.132   4.800  19.620  0.00  0.00    +0.000 A 
ATOM     14  C   UNL     1       2.003   5.159  20.380  0.00  0.00    +0.000 A 
ATOM     15  C   UNL     1       0.960   4.265  20.617  0.00  0.00    +0.000 A 
ATOM     16  C   UNL     1       1.008   2.963  20.110  0.00  0.00    +0.000 A 
ATOM     17  C   UNL     1       2.116   2.568  19.340  0.00  0.00    +0.000 A 
ATOM     18  C   UNL     1       2.482   1.355  18.691  0.00  0.00    +0.000 A 
ATOM     19  C   UNL     1       3.696   1.558  18.074  0.00  0.00    +0.000 A 
ATOM     20  N   UNL     1       4.075   2.852  18.318  0.00  0.00    +0.000 N 
ATOM     21  C   UNL     1       3.141   3.486  19.108  0.00  0.00    +0.000 A 
ATOM     22  H   UNL     1       4.906   3.305  17.961  0.00  0.00    +0.000 HD
ENDBRANCH  12  13
ENDBRANCH   2  12
TORSDOF 5
ENDMDL
MODEL 8
REMARK VINA RESULT:      -7.4      1.318      2.220
REMARK  Name = 
REMARK  6 active torsions:
REMARK  status: ('A' for Active; 'I' for Inactive)
REMARK    1  A    between atoms: C_1  and  N_2
REMARK    2  A    between atoms: N_2  and  C_3
REMARK    3  A    between atoms: N_2  and  C_12
REMARK    4  A    between atoms: C_3  and  C_4
REMARK    5  A    between atoms: C_5  and  C_6
REMARK    6  A    between atoms: C_12  and  C_13
REMARK                            x       y       z     vdW  Elec       q    Type
REMARK                         _______ _______ _______ _____ _____    ______ ____
ROOT
ATOM      1  C   UNL     1       7.639   5.768  19.398  0.00  0.00    +0.000 C 
ATOM      2  N   UNL     1       6.597   6.011  18.389  0.00  0.00    +0.000 NA
ENDROOT
BRANCH   2   3
ATOM      3  C   UNL     1       7.100   7.026  17.443  0.00  0.00    +0.000 C 
BRANCH   3   4
ATOM      4  C   UNL     1       8.087   7.960  18.076  0.00  0.00    +0.000 C 
ATOM      5  C   UNL     1       8.138   9.280  17.824  0.00  0.00    +0.000 C 
BRANCH   5   6
ATOM      6  C   UNL     1       9.086  10.203  18.466  0.00  0.00    +0.000 A 
ATOM      7  C   UNL     1       9.122  10.275  19.865  0.00  0.00    +0.000 A 
ATOM      8  C   UNL     1      10.014  11.138  20.509  0.00  0.00    +0.000 A 
ATOM      9  C   UNL     1      10.886  11.926  19.761  0.00  0.00    +0.000 A 
ATOM     10  C   UNL     1      10.879  11.840  18.370  0.00  0.00    +0.000 A 
ATOM     11  C   UNL     1       9.991  10.976  17.729  0.00  0.00    +0.000 A 
ENDBRANCH   5   6
ENDBRANCH   3   4
ENDBRANCH   2   3
BRANCH   2  12
ATOM     12  C   UNL     1       6.272   4.757  17.673  0.00  0.00    +0.000 C 
BRANCH  12  13
ATOM     13  C   UNL     1       4.809   4.365  17.736  0.00  0.00    +0.000 A 
ATOM     14  C   UNL     1       4.303   3.394  16.852  0.00  0.00    +0.000 A 
ATOM     15  C   UNL     1       2.956   3.037  16.843  0.00  0.00    +0.000 A 
ATOM     16  C   UNL     1       2.051   3.648  17.716  0.00  0.00    +0.000 A 
ATOM     17  C   UNL     1       2.518   4.618  18.619  0.00  0.00    +0.000 A 
ATOM     18  C   UNL     1       1.893   5.419  19.616  0.00  0.00    +0.000 A 
ATOM     19  C   UNL     1       2.865   6.199  20.200  0.00  0.00    +0.000 A 
ATOM     20  N   UNL     1       4.059   5.894  19.601  0.00  0.00    +0.000 N 
ATOM     21  C   UNL     1       3.874   4.949  18.615  0.00  0.00    +0.000 A 
ATOM     22  H   UNL     1       4.962   6.279  19.844  0.00  0.00    +0.000 HD
ENDBRANCH  12  13
ENDBRANCH   2  12
TORSDOF 5
ENDMDL
MODEL 9
REMARK VINA RESULT:      -7.4      3.675      6.020
REMARK  Name = 
REMARK  6 active torsions:
REMARK  status: ('A' for Active; 'I' for Inactive)
REMARK    1  A    between atoms: C_1  and  N_2
REMARK    2  A    between atoms: N_2  and  C_3
REMARK    3  A    between atoms: N_2  and  C_12
REMARK    4  A    between atoms: C_3  and  C_4
REMARK    5  A    between atoms: C_5  and  C_6
REMARK    6  A    between atoms: C_12  and  C_13
REMARK                            x       y       z     vdW  Elec       q    Type
REMARK                         _______ _______ _______ _____ _____    ______ ____
ROOT
ATOM      1  C   UNL     1       5.932   4.914  18.989  0.00  0.00    +0.000 C 
ATOM      2  N   UNL     1       5.401   6.183  18.467  0.00  0.00    +0.000 NA
ENDROOT
BRANCH   2   3
ATOM      3  C   UNL     1       6.373   6.723  17.496  0.00  0.00    +0.000 C 
BRANCH   3   4
ATOM      4  C   UNL     1       6.182   6.159  16.121  0.00  0.00    +0.000 C 
ATOM      5  C   UNL     1       7.010   5.261  15.557  0.00  0.00    +0.000 C 
BRANCH   5   6
ATOM      6  C   UNL     1       6.809   4.684  14.219  0.00  0.00    +0.000 A 
ATOM      7  C   UNL     1       5.719   3.830  14.004  0.00  0.00    +0.000 A 
ATOM      8  C   UNL     1       5.494   3.267  12.744  0.00  0.00    +0.000 A 
ATOM      9  C   UNL     1       6.348   3.565  11.685  0.00  0.00    +0.000 A 
ATOM     10  C   UNL     1       7.417   4.438  11.880  0.00  0.00    +0.000 A 
ATOM     11  C   UNL     1       7.638   5.001  13.137  0.00  0.00    +0.000 A 
ENDBRANCH   5   6
ENDBRANCH   3   4
ENDBRANCH   2   3
BRANCH   2  12
ATOM     12  C   UNL     1       4.091   5.965  17.817  0.00  0.00    +0.000 C 
BRANCH  12  13
ATOM     13  C   UNL     1       3.033   5.373  18.727  0.00  0.00    +0.000 A 
ATOM     14  C   UNL     1       2.506   6.138  19.783  0.00  0.00    +0.000 A 
ATOM     15  C   UNL     1       1.566   5.619  20.671  0.00  0.00    +0.000 A 
ATOM     16  C   UNL     1       1.120   4.299  20.546  0.00  0.00    +0.000 A 
ATOM     17  C   UNL     1       1.618   3.504  19.500  0.00  0.00    +0.000 A 
ATOM     18  C   UNL     1       1.391   2.160  19.090  0.00  0.00    +0.000 A 
ATOM     19  C   UNL     1       2.164   1.923  17.976  0.00  0.00    +0.000 A 
ATOM     20  N   UNL     1       2.845   3.077  17.690  0.00  0.00    +0.000 N 
ATOM     21  C   UNL     1       2.550   4.053  18.618  0.00  0.00    +0.000 A 
ATOM     22  H   UNL     1       3.465   3.222  16.904  0.00  0.00    +0.000 HD
ENDBRANCH  12  13
ENDBRANCH   2  12
TORSDOF 5
ENDMDL
