MODEL 1
REMARK VINA RESULT:      -7.8      0.000      0.000
REMARK  Name = 
REMARK  9 active torsions:
REMARK  status: ('A' for Active; 'I' for Inactive)
REMARK    1  A    between atoms: C_1  and  C_2
REMARK    2  A    between atoms: C_2  and  C_3
REMARK    3  A    between atoms: C_2  and  N_4
REMARK    4  A    between atoms: N_4  and  C_5
REMARK    5  A    between atoms: N_4  and  C_19
REMARK    6  A    between atoms: C_5  and  C_6
REMARK    7  A    between atoms: C_6  and  C_7
REMARK    8  A    between atoms: C_7  and  C_9
REMARK    9  A    between atoms: C_19  and  C_20
REMARK                            x       y       z     vdW  Elec       q    Type
REMARK                         _______ _______ _______ _____ _____    ______ ____
ROOT
ATOM      1  C   UNL     1       4.204   3.668  17.675  0.00  0.00    +0.000 C 
ENDROOT
BRANCH   1   2
ATOM      2  C   UNL     1       3.319   3.873  18.868  0.00  0.00    +0.000 C 
ATOM      3  O   UNL     1       3.121   2.912  19.601  0.00  0.00    +0.000 OA
BRANCH   2   4
ATOM      4  C   UNL     1       2.761   5.197  19.245  0.00  0.00    +0.000 A 
ATOM      5  C   UNL     1       2.132   5.427  20.484  0.00  0.00    +0.000 A 
ATOM      6  C   UNL     1       1.610   6.688  20.793  0.00  0.00    +0.000 A 
ATOM      7  C   UNL     1       1.693   7.732  19.863  0.00  0.00    +0.000 A 
ATOM      8  C   UNL     1       1.167   8.997  20.151  0.00  0.00    +0.000 A 
ATOM      9  C   UNL     1       1.243  10.020  19.201  0.00  0.00    +0.000 A 
ATOM     10  C   UNL     1       1.845   9.785  17.961  0.00  0.00    +0.000 A 
ATOM     11  C   UNL     1       2.378   8.535  17.663  0.00  0.00    +0.000 A 
ATOM     12  C   UNL     1       2.308   7.502  18.610  0.00  0.00    +0.000 A 
ATOM     13  C   UNL     1       2.839   6.246  18.314  0.00  0.00    +0.000 A 
ENDBRANCH   2   4
ENDBRANCH   1   2
BRANCH   1  14
ATOM     14  C   UNL     1       5.702   3.903  17.940  0.00  0.00    +0.000 C 
BRANCH  14  15
ATOM     15  N   UNL     1       6.344   4.796  16.936  0.00  0.00    +0.000 NA
BRANCH  15  17
ATOM     16  C   UNL     1       6.544   7.356  17.297  0.00  0.00    +0.000 C 
ATOM     17  C   UNL     1       7.181   5.947  17.420  0.00  0.00    +0.000 C 
ATOM     18  C   UNL     1       7.721   5.707  18.834  0.00  0.00    +0.000 C 
ENDBRANCH  15  17
BRANCH  15  19
ATOM     19  C   UNL     1       5.442   5.115  15.800  0.00  0.00    +0.000 C 
BRANCH  19  20
ATOM     20  C   UNL     1       6.048   4.700  14.483  0.00  0.00    +0.000 A 
ATOM     21  C   UNL     1       7.256   5.265  14.040  0.00  0.00    +0.000 A 
ATOM     22  C   UNL     1       7.784   4.904  12.796  0.00  0.00    +0.000 A 
ATOM     23  C   UNL     1       7.107   3.986  11.986  0.00  0.00    +0.000 A 
ATOM     24  C   UNL     1       5.910   3.416  12.425  0.00  0.00    +0.000 A 
ATOM     25  C   UNL     1       5.385   3.764  13.671  0.00  0.00    +0.000 A 
ENDBRANCH  19  20
ENDBRANCH  15  19
ENDBRANCH  14  15
ENDBRANCH   1  14
TORSDOF 7
ENDMDL
MODEL 2
REMARK VINA RESULT:      -7.7      2.682      5.648
REMARK  Name = 
REMARK  9 active torsions:
REMARK  status: ('A' for Active; 'I' for Inactive)
REMARK    1  A    between atoms: C_1  and  C_2
REMARK    2  A    between atoms: C_2  and  C_3
REMARK    3  A    between atoms: C_2  and  N_4
REMARK    4  A    between atoms: N_4  and  C_5
REMARK    5  A    between atoms: N_4  and  C_19
REMARK    6  A    between atoms: C_5  and  C_6
REMARK    7  A    between atoms: C_6  and  C_7
REMARK    8  A    between atoms: C_7  and  C_9
REMARK    9  A    between atoms: C_19  and  C_20
REMARK                            x       y       z     vdW  Elec       q    Type
REMARK                         _______ _______ _______ _____ _____    ______ ____
ROOT
ATOM      1  C   UNL     1       2.355   7.629  17.688  0.00  0.00    +0.000 C 
ENDROOT
BRANCH   1   2
ATOM      2  C   UNL     1       1.929   8.991  18.150  0.00  0.00    +0.000 C 
ATOM      3  O   UNL     1       2.061   9.923  17.367  0.00  0.00    +0.000 OA
BRANCH   2   4
ATOM      4  C   UNL     1       1.274   9.233  19.460  0.00  0.00    +0.000 A 
ATOM      5  C   UNL     1       1.400   8.342  20.545  0.00  0.00    +0.000 A 
ATOM      6  C   UNL     1       0.755   8.604  21.758  0.00  0.00    +0.000 A 
ATOM      7  C   UNL     1      -0.038   9.750  21.901  0.00  0.00    +0.000 A 
ATOM      8  C   UNL     1      -0.699  10.022  23.106  0.00  0.00    +0.000 A 
ATOM      9  C   UNL     1      -1.502  11.161  23.221  0.00  0.00    +0.000 A 
ATOM     10  C   UNL     1      -1.648  12.032  22.137  0.00  0.00    +0.000 A 
ATOM     11  C   UNL     1      -0.992  11.778  20.937  0.00  0.00    +0.000 A 
ATOM     12  C   UNL     1      -0.183  10.639  20.810  0.00  0.00    +0.000 A 
ATOM     13  C   UNL     1       0.475  10.379  19.608  0.00  0.00    +0.000 A 
ENDBRANCH   2   4
ENDBRANCH   1   2
BRANCH   1  14
ATOM     14  C   UNL     1       3.800   7.249  18.055  0.00  0.00    +0.000 C 
BRANCH  14  15
ATOM     15  N   UNL     1       4.060   5.785  17.988  0.00  0.00    +0.000 NA
BRANCH  15  17
ATOM     16  C   UNL     1       5.120   4.193  16.237  0.00  0.00    +0.000 C 
ATOM     17  C   UNL     1       5.308   5.301  17.306  0.00  0.00    +0.000 C 
ATOM     18  C   UNL     1       6.147   6.460  16.758  0.00  0.00    +0.000 C 
ENDBRANCH  15  17
BRANCH  15  19
ATOM     19  C   UNL     1       2.835   5.005  17.673  0.00  0.00    +0.000 C 
BRANCH  19  20
ATOM     20  C   UNL     1       2.264   4.355  18.908  0.00  0.00    +0.000 A 
ATOM     21  C   UNL     1       2.790   4.646  20.179  0.00  0.00    +0.000 A 
ATOM     22  C   UNL     1       2.281   4.003  21.312  0.00  0.00    +0.000 A 
ATOM     23  C   UNL     1       1.253   3.063  21.183  0.00  0.00    +0.000 A 
ATOM     24  C   UNL     1       0.723   2.775  19.923  0.00  0.00    +0.000 A 
ATOM     25  C   UNL     1       1.219   3.423  18.791  0.00  0.00    +0.000 A 
ENDBRANCH  19  20
ENDBRANCH  15  19
ENDBRANCH  14  15
ENDBRANCH   1  14
TORSDOF 7
ENDMDL
MODEL 3
REMARK VINA RESULT:      -7.7      2.098      4.288
REMARK  Name = 
REMARK  9 active torsions:
REMARK  status: ('A' for Active; 'I' for Inactive)
REMARK    1  A    between atoms: C_1  and  C_2
REMARK    2  A    between atoms: C_2  and  C_3
REMARK    3  A    between atoms: C_2  and  N_4
REMARK    4  A    between atoms: N_4  and  C_5
REMARK    5  A    between atoms: N_4  and  C_19
REMARK    6  A    between atoms: C_5  and  C_6
REMARK    7  A    between atoms: C_6  and  C_7
REMARK    8  A    between atoms: C_7  and  C_9
REMARK    9  A    between atoms: C_19  and  C_20
REMARK                            x       y       z     vdW  Elec       q    Type
REMARK                         _______ _______ _______ _____ _____    ______ ____
ROOT
ATOM      1  C   UNL     1       2.212   5.925  18.192  0.00  0.00    +0.000 C 
ENDROOT
BRANCH   1   2
ATOM      2  C   UNL     1       2.609   7.367  18.305  0.00  0.00    +0.000 C 
ATOM      3  O   UNL     1       3.650   7.714  17.761  0.00  0.00    +0.000 OA
BRANCH   2   4
ATOM      4  C   UNL     1       1.756   8.393  18.957  0.00  0.00    +0.000 A 
ATOM      5  C   UNL     1       1.253   9.509  18.261  0.00  0.00    +0.000 A 
ATOM      6  C   UNL     1       0.462  10.459  18.917  0.00  0.00    +0.000 A 
ATOM      7  C   UNL     1       0.177  10.317  20.281  0.00  0.00    +0.000 A 
ATOM      8  C   UNL     1      -0.604  11.263  20.956  0.00  0.00    +0.000 A 
ATOM      9  C   UNL     1      -0.859  11.112  22.322  0.00  0.00    +0.000 A 
ATOM     10  C   UNL     1      -0.339  10.018  23.019  0.00  0.00    +0.000 A 
ATOM     11  C   UNL     1       0.434   9.067  22.361  0.00  0.00    +0.000 A 
ATOM     12  C   UNL     1       0.695   9.207  20.989  0.00  0.00    +0.000 A 
ATOM     13  C   UNL     1       1.471   8.257  20.325  0.00  0.00    +0.000 A 
ENDBRANCH   2   4
ENDBRANCH   1   2
BRANCH   1  14
ATOM     14  C   UNL     1       2.629   5.049  19.386  0.00  0.00    +0.000 C 
BRANCH  14  15
ATOM     15  N   UNL     1       3.523   3.922  19.007  0.00  0.00    +0.000 NA
BRANCH  15  17
ATOM     16  C   UNL     1       1.789   2.352  20.126  0.00  0.00    +0.000 C 
ATOM     17  C   UNL     1       3.192   2.538  19.491  0.00  0.00    +0.000 C 
ATOM     18  C   UNL     1       3.458   1.477  18.418  0.00  0.00    +0.000 C 
ENDBRANCH  15  17
BRANCH  15  19
ATOM     19  C   UNL     1       4.961   4.284  19.093  0.00  0.00    +0.000 C 
BRANCH  19  20
ATOM     20  C   UNL     1       5.575   4.429  17.723  0.00  0.00    +0.000 A 
ATOM     21  C   UNL     1       4.781   4.325  16.568  0.00  0.00    +0.000 A 
ATOM     22  C   UNL     1       5.370   4.417  15.302  0.00  0.00    +0.000 A 
ATOM     23  C   UNL     1       6.751   4.604  15.183  0.00  0.00    +0.000 A 
ATOM     24  C   UNL     1       7.543   4.715  16.327  0.00  0.00    +0.000 A 
ATOM     25  C   UNL     1       6.958   4.636  17.593  0.00  0.00    +0.000 A 
ENDBRANCH  19  20
ENDBRANCH  15  19
ENDBRANCH  14  15
ENDBRANCH   1  14
TORSDOF 7
ENDMDL
MODEL 4
REMARK VINA RESULT:      -7.7      2.378      4.561
REMARK  Name = 
REMARK  9 active torsions:
REMARK  status: ('A' for Active; 'I' for Inactive)
REMARK    1  A    between atoms: C_1  and  C_2
REMARK    2  A    between atoms: C_2  and  C_3
REMARK    3  A    between atoms: C_2  and  N_4
REMARK    4  A    between atoms: N_4  and  C_5
REMARK    5  A    between atoms: N_4  and  C_19
REMARK    6  A    between atoms: C_5  and  C_6
REMARK    7  A    between atoms: C_6  and  C_7
REMARK    8  A    between atoms: C_7  and  C_9
REMARK    9  A    between atoms: C_19  and  C_20
REMARK                            x       y       z     vdW  Elec       q    Type
REMARK                         _______ _______ _______ _____ _____    ______ ____
ROOT
ATOM      1  C   UNL     1       2.195   5.933  18.430  0.00  0.00    +0.000 C 
ENDROOT
BRANCH   1   2
ATOM      2  C   UNL     1       2.582   7.382  18.421  0.00  0.00    +0.000 C 
ATOM      3  O   UNL     1       3.581   7.699  17.786  0.00  0.00    +0.000 OA
BRANCH   2   4
ATOM      4  C   UNL     1       1.762   8.443  19.057  0.00  0.00    +0.000 A 
ATOM      5  C   UNL     1       1.379   9.614  18.374  0.00  0.00    +0.000 A 
ATOM      6  C   UNL     1       0.616  10.595  19.017  0.00  0.00    +0.000 A 
ATOM      7  C   UNL     1       0.238  10.428  20.355  0.00  0.00    +0.000 A 
ATOM      8  C   UNL     1      -0.517  11.404  21.017  0.00  0.00    +0.000 A 
ATOM      9  C   UNL     1      -0.866  11.227  22.359  0.00  0.00    +0.000 A 
ATOM     10  C   UNL     1      -0.465  10.077  23.046  0.00  0.00    +0.000 A 
ATOM     11  C   UNL     1       0.281   9.097  22.400  0.00  0.00    +0.000 A 
ATOM     12  C   UNL     1       0.635   9.263  21.052  0.00  0.00    +0.000 A 
ATOM     13  C   UNL     1       1.384   8.283  20.400  0.00  0.00    +0.000 A 
ENDBRANCH   2   4
ENDBRANCH   1   2
BRANCH   1  14
ATOM     14  C   UNL     1       2.899   5.087  19.505  0.00  0.00    +0.000 C 
BRANCH  14  15
ATOM     15  N   UNL     1       3.522   3.848  18.965  0.00  0.00    +0.000 NA
BRANCH  15  17
ATOM     16  C   UNL     1       1.289   2.596  18.558  0.00  0.00    +0.000 C 
ATOM     17  C   UNL     1       2.759   2.556  19.050  0.00  0.00    +0.000 C 
ATOM     18  C   UNL     1       3.525   1.395  18.407  0.00  0.00    +0.000 C 
ENDBRANCH  15  17
BRANCH  15  19
ATOM     19  C   UNL     1       4.965   3.743  19.306  0.00  0.00    +0.000 C 
BRANCH  19  20
ATOM     20  C   UNL     1       5.794   4.701  18.489  0.00  0.00    +0.000 A 
ATOM     21  C   UNL     1       6.753   5.524  19.106  0.00  0.00    +0.000 A 
ATOM     22  C   UNL     1       7.485   6.440  18.343  0.00  0.00    +0.000 A 
ATOM     23  C   UNL     1       7.258   6.546  16.967  0.00  0.00    +0.000 A 
ATOM     24  C   UNL     1       6.311   5.727  16.349  0.00  0.00    +0.000 A 
ATOM     25  C   UNL     1       5.587   4.803  17.104  0.00  0.00    +0.000 A 
ENDBRANCH  19  20
ENDBRANCH  15  19
ENDBRANCH  14  15
ENDBRANCH   1  14
TORSDOF 7
ENDMDL
MODEL 5
REMARK VINA RESULT:      -7.6      2.608      5.371
REMARK  Name = 
REMARK  9 active torsions:
REMARK  status: ('A' for Active; 'I' for Inactive)
REMARK    1  A    between atoms: C_1  and  C_2
REMARK    2  A    between atoms: C_2  and  C_3
REMARK    3  A    between atoms: C_2  and  N_4
REMARK    4  A    between atoms: N_4  and  C_5
REMARK    5  A    between atoms: N_4  and  C_19
REMARK    6  A    between atoms: C_5  and  C_6
REMARK    7  A    between atoms: C_6  and  C_7
REMARK    8  A    between atoms: C_7  and  C_9
REMARK    9  A    between atoms: C_19  and  C_20
REMARK                            x       y       z     vdW  Elec       q    Type
REMARK                         _______ _______ _______ _____ _____    ______ ____
ROOT
ATOM      1  C   UNL     1       2.912   6.871  18.653  0.00  0.00    +0.000 C 
ENDROOT
BRANCH   1   2
ATOM      2  C   UNL     1       2.399   8.200  18.185  0.00  0.00    +0.000 C 
ATOM      3  O   UNL     1       2.687   8.552  17.048  0.00  0.00    +0.000 OA
BRANCH   2   4
ATOM      4  C   UNL     1       1.489   9.048  18.996  0.00  0.00    +0.000 A 
ATOM      5  C   UNL     1       0.841  10.182  18.468  0.00  0.00    +0.000 A 
ATOM      6  C   UNL     1       0.001  10.960  19.271  0.00  0.00    +0.000 A 
ATOM      7  C   UNL     1      -0.192  10.627  20.618  0.00  0.00    +0.000 A 
ATOM      8  C   UNL     1      -1.022  11.400  21.439  0.00  0.00    +0.000 A 
ATOM      9  C   UNL     1      -1.184  11.062  22.786  0.00  0.00    +0.000 A 
ATOM     10  C   UNL     1      -0.522   9.951  23.318  0.00  0.00    +0.000 A 
ATOM     11  C   UNL     1       0.300   9.170  22.513  0.00  0.00    +0.000 A 
ATOM     12  C   UNL     1       0.470   9.499  21.159  0.00  0.00    +0.000 A 
ATOM     13  C   UNL     1       1.295   8.720  20.348  0.00  0.00    +0.000 A 
ENDBRANCH   2   4
ENDBRANCH   1   2
BRANCH   1  14
ATOM     14  C   UNL     1       3.767   6.114  17.623  0.00  0.00    +0.000 C 
BRANCH  14  15
ATOM     15  N   UNL     1       4.785   5.222  18.242  0.00  0.00    +0.000 NA
BRANCH  15  17
ATOM     16  C   UNL     1       7.091   5.571  19.375  0.00  0.00    +0.000 C 
ATOM     17  C   UNL     1       6.240   5.559  18.078  0.00  0.00    +0.000 C 
ATOM     18  C   UNL     1       6.905   4.709  16.990  0.00  0.00    +0.000 C 
ENDBRANCH  15  17
BRANCH  15  19
ATOM     19  C   UNL     1       4.456   3.783  18.076  0.00  0.00    +0.000 C 
BRANCH  19  20
ATOM     20  C   UNL     1       3.213   3.411  18.845  0.00  0.00    +0.000 A 
ATOM     21  C   UNL     1       2.070   2.941  18.175  0.00  0.00    +0.000 A 
ATOM     22  C   UNL     1       0.909   2.641  18.895  0.00  0.00    +0.000 A 
ATOM     23  C   UNL     1       0.879   2.816  20.283  0.00  0.00    +0.000 A 
ATOM     24  C   UNL     1       2.014   3.277  20.954  0.00  0.00    +0.000 A 
ATOM     25  C   UNL     1       3.179   3.566  20.241  0.00  0.00    +0.000 A 
ENDBRANCH  19  20
ENDBRANCH  15  19
ENDBRANCH  14  15
ENDBRANCH   1  14
TORSDOF 7
ENDMDL
MODEL 6
REMARK VINA RESULT:      -7.6      2.856      4.992
REMARK  Name = 
REMARK  9 active torsions:
REMARK  status: ('A' for Active; 'I' for Inactive)
REMARK    1  A    between atoms: C_1  and  C_2
REMARK    2  A    between atoms: C_2  and  C_3
REMARK    3  A    between atoms: C_2  and  N_4
REMARK    4  A    between atoms: N_4  and  C_5
REMARK    5  A    between atoms: N_4  and  C_19
REMARK    6  A    between atoms: C_5  and  C_6
REMARK    7  A    between atoms: C_6  and  C_7
REMARK    8  A    between atoms: C_7  and  C_9
REMARK    9  A    between atoms: C_19  and  C_20
REMARK                            x       y       z     vdW  Elec       q    Type
REMARK                         _______ _______ _______ _____ _____    ______ ____
ROOT
ATOM      1  C   UNL     1       2.720   7.095  18.369  0.00  0.00    +0.000 C 
ENDROOT
BRANCH   1   2
ATOM      2  C   UNL     1       2.086   8.452  18.441  0.00  0.00    +0.000 C 
ATOM      3  O   UNL     1       2.100   9.140  17.428  0.00  0.00    +0.000 OA
BRANCH   2   4
ATOM      4  C   UNL     1       1.367   8.948  19.642  0.00  0.00    +0.000 A 
ATOM      5  C   UNL     1       1.448   8.302  20.892  0.00  0.00    +0.000 A 
ATOM      6  C   UNL     1       0.745   8.798  21.994  0.00  0.00    +0.000 A 
ATOM      7  C   UNL     1      -0.063   9.934  21.862  0.00  0.00    +0.000 A 
ATOM      8  C   UNL     1      -0.783  10.437  22.953  0.00  0.00    +0.000 A 
ATOM      9  C   UNL     1      -1.599  11.561  22.794  0.00  0.00    +0.000 A 
ATOM     10  C   UNL     1      -1.700  12.187  21.549  0.00  0.00    +0.000 A 
ATOM     11  C   UNL     1      -0.987  11.702  20.457  0.00  0.00    +0.000 A 
ATOM     12  C   UNL     1      -0.163  10.576  20.605  0.00  0.00    +0.000 A 
ATOM     13  C   UNL     1       0.553  10.085  19.513  0.00  0.00    +0.000 A 
ENDBRANCH   2   4
ENDBRANCH   1   2
BRANCH   1  14
ATOM     14  C   UNL     1       3.969   7.017  17.475  0.00  0.00    +0.000 C 
BRANCH  14  15
ATOM     15  N   UNL     1       4.810   5.817  17.740  0.00  0.00    +0.000 NA
BRANCH  15  17
ATOM     16  C   UNL     1       6.853   7.356  17.319  0.00  0.00    +0.000 C 
ATOM     17  C   UNL     1       6.305   5.957  17.704  0.00  0.00    +0.000 C 
ATOM     18  C   UNL     1       6.960   5.443  18.991  0.00  0.00    +0.000 C 
ENDBRANCH  15  17
BRANCH  15  19
ATOM     19  C   UNL     1       4.282   4.597  17.077  0.00  0.00    +0.000 C 
BRANCH  19  20
ATOM     20  C   UNL     1       3.401   3.802  18.009  0.00  0.00    +0.000 A 
ATOM     21  C   UNL     1       2.089   3.462  17.638  0.00  0.00    +0.000 A 
ATOM     22  C   UNL     1       1.267   2.763  18.529  0.00  0.00    +0.000 A 
ATOM     23  C   UNL     1       1.747   2.409  19.794  0.00  0.00    +0.000 A 
ATOM     24  C   UNL     1       3.052   2.739  20.165  0.00  0.00    +0.000 A 
ATOM     25  C   UNL     1       3.879   3.425  19.275  0.00  0.00    +0.000 A 
ENDBRANCH  19  20
ENDBRANCH  15  19
ENDBRANCH  14  15
ENDBRANCH   1  14
TORSDOF 7
ENDMDL
MODEL 7
REMARK VINA RESULT:      -7.6      2.575      5.556
REMARK  Name = 
REMARK  9 active torsions:
REMARK  status: ('A' for Active; 'I' for Inactive)
REMARK    1  A    between atoms: C_1  and  C_2
REMARK    2  A    between atoms: C_2  and  C_3
REMARK    3  A    between atoms: C_2  and  N_4
REMARK    4  A    between atoms: N_4  and  C_5
REMARK    5  A    between atoms: N_4  and  C_19
REMARK    6  A    between atoms: C_5  and  C_6
REMARK    7  A    between atoms: C_6  and  C_7
REMARK    8  A    between atoms: C_7  and  C_9
REMARK    9  A    between atoms: C_19  and  C_20
REMARK                            x       y       z     vdW  Elec       q    Type
REMARK                         _______ _______ _______ _____ _____    ______ ____
ROOT
ATOM      1  C   UNL     1       2.287   7.251  17.864  0.00  0.00    +0.000 C 
ENDROOT
BRANCH   1   2
ATOM      2  C   UNL     1       1.948   8.658  18.256  0.00  0.00    +0.000 C 
ATOM      3  O   UNL     1       2.141   9.540  17.429  0.00  0.00    +0.000 OA
BRANCH   2   4
ATOM      4  C   UNL     1       1.306   9.007  19.549  0.00  0.00    +0.000 A 
ATOM      5  C   UNL     1       1.468   8.223  20.709  0.00  0.00    +0.000 A 
ATOM      6  C   UNL     1       0.835   8.583  21.903  0.00  0.00    +0.000 A 
ATOM      7  C   UNL     1       0.018   9.719  21.954  0.00  0.00    +0.000 A 
ATOM      8  C   UNL     1      -0.631  10.088  23.138  0.00  0.00    +0.000 A 
ATOM      9  C   UNL     1      -1.458  11.215  23.161  0.00  0.00    +0.000 A 
ATOM     10  C   UNL     1      -1.639  11.979  22.005  0.00  0.00    +0.000 A 
ATOM     11  C   UNL     1      -0.996  11.628  20.822  0.00  0.00    +0.000 A 
ATOM     12  C   UNL     1      -0.163  10.500  20.788  0.00  0.00    +0.000 A 
ATOM     13  C   UNL     1       0.483  10.144  19.603  0.00  0.00    +0.000 A 
ENDBRANCH   2   4
ENDBRANCH   1   2
BRANCH   1  14
ATOM     14  C   UNL     1       3.522   6.668  18.571  0.00  0.00    +0.000 C 
BRANCH  14  15
ATOM     15  N   UNL     1       4.140   5.530  17.836  0.00  0.00    +0.000 NA
BRANCH  15  17
ATOM     16  C   UNL     1       6.439   6.463  17.082  0.00  0.00    +0.000 C 
ATOM     17  C   UNL     1       5.077   5.825  16.700  0.00  0.00    +0.000 C 
ATOM     18  C   UNL     1       5.275   4.608  15.790  0.00  0.00    +0.000 C 
ENDBRANCH  15  17
BRANCH  15  19
ATOM     19  C   UNL     1       3.176   4.430  17.579  0.00  0.00    +0.000 C 
BRANCH  19  20
ATOM     20  C   UNL     1       2.644   3.853  18.867  0.00  0.00    +0.000 A 
ATOM     21  C   UNL     1       1.283   3.973  19.197  0.00  0.00    +0.000 A 
ATOM     22  C   UNL     1       0.810   3.473  20.415  0.00  0.00    +0.000 A 
ATOM     23  C   UNL     1       1.691   2.859  21.311  0.00  0.00    +0.000 A 
ATOM     24  C   UNL     1       3.043   2.731  20.985  0.00  0.00    +0.000 A 
ATOM     25  C   UNL     1       3.517   3.218  19.765  0.00  0.00    +0.000 A 
ENDBRANCH  19  20
ENDBRANCH  15  19
ENDBRANCH  14  15
ENDBRANCH   1  14
TORSDOF 7
ENDMDL
MODEL 8
REMARK VINA RESULT:      -7.6      2.385      5.540
REMARK  Name = 
REMARK  9 active torsions:
REMARK  status: ('A' for Active; 'I' for Inactive)
REMARK    1  A    between atoms: C_1  and  C_2
REMARK    2  A    between atoms: C_2  and  C_3
REMARK    3  A    between atoms: C_2  and  N_4
REMARK    4  A    between atoms: N_4  and  C_5
REMARK    5  A    between atoms: N_4  and  C_19
REMARK    6  A    between atoms: C_5  and  C_6
REMARK    7  A    between atoms: C_6  and  C_7
REMARK    8  A    between atoms: C_7  and  C_9
REMARK    9  A    between atoms: C_19  and  C_20
REMARK                            x       y       z     vdW  Elec       q    Type
REMARK                         _______ _______ _______ _____ _____    ______ ____
ROOT
ATOM      1  C   UNL     1       2.810   7.027  18.438  0.00  0.00    +0.000 C 
ENDROOT
BRANCH   1   2
ATOM      2  C   UNL     1       2.287   8.386  18.077  0.00  0.00    +0.000 C 
ATOM      3  O   UNL     1       2.534   8.809  16.954  0.00  0.00    +0.000 OA
BRANCH   2   4
ATOM      4  C   UNL     1       1.415   9.183  18.975  0.00  0.00    +0.000 A 
ATOM      5  C   UNL     1       0.774  10.365  18.554  0.00  0.00    +0.000 A 
ATOM      6  C   UNL     1      -0.031  11.092  19.438  0.00  0.00    +0.000 A 
ATOM      7  C   UNL     1      -0.193  10.659  20.760  0.00  0.00    +0.000 A 
ATOM      8  C   UNL     1      -0.987  11.380  21.661  0.00  0.00    +0.000 A 
ATOM      9  C   UNL     1      -1.120  10.941  22.982  0.00  0.00    +0.000 A 
ATOM     10  C   UNL     1      -0.464   9.783  23.408  0.00  0.00    +0.000 A 
ATOM     11  C   UNL     1       0.323   9.053  22.523  0.00  0.00    +0.000 A 
ATOM     12  C   UNL     1       0.462   9.483  21.194  0.00  0.00    +0.000 A 
ATOM     13  C   UNL     1       1.251   8.755  20.303  0.00  0.00    +0.000 A 
ENDBRANCH   2   4
ENDBRANCH   1   2
BRANCH   1  14
ATOM     14  C   UNL     1       4.100   6.620  17.705  0.00  0.00    +0.000 C 
BRANCH  14  15
ATOM     15  N   UNL     1       4.455   5.186  17.891  0.00  0.00    +0.000 NA
BRANCH  15  17
ATOM     16  C   UNL     1       5.913   4.022  16.090  0.00  0.00    +0.000 C 
ATOM     17  C   UNL     1       5.821   4.718  17.473  0.00  0.00    +0.000 C 
ATOM     18  C   UNL     1       6.871   5.826  17.604  0.00  0.00    +0.000 C 
ENDBRANCH  15  17
BRANCH  15  19
ATOM     19  C   UNL     1       3.343   4.273  17.521  0.00  0.00    +0.000 C 
BRANCH  19  20
ATOM     20  C   UNL     1       2.661   3.713  18.744  0.00  0.00    +0.000 A 
ATOM     21  C   UNL     1       1.264   3.562  18.778  0.00  0.00    +0.000 A 
ATOM     22  C   UNL     1       0.639   3.083  19.935  0.00  0.00    +0.000 A 
ATOM     23  C   UNL     1       1.402   2.763  21.063  0.00  0.00    +0.000 A 
ATOM     24  C   UNL     1       2.791   2.906  21.031  0.00  0.00    +0.000 A 
ATOM     25  C   UNL     1       3.420   3.371  19.875  0.00  0.00    +0.000 A 
ENDBRANCH  19  20
ENDBRANCH  15  19
ENDBRANCH  14  15
ENDBRANCH   1  14
TORSDOF 7
ENDMDL
MODEL 9
REMARK VINA RESULT:      -7.5      2.180      5.128
REMARK  Name = 
REMARK  9 active torsions:
REMARK  status: ('A' for Active; 'I' for Inactive)
REMARK    1  A    between atoms: C_1  and  C_2
REMARK    2  A    between atoms: C_2  and  C_3
REMARK    3  A    between atoms: C_2  and  N_4
REMARK    4  A    between atoms: N_4  and  C_5
REMARK    5  A    between atoms: N_4  and  C_19
REMARK    6  A    between atoms: C_5  and  C_6
REMARK    7  A    between atoms: C_6  and  C_7
REMARK    8  A    between atoms: C_7  and  C_9
REMARK    9  A    between atoms: C_19  and  C_20
REMARK                            x       y       z     vdW  Elec       q    Type
REMARK                         _______ _______ _______ _____ _____    ______ ____
ROOT
ATOM      1  C   UNL     1       3.724   6.731  18.418  0.00  0.00    +0.000 C 
ENDROOT
BRANCH   1   2
ATOM      2  C   UNL     1       2.691   7.812  18.311  0.00  0.00    +0.000 C 
ATOM      3  O   UNL     1       2.448   8.259  17.197  0.00  0.00    +0.000 OA
BRANCH   2   4
ATOM      4  C   UNL     1       1.892   8.286  19.470  0.00  0.00    +0.000 A 
ATOM      5  C   UNL     1       1.699   7.504  20.626  0.00  0.00    +0.000 A 
ATOM      6  C   UNL     1       0.929   7.985  21.689  0.00  0.00    +0.000 A 
ATOM      7  C   UNL     1       0.326   9.247  21.608  0.00  0.00    +0.000 A 
ATOM      8  C   UNL     1      -0.457   9.741  22.659  0.00  0.00    +0.000 A 
ATOM      9  C   UNL     1      -1.066  10.994  22.549  0.00  0.00    +0.000 A 
ATOM     10  C   UNL     1      -0.896  11.760  21.392  0.00  0.00    +0.000 A 
ATOM     11  C   UNL     1      -0.116  11.286  20.342  0.00  0.00    +0.000 A 
ATOM     12  C   UNL     1       0.501  10.030  20.443  0.00  0.00    +0.000 A 
ATOM     13  C   UNL     1       1.282   9.549  19.391  0.00  0.00    +0.000 A 
ENDBRANCH   2   4
ENDBRANCH   1   2
BRANCH   1  14
ATOM     14  C   UNL     1       4.093   6.062  17.082  0.00  0.00    +0.000 C 
BRANCH  14  15
ATOM     15  N   UNL     1       4.463   4.627  17.224  0.00  0.00    +0.000 NA
BRANCH  15  17
ATOM     16  C   UNL     1       5.643   4.254  14.946  0.00  0.00    +0.000 C 
ATOM     17  C   UNL     1       5.669   4.113  16.490  0.00  0.00    +0.000 C 
ATOM     18  C   UNL     1       6.973   4.669  17.072  0.00  0.00    +0.000 C 
ENDBRANCH  15  17
BRANCH  15  19
ATOM     19  C   UNL     1       3.280   3.729  17.184  0.00  0.00    +0.000 C 
BRANCH  19  20
ATOM     20  C   UNL     1       2.694   3.530  18.560  0.00  0.00    +0.000 A 
ATOM     21  C   UNL     1       1.387   3.957  18.850  0.00  0.00    +0.000 A 
ATOM     22  C   UNL     1       0.870   3.806  20.141  0.00  0.00    +0.000 A 
ATOM     23  C   UNL     1       1.657   3.240  21.149  0.00  0.00    +0.000 A 
ATOM     24  C   UNL     1       2.955   2.809  20.865  0.00  0.00    +0.000 A 
ATOM     25  C   UNL     1       3.470   2.946  19.575  0.00  0.00    +0.000 A 
ENDBRANCH  19  20
ENDBRANCH  15  19
ENDBRANCH  14  15
ENDBRANCH   1  14
TORSDOF 7
ENDMDL
