MODEL 1
REMARK VINA RESULT:      -7.3      0.000      0.000
REMARK  Name = 
REMARK  13 active torsions:
REMARK  status: ('A' for Active; 'I' for Inactive)
REMARK    1  A    between atoms: C_2  and  O_3
REMARK    2  A    between atoms: C_2  and  C_4
REMARK    3  A    between atoms: C_4  and  C_5
REMARK    4  A    between atoms: C_5  and  O_6
REMARK    5  A    between atoms: C_5  and  C_7
REMARK    6  A    between atoms: C_7  and  P_8
REMARK    7  A    between atoms: P_8  and  O_10
REMARK    8  A    between atoms: P_8  and  O_11
REMARK    9  A    between atoms: O_11  and  C_12
REMARK   10  A    between atoms: C_12  and  C_13
REMARK   11  A    between atoms: C_14  and  C_15
REMARK   12  A    between atoms: C_23  and  C_24
REMARK   13  A    between atoms: C_31  and  C_32
REMARK                            x       y       z     vdW  Elec       q    Type
REMARK                         _______ _______ _______ _____ _____    ______ ____
ROOT
ATOM      1  C   UNL     1       1.736   7.296  19.894  0.00  0.00    +0.000 A 
ATOM      2  C   UNL     1       2.077   8.152  18.806  0.00  0.00    +0.000 A 
ATOM      3  C   UNL     1       2.955   7.644  17.837  0.00  0.00    +0.000 A 
ATOM      4  C   UNL     1       3.456   6.359  17.941  0.00  0.00    +0.000 A 
ATOM      5  N   UNL     1       3.097   5.547  18.963  0.00  0.00    +0.000 NA
ATOM      6  C   UNL     1       2.308   6.007  19.973  0.00  0.00    +0.000 A 
ENDROOT
BRANCH   2   7
ATOM      7  C   UNL     1       1.549   9.536  18.617  0.00  0.00    +0.000 A 
ATOM      8  C   UNL     1       2.404  10.634  18.436  0.00  0.00    +0.000 A 
ATOM      9  C   UNL     1       1.935  11.946  18.404  0.00  0.00    +0.000 A 
ATOM     10  C   UNL     1       0.572  12.175  18.415  0.00  0.00    +0.000 A 
ATOM     11  F   UNL     1       0.117  13.428  18.339  0.00  0.00    +0.000 F 
ATOM     12  C   UNL     1      -0.317  11.118  18.479  0.00  0.00    +0.000 A 
ATOM     13  C   UNL     1       0.164   9.808  18.608  0.00  0.00    +0.000 A 
ENDBRANCH   2   7
BRANCH   4  14
ATOM     14  C   UNL     1       4.367   5.769  16.944  0.00  0.00    +0.000 A 
ATOM     15  C   UNL     1       5.007   6.591  15.999  0.00  0.00    +0.000 A 
ATOM     16  C   UNL     1       5.830   6.054  15.008  0.00  0.00    +0.000 A 
ATOM     17  C   UNL     1       6.037   4.679  14.951  0.00  0.00    +0.000 A 
ATOM     18  C   UNL     1       5.447   3.850  15.896  0.00  0.00    +0.000 A 
ATOM     19  C   UNL     1       4.628   4.387  16.889  0.00  0.00    +0.000 A 
ENDBRANCH   4  14
BRANCH   6  20
ATOM     20  C   UNL     1       2.027   5.020  21.109  0.00  0.00    +0.000 C 
ATOM     21  C   UNL     1       1.161   3.796  20.873  0.00  0.00    +0.000 C 
ATOM     22  C   UNL     1       2.632   3.631  21.089  0.00  0.00    +0.000 C 
ENDBRANCH   6  20
BRANCH   1  23
ATOM     23  C   UNL     1       0.702   7.713  20.922  0.00  0.00    +0.000 C 
BRANCH  23  24
ATOM     24  O   UNL     1       1.305   8.588  21.893  0.00  0.00    +0.000 OA
BRANCH  24  25
ATOM     25  P   UNL     1       0.103   9.704  22.445  0.00  0.00    +0.000 P 
ATOM     26  O   UNL     1       0.897  10.881  21.876  0.00  0.00    +0.000 OA
BRANCH  25  27
ATOM     27  O   UNL     1       0.611   9.558  24.003  0.00  0.00    +0.000 OA
ATOM     28  H   UNL     1      -0.158   9.583  24.610  0.00  0.00    +0.000 HD
ENDBRANCH  25  27
BRANCH  25  29
ATOM     29  C   UNL     1      -1.167  10.885  23.029  0.00  0.00    +0.000 C 
BRANCH  29  30
ATOM     30  C   UNL     1      -1.398  12.043  22.060  0.00  0.00    +0.000 C 
BRANCH  30  31
ATOM     31  O   UNL     1      -0.601  13.160  22.473  0.00  0.00    +0.000 OA
ATOM     32  H   UNL     1      -0.464  13.089  23.443  0.00  0.00    +0.000 HD
ENDBRANCH  30  31
BRANCH  30  33
ATOM     33  C   UNL     1      -2.869  12.476  21.898  0.00  0.00    +0.000 C 
BRANCH  33  35
ATOM     34  O   UNL     1      -4.153  12.708  19.879  0.00  0.00    +0.000 OA
ATOM     35  C   UNL     1      -3.164  13.049  20.537  0.00  0.00    +0.000 C 
BRANCH  35  36
ATOM     36  O   UNL     1      -2.320  13.971  20.074  0.00  0.00    +0.000 OA
ATOM     37  H   UNL     1      -2.571  14.431  19.236  0.00  0.00    +0.000 HD
ENDBRANCH  35  36
ENDBRANCH  33  35
ENDBRANCH  30  33
ENDBRANCH  29  30
ENDBRANCH  25  29
ENDBRANCH  24  25
ENDBRANCH  23  24
ENDBRANCH   1  23
TORSDOF 13
ENDMDL
MODEL 2
REMARK VINA RESULT:      -7.3      0.781      1.268
REMARK  Name = 
REMARK  13 active torsions:
REMARK  status: ('A' for Active; 'I' for Inactive)
REMARK    1  A    between atoms: C_2  and  O_3
REMARK    2  A    between atoms: C_2  and  C_4
REMARK    3  A    between atoms: C_4  and  C_5
REMARK    4  A    between atoms: C_5  and  O_6
REMARK    5  A    between atoms: C_5  and  C_7
REMARK    6  A    between atoms: C_7  and  P_8
REMARK    7  A    between atoms: P_8  and  O_10
REMARK    8  A    between atoms: P_8  and  O_11
REMARK    9  A    between atoms: O_11  and  C_12
REMARK   10  A    between atoms: C_12  and  C_13
REMARK   11  A    between atoms: C_14  and  C_15
REMARK   12  A    between atoms: C_23  and  C_24
REMARK   13  A    between atoms: C_31  and  C_32
REMARK                            x       y       z     vdW  Elec       q    Type
REMARK                         _______ _______ _______ _____ _____    ______ ____
ROOT
ATOM      1  C   UNL     1       1.767   7.219  19.917  0.00  0.00    +0.000 A 
ATOM      2  C   UNL     1       2.066   8.084  18.823  0.00  0.00    +0.000 A 
ATOM      3  C   UNL     1       2.932   7.596  17.834  0.00  0.00    +0.000 A 
ATOM      4  C   UNL     1       3.462   6.322  17.924  0.00  0.00    +0.000 A 
ATOM      5  N   UNL     1       3.143   5.501  18.952  0.00  0.00    +0.000 NA
ATOM      6  C   UNL     1       2.367   5.942  19.980  0.00  0.00    +0.000 A 
ENDROOT
BRANCH   2   7
ATOM      7  C   UNL     1       1.504   9.456  18.650  0.00  0.00    +0.000 A 
ATOM      8  C   UNL     1       2.333  10.582  18.519  0.00  0.00    +0.000 A 
ATOM      9  C   UNL     1       1.829  11.880  18.502  0.00  0.00    +0.000 A 
ATOM     10  C   UNL     1       0.459  12.072  18.476  0.00  0.00    +0.000 A 
ATOM     11  F   UNL     1      -0.028  13.314  18.415  0.00  0.00    +0.000 F 
ATOM     12  C   UNL     1      -0.401  10.989  18.490  0.00  0.00    +0.000 A 
ATOM     13  C   UNL     1       0.113   9.691  18.605  0.00  0.00    +0.000 A 
ENDBRANCH   2   7
BRANCH   4  14
ATOM     14  C   UNL     1       4.363   5.753  16.905  0.00  0.00    +0.000 A 
ATOM     15  C   UNL     1       4.548   4.362  16.825  0.00  0.00    +0.000 A 
ATOM     16  C   UNL     1       5.438   3.799  15.909  0.00  0.00    +0.000 A 
ATOM     17  C   UNL     1       6.154   4.622  15.045  0.00  0.00    +0.000 A 
ATOM     18  C   UNL     1       5.961   5.996  15.078  0.00  0.00    +0.000 A 
ATOM     19  C   UNL     1       5.068   6.558  15.991  0.00  0.00    +0.000 A 
ENDBRANCH   4  14
BRANCH   6  20
ATOM     20  C   UNL     1       2.133   4.948  21.120  0.00  0.00    +0.000 C 
ATOM     21  C   UNL     1       1.195   3.768  20.936  0.00  0.00    +0.000 C 
ATOM     22  C   UNL     1       2.669   3.533  21.029  0.00  0.00    +0.000 C 
ENDBRANCH   6  20
BRANCH   1  23
ATOM     23  C   UNL     1       0.748   7.612  20.968  0.00  0.00    +0.000 C 
BRANCH  23  24
ATOM     24  O   UNL     1       1.348   8.514  21.916  0.00  0.00    +0.000 OA
BRANCH  24  25
ATOM     25  P   UNL     1       0.153   9.663  22.412  0.00  0.00    +0.000 P 
ATOM     26  O   UNL     1       0.991  10.814  21.854  0.00  0.00    +0.000 OA
BRANCH  25  27
ATOM     27  O   UNL     1       0.604   9.529  23.988  0.00  0.00    +0.000 OA
ATOM     28  H   UNL     1       0.437   8.618  24.309  0.00  0.00    +0.000 HD
ENDBRANCH  25  27
BRANCH  25  29
ATOM     29  C   UNL     1      -1.110  10.879  22.936  0.00  0.00    +0.000 C 
BRANCH  29  30
ATOM     30  C   UNL     1      -0.937  12.245  22.272  0.00  0.00    +0.000 C 
BRANCH  30  31
ATOM     31  O   UNL     1      -0.429  13.171  23.241  0.00  0.00    +0.000 OA
ATOM     32  H   UNL     1      -1.172  13.429  23.828  0.00  0.00    +0.000 HD
ENDBRANCH  30  31
BRANCH  30  33
ATOM     33  C   UNL     1      -2.208  12.816  21.613  0.00  0.00    +0.000 C 
BRANCH  33  35
ATOM     34  O   UNL     1      -3.081  15.014  22.044  0.00  0.00    +0.000 OA
ATOM     35  C   UNL     1      -2.883  13.866  22.456  0.00  0.00    +0.000 C 
BRANCH  35  36
ATOM     36  O   UNL     1      -3.289  13.496  23.670  0.00  0.00    +0.000 OA
ATOM     37  H   UNL     1      -3.419  12.529  23.827  0.00  0.00    +0.000 HD
ENDBRANCH  35  36
ENDBRANCH  33  35
ENDBRANCH  30  33
ENDBRANCH  29  30
ENDBRANCH  25  29
ENDBRANCH  24  25
ENDBRANCH  23  24
ENDBRANCH   1  23
TORSDOF 13
ENDMDL
MODEL 3
REMARK VINA RESULT:      -7.2      0.546      1.070
REMARK  Name = 
REMARK  13 active torsions:
REMARK  status: ('A' for Active; 'I' for Inactive)
REMARK    1  A    between atoms: C_2  and  O_3
REMARK    2  A    between atoms: C_2  and  C_4
REMARK    3  A    between atoms: C_4  and  C_5
REMARK    4  A    between atoms: C_5  and  O_6
REMARK    5  A    between atoms: C_5  and  C_7
REMARK    6  A    between atoms: C_7  and  P_8
REMARK    7  A    between atoms: P_8  and  O_10
REMARK    8  A    between atoms: P_8  and  O_11
REMARK    9  A    between atoms: O_11  and  C_12
REMARK   10  A    between atoms: C_12  and  C_13
REMARK   11  A    between atoms: C_14  and  C_15
REMARK   12  A    between atoms: C_23  and  C_24
REMARK   13  A    between atoms: C_31  and  C_32
REMARK                            x       y       z     vdW  Elec       q    Type
REMARK                         _______ _______ _______ _____ _____    ______ ____
ROOT
ATOM      1  C   UNL     1       1.828   7.144  19.890  0.00  0.00    +0.000 A 
ATOM      2  C   UNL     1       2.127   8.013  18.799  0.00  0.00    +0.000 A 
ATOM      3  C   UNL     1       2.995   7.529  17.810  0.00  0.00    +0.000 A 
ATOM      4  C   UNL     1       3.526   6.255  17.896  0.00  0.00    +0.000 A 
ATOM      5  N   UNL     1       3.207   5.431  18.921  0.00  0.00    +0.000 NA
ATOM      6  C   UNL     1       2.429   5.867  19.950  0.00  0.00    +0.000 A 
ENDROOT
BRANCH   2   7
ATOM      7  C   UNL     1       1.565   9.386  18.630  0.00  0.00    +0.000 A 
ATOM      8  C   UNL     1       2.390  10.497  18.395  0.00  0.00    +0.000 A 
ATOM      9  C   UNL     1       1.897  11.800  18.379  0.00  0.00    +0.000 A 
ATOM     10  C   UNL     1       0.532  12.006  18.461  0.00  0.00    +0.000 A 
ATOM     11  F   UNL     1       0.052  13.250  18.401  0.00  0.00    +0.000 F 
ATOM     12  C   UNL     1      -0.334  10.934  18.581  0.00  0.00    +0.000 A 
ATOM     13  C   UNL     1       0.177   9.634  18.693  0.00  0.00    +0.000 A 
ENDBRANCH   2   7
BRANCH   4  14
ATOM     14  C   UNL     1       4.429   5.691  16.877  0.00  0.00    +0.000 A 
ATOM     15  C   UNL     1       4.650   4.303  16.821  0.00  0.00    +0.000 A 
ATOM     16  C   UNL     1       5.543   3.746  15.904  0.00  0.00    +0.000 A 
ATOM     17  C   UNL     1       6.225   4.571  15.014  0.00  0.00    +0.000 A 
ATOM     18  C   UNL     1       5.995   5.940  15.023  0.00  0.00    +0.000 A 
ATOM     19  C   UNL     1       5.100   6.496  15.937  0.00  0.00    +0.000 A 
ENDBRANCH   4  14
BRANCH   6  20
ATOM     20  C   UNL     1       2.194   4.869  21.086  0.00  0.00    +0.000 C 
ATOM     21  C   UNL     1       1.183   3.748  20.933  0.00  0.00    +0.000 C 
ATOM     22  C   UNL     1       2.645   3.429  20.949  0.00  0.00    +0.000 C 
ENDBRANCH   6  20
BRANCH   1  23
ATOM     23  C   UNL     1       0.808   7.533  20.941  0.00  0.00    +0.000 C 
BRANCH  23  24
ATOM     24  O   UNL     1       1.413   8.412  21.908  0.00  0.00    +0.000 OA
BRANCH  24  25
ATOM     25  P   UNL     1       0.221   9.547  22.439  0.00  0.00    +0.000 P 
ATOM     26  O   UNL     1       0.869   9.620  23.823  0.00  0.00    +0.000 OA
BRANCH  25  27
ATOM     27  O   UNL     1      -0.920   8.370  22.562  0.00  0.00    +0.000 OA
ATOM     28  H   UNL     1      -1.659   8.676  23.128  0.00  0.00    +0.000 HD
ENDBRANCH  25  27
BRANCH  25  29
ATOM     29  C   UNL     1      -1.039  10.749  23.003  0.00  0.00    +0.000 C 
BRANCH  29  30
ATOM     30  C   UNL     1      -1.192  11.942  22.060  0.00  0.00    +0.000 C 
BRANCH  30  31
ATOM     31  O   UNL     1      -0.025  12.767  22.163  0.00  0.00    +0.000 OA
ATOM     32  H   UNL     1      -0.274  13.581  22.652  0.00  0.00    +0.000 HD
ENDBRANCH  30  31
BRANCH  30  33
ATOM     33  C   UNL     1      -2.459  12.792  22.282  0.00  0.00    +0.000 C 
BRANCH  33  35
ATOM     34  O   UNL     1      -4.545  12.617  21.100  0.00  0.00    +0.000 OA
ATOM     35  C   UNL     1      -3.335  12.866  21.060  0.00  0.00    +0.000 C 
BRANCH  35  36
ATOM     36  O   UNL     1      -2.753  13.243  19.921  0.00  0.00    +0.000 OA
ATOM     37  H   UNL     1      -2.745  12.588  19.181  0.00  0.00    +0.000 HD
ENDBRANCH  35  36
ENDBRANCH  33  35
ENDBRANCH  30  33
ENDBRANCH  29  30
ENDBRANCH  25  29
ENDBRANCH  24  25
ENDBRANCH  23  24
ENDBRANCH   1  23
TORSDOF 13
ENDMDL
MODEL 4
REMARK VINA RESULT:      -7.1      0.788      1.330
REMARK  Name = 
REMARK  13 active torsions:
REMARK  status: ('A' for Active; 'I' for Inactive)
REMARK    1  A    between atoms: C_2  and  O_3
REMARK    2  A    between atoms: C_2  and  C_4
REMARK    3  A    between atoms: C_4  and  C_5
REMARK    4  A    between atoms: C_5  and  O_6
REMARK    5  A    between atoms: C_5  and  C_7
REMARK    6  A    between atoms: C_7  and  P_8
REMARK    7  A    between atoms: P_8  and  O_10
REMARK    8  A    between atoms: P_8  and  O_11
REMARK    9  A    between atoms: O_11  and  C_12
REMARK   10  A    between atoms: C_12  and  C_13
REMARK   11  A    between atoms: C_14  and  C_15
REMARK   12  A    between atoms: C_23  and  C_24
REMARK   13  A    between atoms: C_31  and  C_32
REMARK                            x       y       z     vdW  Elec       q    Type
REMARK                         _______ _______ _______ _____ _____    ______ ____
ROOT
ATOM      1  C   UNL     1       1.697   7.260  19.955  0.00  0.00    +0.000 A 
ATOM      2  C   UNL     1       2.016   8.140  18.878  0.00  0.00    +0.000 A 
ATOM      3  C   UNL     1       2.888   7.660  17.891  0.00  0.00    +0.000 A 
ATOM      4  C   UNL     1       3.405   6.379  17.966  0.00  0.00    +0.000 A 
ATOM      5  N   UNL     1       3.068   5.545  18.977  0.00  0.00    +0.000 NA
ATOM      6  C   UNL     1       2.285   5.977  20.004  0.00  0.00    +0.000 A 
ENDROOT
BRANCH   2   7
ATOM      7  C   UNL     1       1.469   9.520  18.721  0.00  0.00    +0.000 A 
ATOM      8  C   UNL     1       0.088   9.767  18.684  0.00  0.00    +0.000 A 
ATOM      9  C   UNL     1      -0.436  11.025  18.393  0.00  0.00    +0.000 A 
ATOM     10  C   UNL     1       0.423  12.101  18.269  0.00  0.00    +0.000 A 
ATOM     11  F   UNL     1      -0.079  13.316  18.035  0.00  0.00    +0.000 F 
ATOM     12  C   UNL     1       1.788  11.929  18.409  0.00  0.00    +0.000 A 
ATOM     13  C   UNL     1       2.313  10.646  18.604  0.00  0.00    +0.000 A 
ENDBRANCH   2   7
BRANCH   4  14
ATOM     14  C   UNL     1       4.312   5.818  16.948  0.00  0.00    +0.000 A 
ATOM     15  C   UNL     1       4.962   6.668  16.036  0.00  0.00    +0.000 A 
ATOM     16  C   UNL     1       5.781   6.161  15.026  0.00  0.00    +0.000 A 
ATOM     17  C   UNL     1       5.973   4.787  14.916  0.00  0.00    +0.000 A 
ATOM     18  C   UNL     1       5.373   3.929  15.827  0.00  0.00    +0.000 A 
ATOM     19  C   UNL     1       4.557   4.437  16.839  0.00  0.00    +0.000 A 
ENDBRANCH   4  14
BRANCH   6  20
ATOM     20  C   UNL     1       2.029   4.967  21.125  0.00  0.00    +0.000 C 
ATOM     21  C   UNL     1       1.154   3.750  20.884  0.00  0.00    +0.000 C 
ATOM     22  C   UNL     1       2.629   3.577  21.059  0.00  0.00    +0.000 C 
ENDBRANCH   6  20
BRANCH   1  23
ATOM     23  C   UNL     1       0.671   7.646  21.002  0.00  0.00    +0.000 C 
BRANCH  23  24
ATOM     24  O   UNL     1       1.268   8.532  21.967  0.00  0.00    +0.000 OA
BRANCH  24  25
ATOM     25  P   UNL     1       0.091   9.713  22.428  0.00  0.00    +0.000 P 
ATOM     26  O   UNL     1       0.978  10.842  21.902  0.00  0.00    +0.000 OA
BRANCH  25  27
ATOM     27  O   UNL     1       0.486   9.561  24.017  0.00  0.00    +0.000 OA
ATOM     28  H   UNL     1       0.481   8.617  24.276  0.00  0.00    +0.000 HD
ENDBRANCH  25  27
BRANCH  25  29
ATOM     29  C   UNL     1      -1.154  10.963  22.916  0.00  0.00    +0.000 C 
BRANCH  29  30
ATOM     30  C   UNL     1      -1.197  12.164  21.972  0.00  0.00    +0.000 C 
BRANCH  30  31
ATOM     31  O   UNL     1      -0.498  13.257  22.580  0.00  0.00    +0.000 OA
ATOM     32  H   UNL     1       0.150  12.883  23.216  0.00  0.00    +0.000 HD
ENDBRANCH  30  31
BRANCH  30  33
ATOM     33  C   UNL     1      -2.611  12.612  21.550  0.00  0.00    +0.000 C 
BRANCH  33  35
ATOM     34  O   UNL     1      -3.190  13.687  23.620  0.00  0.00    +0.000 OA
ATOM     35  C   UNL     1      -3.509  12.898  22.724  0.00  0.00    +0.000 C 
BRANCH  35  36
ATOM     36  O   UNL     1      -4.690  12.281  22.746  0.00  0.00    +0.000 OA
ATOM     37  H   UNL     1      -5.338  12.520  22.039  0.00  0.00    +0.000 HD
ENDBRANCH  35  36
ENDBRANCH  33  35
ENDBRANCH  30  33
ENDBRANCH  29  30
ENDBRANCH  25  29
ENDBRANCH  24  25
ENDBRANCH  23  24
ENDBRANCH   1  23
TORSDOF 13
ENDMDL
MODEL 5
REMARK VINA RESULT:      -6.9      1.176      1.952
REMARK  Name = 
REMARK  13 active torsions:
REMARK  status: ('A' for Active; 'I' for Inactive)
REMARK    1  A    between atoms: C_2  and  O_3
REMARK    2  A    between atoms: C_2  and  C_4
REMARK    3  A    between atoms: C_4  and  C_5
REMARK    4  A    between atoms: C_5  and  O_6
REMARK    5  A    between atoms: C_5  and  C_7
REMARK    6  A    between atoms: C_7  and  P_8
REMARK    7  A    between atoms: P_8  and  O_10
REMARK    8  A    between atoms: P_8  and  O_11
REMARK    9  A    between atoms: O_11  and  C_12
REMARK   10  A    between atoms: C_12  and  C_13
REMARK   11  A    between atoms: C_14  and  C_15
REMARK   12  A    between atoms: C_23  and  C_24
REMARK   13  A    between atoms: C_31  and  C_32
REMARK                            x       y       z     vdW  Elec       q    Type
REMARK                         _______ _______ _______ _____ _____    ______ ____
ROOT
ATOM      1  C   UNL     1       1.823   7.198  19.959  0.00  0.00    +0.000 A 
ATOM      2  C   UNL     1       2.108   8.066  18.864  0.00  0.00    +0.000 A 
ATOM      3  C   UNL     1       2.956   7.578  17.859  0.00  0.00    +0.000 A 
ATOM      4  C   UNL     1       3.481   6.301  17.934  0.00  0.00    +0.000 A 
ATOM      5  N   UNL     1       3.175   5.477  18.964  0.00  0.00    +0.000 NA
ATOM      6  C   UNL     1       2.418   5.918  20.007  0.00  0.00    +0.000 A 
ENDROOT
BRANCH   2   7
ATOM      7  C   UNL     1       1.551   9.442  18.705  0.00  0.00    +0.000 A 
ATOM      8  C   UNL     1       0.167   9.676  18.657  0.00  0.00    +0.000 A 
ATOM      9  C   UNL     1      -0.365  10.930  18.365  0.00  0.00    +0.000 A 
ATOM     10  C   UNL     1       0.485  12.015  18.251  0.00  0.00    +0.000 A 
ATOM     11  F   UNL     1      -0.025  13.226  18.015  0.00  0.00    +0.000 F 
ATOM     12  C   UNL     1       1.851  11.855  18.401  0.00  0.00    +0.000 A 
ATOM     13  C   UNL     1       2.385  10.575  18.599  0.00  0.00    +0.000 A 
ENDBRANCH   2   7
BRANCH   4  14
ATOM     14  C   UNL     1       4.363   5.733  16.899  0.00  0.00    +0.000 A 
ATOM     15  C   UNL     1       4.525   4.340  16.798  0.00  0.00    +0.000 A 
ATOM     16  C   UNL     1       5.396   3.776  15.864  0.00  0.00    +0.000 A 
ATOM     17  C   UNL     1       6.117   4.599  15.004  0.00  0.00    +0.000 A 
ATOM     18  C   UNL     1       5.945   5.976  15.058  0.00  0.00    +0.000 A 
ATOM     19  C   UNL     1       5.071   6.539  15.989  0.00  0.00    +0.000 A 
ENDBRANCH   4  14
BRANCH   6  20
ATOM     20  C   UNL     1       2.198   4.920  21.146  0.00  0.00    +0.000 C 
ATOM     21  C   UNL     1       1.230   3.762  20.982  0.00  0.00    +0.000 C 
ATOM     22  C   UNL     1       2.701   3.495  21.029  0.00  0.00    +0.000 C 
ENDBRANCH   6  20
BRANCH   1  23
ATOM     23  C   UNL     1       0.823   7.591  21.028  0.00  0.00    +0.000 C 
BRANCH  23  24
ATOM     24  O   UNL     1       1.383   8.621  21.864  0.00  0.00    +0.000 OA
BRANCH  24  25
ATOM     25  P   UNL     1       0.091   9.608  22.457  0.00  0.00    +0.000 P 
ATOM     26  O   UNL     1       0.715   9.631  23.853  0.00  0.00    +0.000 OA
BRANCH  25  27
ATOM     27  O   UNL     1      -0.946   8.332  22.472  0.00  0.00    +0.000 OA
ATOM     28  H   UNL     1      -1.217   8.131  23.392  0.00  0.00    +0.000 HD
ENDBRANCH  25  27
BRANCH  25  29
ATOM     29  C   UNL     1      -1.274  10.652  23.085  0.00  0.00    +0.000 C 
BRANCH  29  30
ATOM     30  C   UNL     1      -1.005  12.148  22.925  0.00  0.00    +0.000 C 
BRANCH  30  31
ATOM     31  O   UNL     1      -2.258  12.840  22.856  0.00  0.00    +0.000 OA
ATOM     32  H   UNL     1      -2.783  12.439  22.130  0.00  0.00    +0.000 HD
ENDBRANCH  30  31
BRANCH  30  33
ATOM     33  C   UNL     1      -0.126  12.527  21.715  0.00  0.00    +0.000 C 
BRANCH  33  35
ATOM     34  O   UNL     1       0.179  14.668  22.765  0.00  0.00    +0.000 OA
ATOM     35  C   UNL     1       0.428  13.924  21.810  0.00  0.00    +0.000 C 
BRANCH  35  36
ATOM     36  O   UNL     1       1.231  14.324  20.825  0.00  0.00    +0.000 OA
ATOM     37  H   UNL     1       2.037  13.779  20.650  0.00  0.00    +0.000 HD
ENDBRANCH  35  36
ENDBRANCH  33  35
ENDBRANCH  30  33
ENDBRANCH  29  30
ENDBRANCH  25  29
ENDBRANCH  24  25
ENDBRANCH  23  24
ENDBRANCH   1  23
TORSDOF 13
ENDMDL
MODEL 6
REMARK VINA RESULT:      -6.9      1.129      1.417
REMARK  Name = 
REMARK  13 active torsions:
REMARK  status: ('A' for Active; 'I' for Inactive)
REMARK    1  A    between atoms: C_2  and  O_3
REMARK    2  A    between atoms: C_2  and  C_4
REMARK    3  A    between atoms: C_4  and  C_5
REMARK    4  A    between atoms: C_5  and  O_6
REMARK    5  A    between atoms: C_5  and  C_7
REMARK    6  A    between atoms: C_7  and  P_8
REMARK    7  A    between atoms: P_8  and  O_10
REMARK    8  A    between atoms: P_8  and  O_11
REMARK    9  A    between atoms: O_11  and  C_12
REMARK   10  A    between atoms: C_12  and  C_13
REMARK   11  A    between atoms: C_14  and  C_15
REMARK   12  A    between atoms: C_23  and  C_24
REMARK   13  A    between atoms: C_31  and  C_32
REMARK                            x       y       z     vdW  Elec       q    Type
REMARK                         _______ _______ _______ _____ _____    ______ ____
ROOT
ATOM      1  C   UNL     1       1.781   7.231  19.797  0.00  0.00    +0.000 A 
ATOM      2  C   UNL     1       2.106   8.070  18.690  0.00  0.00    +0.000 A 
ATOM      3  C   UNL     1       3.000   7.560  17.737  0.00  0.00    +0.000 A 
ATOM      4  C   UNL     1       3.530   6.291  17.872  0.00  0.00    +0.000 A 
ATOM      5  N   UNL     1       3.186   5.494  18.911  0.00  0.00    +0.000 NA
ATOM      6  C   UNL     1       2.383   5.957  19.907  0.00  0.00    +0.000 A 
ENDROOT
BRANCH   2   7
ATOM      7  C   UNL     1       1.546   9.435  18.468  0.00  0.00    +0.000 A 
ATOM      8  C   UNL     1       2.357  10.580  18.504  0.00  0.00    +0.000 A 
ATOM      9  C   UNL     1       1.830  11.869  18.444  0.00  0.00    +0.000 A 
ATOM     10  C   UNL     1       0.478  12.034  18.204  0.00  0.00    +0.000 A 
ATOM     11  F   UNL     1      -0.023  13.267  18.101  0.00  0.00    +0.000 F 
ATOM     12  C   UNL     1      -0.347  10.935  18.049  0.00  0.00    +0.000 A 
ATOM     13  C   UNL     1       0.174   9.644  18.208  0.00  0.00    +0.000 A 
ENDBRANCH   2   7
BRANCH   4  14
ATOM     14  C   UNL     1       4.459   5.700  16.892  0.00  0.00    +0.000 A 
ATOM     15  C   UNL     1       5.117   6.521  15.959  0.00  0.00    +0.000 A 
ATOM     16  C   UNL     1       5.958   5.982  14.983  0.00  0.00    +0.000 A 
ATOM     17  C   UNL     1       6.165   4.607  14.930  0.00  0.00    +0.000 A 
ATOM     18  C   UNL     1       5.557   3.779  15.863  0.00  0.00    +0.000 A 
ATOM     19  C   UNL     1       4.720   4.317  16.841  0.00  0.00    +0.000 A 
ENDBRANCH   4  14
BRANCH   6  20
ATOM     20  C   UNL     1       2.121   4.991  21.065  0.00  0.00    +0.000 C 
ATOM     21  C   UNL     1       1.160   3.827  20.897  0.00  0.00    +0.000 C 
ATOM     22  C   UNL     1       2.629   3.565  21.005  0.00  0.00    +0.000 C 
ENDBRANCH   6  20
BRANCH   1  23
ATOM     23  C   UNL     1       0.734   7.646  20.811  0.00  0.00    +0.000 C 
BRANCH  23  24
ATOM     24  O   UNL     1       1.356   8.378  21.883  0.00  0.00    +0.000 OA
BRANCH  24  25
ATOM     25  P   UNL     1       0.665   9.963  21.938  0.00  0.00    +0.000 P 
ATOM     26  O   UNL     1       0.505   9.869  23.456  0.00  0.00    +0.000 OA
BRANCH  25  27
ATOM     27  O   UNL     1      -0.760   9.420  21.323  0.00  0.00    +0.000 OA
ATOM     28  H   UNL     1      -1.510   9.854  21.780  0.00  0.00    +0.000 HD
ENDBRANCH  25  27
BRANCH  25  29
ATOM     29  C   UNL     1      -0.065  11.641  21.998  0.00  0.00    +0.000 C 
BRANCH  29  30
ATOM     30  C   UNL     1      -1.591  11.626  22.090  0.00  0.00    +0.000 C 
BRANCH  30  31
ATOM     31  O   UNL     1      -2.134  12.139  20.868  0.00  0.00    +0.000 OA
ATOM     32  H   UNL     1      -2.482  11.380  20.351  0.00  0.00    +0.000 HD
ENDBRANCH  30  31
BRANCH  30  33
ATOM     33  C   UNL     1      -2.180  12.392  23.292  0.00  0.00    +0.000 C 
BRANCH  33  35
ATOM     34  O   UNL     1      -4.395  12.419  22.360  0.00  0.00    +0.000 OA
ATOM     35  C   UNL     1      -3.681  12.304  23.362  0.00  0.00    +0.000 C 
BRANCH  35  36
ATOM     36  O   UNL     1      -4.217  12.067  24.560  0.00  0.00    +0.000 OA
ATOM     37  H   UNL     1      -4.165  12.793  25.228  0.00  0.00    +0.000 HD
ENDBRANCH  35  36
ENDBRANCH  33  35
ENDBRANCH  30  33
ENDBRANCH  29  30
ENDBRANCH  25  29
ENDBRANCH  24  25
ENDBRANCH  23  24
ENDBRANCH   1  23
TORSDOF 13
ENDMDL
MODEL 7
REMARK VINA RESULT:      -6.7      0.796      1.560
REMARK  Name = 
REMARK  13 active torsions:
REMARK  status: ('A' for Active; 'I' for Inactive)
REMARK    1  A    between atoms: C_2  and  O_3
REMARK    2  A    between atoms: C_2  and  C_4
REMARK    3  A    between atoms: C_4  and  C_5
REMARK    4  A    between atoms: C_5  and  O_6
REMARK    5  A    between atoms: C_5  and  C_7
REMARK    6  A    between atoms: C_7  and  P_8
REMARK    7  A    between atoms: P_8  and  O_10
REMARK    8  A    between atoms: P_8  and  O_11
REMARK    9  A    between atoms: O_11  and  C_12
REMARK   10  A    between atoms: C_12  and  C_13
REMARK   11  A    between atoms: C_14  and  C_15
REMARK   12  A    between atoms: C_23  and  C_24
REMARK   13  A    between atoms: C_31  and  C_32
REMARK                            x       y       z     vdW  Elec       q    Type
REMARK                         _______ _______ _______ _____ _____    ______ ____
ROOT
ATOM      1  C   UNL     1       1.794   7.062  19.986  0.00  0.00    +0.000 A 
ATOM      2  C   UNL     1       2.062   7.956  18.907  0.00  0.00    +0.000 A 
ATOM      3  C   UNL     1       2.920   7.504  17.894  0.00  0.00    +0.000 A 
ATOM      4  C   UNL     1       3.472   6.237  17.947  0.00  0.00    +0.000 A 
ATOM      5  N   UNL     1       3.182   5.388  18.962  0.00  0.00    +0.000 NA
ATOM      6  C   UNL     1       2.416   5.794  20.011  0.00  0.00    +0.000 A 
ENDROOT
BRANCH   2   7
ATOM      7  C   UNL     1       1.476   9.322  18.772  0.00  0.00    +0.000 A 
ATOM      8  C   UNL     1       0.091   9.525  18.676  0.00  0.00    +0.000 A 
ATOM      9  C   UNL     1      -0.462  10.775  18.406  0.00  0.00    +0.000 A 
ATOM     10  C   UNL     1       0.365  11.883  18.362  0.00  0.00    +0.000 A 
ATOM     11  F   UNL     1      -0.167  13.089  18.148  0.00  0.00    +0.000 F 
ATOM     12  C   UNL     1       1.726  11.751  18.562  0.00  0.00    +0.000 A 
ATOM     13  C   UNL     1       2.286  10.478  18.737  0.00  0.00    +0.000 A 
ENDBRANCH   2   7
BRANCH   4  14
ATOM     14  C   UNL     1       4.366   5.705  16.903  0.00  0.00    +0.000 A 
ATOM     15  C   UNL     1       4.558   4.318  16.778  0.00  0.00    +0.000 A 
ATOM     16  C   UNL     1       5.441   3.789  15.835  0.00  0.00    +0.000 A 
ATOM     17  C   UNL     1       6.144   4.642  14.990  0.00  0.00    +0.000 A 
ATOM     18  C   UNL     1       5.943   6.014  15.068  0.00  0.00    +0.000 A 
ATOM     19  C   UNL     1       5.057   6.542  16.007  0.00  0.00    +0.000 A 
ENDBRANCH   4  14
BRANCH   6  20
ATOM     20  C   UNL     1       2.215   4.771  21.132  0.00  0.00    +0.000 C 
ATOM     21  C   UNL     1       1.220   3.636  20.974  0.00  0.00    +0.000 C 
ATOM     22  C   UNL     1       2.686   3.341  20.962  0.00  0.00    +0.000 C 
ENDBRANCH   6  20
BRANCH   1  23
ATOM     23  C   UNL     1       0.786   7.416  21.061  0.00  0.00    +0.000 C 
BRANCH  23  24
ATOM     24  O   UNL     1       1.381   8.319  22.010  0.00  0.00    +0.000 OA
BRANCH  24  25
ATOM     25  P   UNL     1       0.219   9.537  22.410  0.00  0.00    +0.000 P 
ATOM     26  O   UNL     1       0.785   9.649  23.827  0.00  0.00    +0.000 OA
BRANCH  25  27
ATOM     27  O   UNL     1      -0.987   8.425  22.517  0.00  0.00    +0.000 OA
ATOM     28  H   UNL     1      -0.875   7.741  21.825  0.00  0.00    +0.000 HD
ENDBRANCH  25  27
BRANCH  25  29
ATOM     29  C   UNL     1      -1.009  10.826  22.835  0.00  0.00    +0.000 C 
BRANCH  29  30
ATOM     30  C   UNL     1      -0.980  12.018  21.878  0.00  0.00    +0.000 C 
BRANCH  30  31
ATOM     31  O   UNL     1      -0.177  13.056  22.455  0.00  0.00    +0.000 OA
ATOM     32  H   UNL     1      -0.581  13.305  23.314  0.00  0.00    +0.000 HD
ENDBRANCH  30  31
BRANCH  30  33
ATOM     33  C   UNL     1      -2.364  12.577  21.489  0.00  0.00    +0.000 C 
BRANCH  33  35
ATOM     34  O   UNL     1      -2.367  14.950  21.113  0.00  0.00    +0.000 OA
ATOM     35  C   UNL     1      -2.551  14.013  21.897  0.00  0.00    +0.000 C 
BRANCH  35  36
ATOM     36  O   UNL     1      -2.954  14.239  23.148  0.00  0.00    +0.000 OA
ATOM     37  H   UNL     1      -2.561  15.016  23.614  0.00  0.00    +0.000 HD
ENDBRANCH  35  36
ENDBRANCH  33  35
ENDBRANCH  30  33
ENDBRANCH  29  30
ENDBRANCH  25  29
ENDBRANCH  24  25
ENDBRANCH  23  24
ENDBRANCH   1  23
TORSDOF 13
ENDMDL
MODEL 8
REMARK VINA RESULT:      -6.4      3.523      5.965
REMARK  Name = 
REMARK  13 active torsions:
REMARK  status: ('A' for Active; 'I' for Inactive)
REMARK    1  A    between atoms: C_2  and  O_3
REMARK    2  A    between atoms: C_2  and  C_4
REMARK    3  A    between atoms: C_4  and  C_5
REMARK    4  A    between atoms: C_5  and  O_6
REMARK    5  A    between atoms: C_5  and  C_7
REMARK    6  A    between atoms: C_7  and  P_8
REMARK    7  A    between atoms: P_8  and  O_10
REMARK    8  A    between atoms: P_8  and  O_11
REMARK    9  A    between atoms: O_11  and  C_12
REMARK   10  A    between atoms: C_12  and  C_13
REMARK   11  A    between atoms: C_14  and  C_15
REMARK   12  A    between atoms: C_23  and  C_24
REMARK   13  A    between atoms: C_31  and  C_32
REMARK                            x       y       z     vdW  Elec       q    Type
REMARK                         _______ _______ _______ _____ _____    ______ ____
ROOT
ATOM      1  C   UNL     1       5.001   5.598  17.904  0.00  0.00    +0.000 A 
ATOM      2  C   UNL     1       4.374   4.515  17.219  0.00  0.00    +0.000 A 
ATOM      3  C   UNL     1       4.849   4.201  15.937  0.00  0.00    +0.000 A 
ATOM      4  C   UNL     1       5.891   4.916  15.375  0.00  0.00    +0.000 A 
ATOM      5  N   UNL     1       6.498   5.920  16.051  0.00  0.00    +0.000 NA
ATOM      6  C   UNL     1       6.034   6.321  17.267  0.00  0.00    +0.000 A 
ENDROOT
BRANCH   2   7
ATOM      7  C   UNL     1       3.267   3.684  17.779  0.00  0.00    +0.000 A 
ATOM      8  C   UNL     1       1.919   4.006  17.560  0.00  0.00    +0.000 A 
ATOM      9  C   UNL     1       0.879   3.329  18.193  0.00  0.00    +0.000 A 
ATOM     10  C   UNL     1       1.168   2.215  18.960  0.00  0.00    +0.000 A 
ATOM     11  F   UNL     1       0.170   1.536  19.532  0.00  0.00    +0.000 F 
ATOM     12  C   UNL     1       2.474   1.790  19.116  0.00  0.00    +0.000 A 
ATOM     13  C   UNL     1       3.521   2.533  18.555  0.00  0.00    +0.000 A 
ENDBRANCH   2   7
BRANCH   4  14
ATOM     14  C   UNL     1       6.441   4.618  14.040  0.00  0.00    +0.000 A 
ATOM     15  C   UNL     1       7.499   5.388  13.526  0.00  0.00    +0.000 A 
ATOM     16  C   UNL     1       8.002   5.165  12.242  0.00  0.00    +0.000 A 
ATOM     17  C   UNL     1       7.460   4.157  11.452  0.00  0.00    +0.000 A 
ATOM     18  C   UNL     1       6.440   3.358  11.952  0.00  0.00    +0.000 A 
ATOM     19  C   UNL     1       5.940   3.578  13.236  0.00  0.00    +0.000 A 
ENDBRANCH   4  14
BRANCH   6  20
ATOM     20  C   UNL     1       6.755   7.511  17.903  0.00  0.00    +0.000 C 
ATOM     21  C   UNL     1       8.114   7.332  18.556  0.00  0.00    +0.000 C 
ATOM     22  C   UNL     1       8.007   8.082  17.266  0.00  0.00    +0.000 C 
ENDBRANCH   6  20
BRANCH   1  23
ATOM     23  C   UNL     1       4.637   5.931  19.337  0.00  0.00    +0.000 C 
BRANCH  23  24
ATOM     24  O   UNL     1       3.213   5.824  19.516  0.00  0.00    +0.000 OA
BRANCH  24  25
ATOM     25  P   UNL     1       2.546   7.420  19.568  0.00  0.00    +0.000 P 
ATOM     26  O   UNL     1       1.488   6.973  20.578  0.00  0.00    +0.000 OA
BRANCH  25  27
ATOM     27  O   UNL     1       1.840   7.228  18.095  0.00  0.00    +0.000 OA
ATOM     28  H   UNL     1       1.654   8.102  17.695  0.00  0.00    +0.000 HD
ENDBRANCH  25  27
BRANCH  25  29
ATOM     29  C   UNL     1       1.839   9.107  19.623  0.00  0.00    +0.000 C 
BRANCH  29  30
ATOM     30  C   UNL     1       0.863   9.385  18.480  0.00  0.00    +0.000 C 
BRANCH  30  31
ATOM     31  O   UNL     1       1.567  10.039  17.417  0.00  0.00    +0.000 OA
ATOM     32  H   UNL     1       2.392   9.535  17.249  0.00  0.00    +0.000 HD
ENDBRANCH  30  31
BRANCH  30  33
ATOM     33  C   UNL     1      -0.383  10.206  18.871  0.00  0.00    +0.000 C 
BRANCH  33  35
ATOM     34  O   UNL     1      -1.722   9.723  16.934  0.00  0.00    +0.000 OA
ATOM     35  C   UNL     1      -1.235  10.575  17.686  0.00  0.00    +0.000 C 
BRANCH  35  36
ATOM     36  O   UNL     1      -1.471  11.872  17.492  0.00  0.00    +0.000 OA
ATOM     37  H   UNL     1      -1.301  12.230  16.586  0.00  0.00    +0.000 HD
ENDBRANCH  35  36
ENDBRANCH  33  35
ENDBRANCH  30  33
ENDBRANCH  29  30
ENDBRANCH  25  29
ENDBRANCH  24  25
ENDBRANCH  23  24
ENDBRANCH   1  23
TORSDOF 13
ENDMDL
MODEL 9
REMARK VINA RESULT:      -6.4      1.459      1.623
REMARK  Name = 
REMARK  13 active torsions:
REMARK  status: ('A' for Active; 'I' for Inactive)
REMARK    1  A    between atoms: C_2  and  O_3
REMARK    2  A    between atoms: C_2  and  C_4
REMARK    3  A    between atoms: C_4  and  C_5
REMARK    4  A    between atoms: C_5  and  O_6
REMARK    5  A    between atoms: C_5  and  C_7
REMARK    6  A    between atoms: C_7  and  P_8
REMARK    7  A    between atoms: P_8  and  O_10
REMARK    8  A    between atoms: P_8  and  O_11
REMARK    9  A    between atoms: O_11  and  C_12
REMARK   10  A    between atoms: C_12  and  C_13
REMARK   11  A    between atoms: C_14  and  C_15
REMARK   12  A    between atoms: C_23  and  C_24
REMARK   13  A    between atoms: C_31  and  C_32
REMARK                            x       y       z     vdW  Elec       q    Type
REMARK                         _______ _______ _______ _____ _____    ______ ____
ROOT
ATOM      1  C   UNL     1       1.921   6.934  19.789  0.00  0.00    +0.000 A 
ATOM      2  C   UNL     1       2.288   7.830  18.742  0.00  0.00    +0.000 A 
ATOM      3  C   UNL     1       3.325   7.430  17.887  0.00  0.00    +0.000 A 
ATOM      4  C   UNL     1       3.951   6.209  18.057  0.00  0.00    +0.000 A 
ATOM      5  N   UNL     1       3.569   5.356  19.036  0.00  0.00    +0.000 NA
ATOM      6  C   UNL     1       2.621   5.717  19.944  0.00  0.00    +0.000 A 
ENDROOT
BRANCH   2   7
ATOM      7  C   UNL     1       1.634   9.146  18.484  0.00  0.00    +0.000 A 
ATOM      8  C   UNL     1       2.322  10.359  18.652  0.00  0.00    +0.000 A 
ATOM      9  C   UNL     1       1.686  11.595  18.556  0.00  0.00    +0.000 A 
ATOM     10  C   UNL     1       0.365  11.645  18.149  0.00  0.00    +0.000 A 
ATOM     11  F   UNL     1      -0.234  12.830  18.012  0.00  0.00    +0.000 F 
ATOM     12  C   UNL     1      -0.325  10.482  17.862  0.00  0.00    +0.000 A 
ATOM     13  C   UNL     1       0.292   9.239  18.055  0.00  0.00    +0.000 A 
ENDBRANCH   2   7
BRANCH   4  14
ATOM     14  C   UNL     1       5.033   5.732  17.177  0.00  0.00    +0.000 A 
ATOM     15  C   UNL     1       4.953   5.931  15.788  0.00  0.00    +0.000 A 
ATOM     16  C   UNL     1       5.935   5.439  14.926  0.00  0.00    +0.000 A 
ATOM     17  C   UNL     1       7.025   4.746  15.442  0.00  0.00    +0.000 A 
ATOM     18  C   UNL     1       7.147   4.570  16.813  0.00  0.00    +0.000 A 
ATOM     19  C   UNL     1       6.168   5.064  17.675  0.00  0.00    +0.000 A 
ENDBRANCH   4  14
BRANCH   6  20
ATOM     20  C   UNL     1       2.322   4.698  21.046  0.00  0.00    +0.000 C 
ATOM     21  C   UNL     1       1.270   3.624  20.840  0.00  0.00    +0.000 C 
ATOM     22  C   UNL     1       2.716   3.245  20.877  0.00  0.00    +0.000 C 
ENDBRANCH   6  20
BRANCH   1  23
ATOM     23  C   UNL     1       0.734   7.226  20.686  0.00  0.00    +0.000 C 
BRANCH  23  24
ATOM     24  O   UNL     1       1.114   8.166  21.708  0.00  0.00    +0.000 OA
BRANCH  24  25
ATOM     25  P   UNL     1       0.065   9.539  21.606  0.00  0.00    +0.000 P 
ATOM     26  O   UNL     1       1.200  10.470  22.037  0.00  0.00    +0.000 OA
BRANCH  25  27
ATOM     27  O   UNL     1      -0.700   9.123  23.001  0.00  0.00    +0.000 OA
ATOM     28  H   UNL     1      -1.256   9.866  23.314  0.00  0.00    +0.000 HD
ENDBRANCH  25  27
BRANCH  25  29
ATOM     29  C   UNL     1      -1.042  10.992  21.499  0.00  0.00    +0.000 C 
BRANCH  29  30
ATOM     30  C   UNL     1      -0.577  12.164  22.363  0.00  0.00    +0.000 C 
BRANCH  30  31
ATOM     31  O   UNL     1      -1.226  12.086  23.639  0.00  0.00    +0.000 OA
ATOM     32  H   UNL     1      -2.176  12.296  23.506  0.00  0.00    +0.000 HD
ENDBRANCH  30  31
BRANCH  30  33
ATOM     33  C   UNL     1      -0.797  13.559  21.744  0.00  0.00    +0.000 C 
BRANCH  33  35
ATOM     34  O   UNL     1      -1.373  15.123  23.476  0.00  0.00    +0.000 OA
ATOM     35  C   UNL     1      -0.511  14.679  22.709  0.00  0.00    +0.000 C 
BRANCH  35  36
ATOM     36  O   UNL     1       0.731  15.161  22.724  0.00  0.00    +0.000 OA
ATOM     37  H   UNL     1       1.331  14.883  21.990  0.00  0.00    +0.000 HD
ENDBRANCH  35  36
ENDBRANCH  33  35
ENDBRANCH  30  33
ENDBRANCH  29  30
ENDBRANCH  25  29
ENDBRANCH  24  25
ENDBRANCH  23  24
ENDBRANCH   1  23
TORSDOF 13
ENDMDL
