MODEL 1
REMARK VINA RESULT:      -6.1      0.000      0.000
REMARK  Name = 
REMARK  19 active torsions:
REMARK  status: ('A' for Active; 'I' for Inactive)
REMARK    1  A    between atoms: C_1  and  C_2
REMARK    2  A    between atoms: C_2  and  C_3
REMARK    3  A    between atoms: C_3  and  C_4
REMARK    4  A    between atoms: C_4  and  C_5
REMARK    5  A    between atoms: C_5  and  C_6
REMARK    6  A    between atoms: C_6  and  C_7
REMARK    7  A    between atoms: C_7  and  C_8
REMARK    8  A    between atoms: C_8  and  N_9
REMARK    9  A    between atoms: N_9  and  C_10
REMARK   10  A    between atoms: N_9  and  C_12
REMARK   11  A    between atoms: C_10  and  C_11
REMARK   12  A    between atoms: C_12  and  C_13
REMARK   13  A    between atoms: C_13  and  C_14
REMARK   14  A    between atoms: C_14  and  C_15
REMARK   15  A    between atoms: C_15  and  O_16
REMARK   16  A    between atoms: C_15  and  C_17
REMARK   17  A    between atoms: C_20  and  N_21
REMARK   18  A    between atoms: N_21  and  S_22
REMARK   19  A    between atoms: S_22  and  C_23
REMARK                            x       y       z     vdW  Elec       q    Type
REMARK                         _______ _______ _______ _____ _____    ______ ____
ROOT
ATOM      1  C   UNL     1       1.947   9.837  18.530  0.00  0.00    +0.000 C 
ENDROOT
BRANCH   1   2
ATOM      2  C   UNL     1       1.077  10.298  19.687  0.00  0.00    +0.000 A 
ATOM      3  C   UNL     1       0.312   9.411  20.454  0.00  0.00    +0.000 A 
ATOM      4  C   UNL     1      -0.418   9.854  21.562  0.00  0.00    +0.000 A 
ATOM      5  C   UNL     1      -0.403  11.202  21.908  0.00  0.00    +0.000 A 
ATOM      6  C   UNL     1       0.333  12.111  21.157  0.00  0.00    +0.000 A 
ATOM      7  C   UNL     1       1.070  11.660  20.046  0.00  0.00    +0.000 A 
BRANCH   5   8
ATOM      8  N   UNL     1      -1.112  11.605  23.072  0.00  0.00    +0.000 N 
ATOM      9  H   UNL     1      -1.205  10.901  23.808  0.00  0.00    +0.000 HD
BRANCH   8  10
ATOM     10  S   UNL     1      -2.569  12.437  22.859  0.00  0.00    +0.000 S 
ATOM     11  C   UNL     1      -2.141  14.053  23.460  0.00  0.00    +0.000 C 
ATOM     12  O   UNL     1      -2.898  12.521  21.451  0.00  0.00    +0.000 OA
ATOM     13  O   UNL     1      -3.490  11.846  23.807  0.00  0.00    +0.000 OA
ENDBRANCH   8  10
ENDBRANCH   5   8
ENDBRANCH   1   2
BRANCH   1  14
ATOM     14  O   UNL     1       1.904  10.832  17.506  0.00  0.00    +0.000 OA
ATOM     15  H   UNL     1       1.170  11.432  17.728  0.00  0.00    +0.000 HD
ENDBRANCH   1  14
BRANCH   1  16
ATOM     16  C   UNL     1       1.557   8.482  17.925  0.00  0.00    +0.000 C 
BRANCH  16  17
ATOM     17  C   UNL     1       2.499   7.350  18.340  0.00  0.00    +0.000 C 
BRANCH  17  18
ATOM     18  C   UNL     1       3.766   7.311  17.467  0.00  0.00    +0.000 C 
BRANCH  18  19
ATOM     19  N   UNL     1       4.776   6.337  17.918  0.00  0.00    +0.000 NA
BRANCH  19  20
ATOM     20  C   UNL     1       5.838   6.155  16.913  0.00  0.00    +0.000 C 
ATOM     21  C   UNL     1       7.261   6.017  17.450  0.00  0.00    +0.000 C 
ENDBRANCH  19  20
BRANCH  19  22
ATOM     22  C   UNL     1       4.156   5.081  18.376  0.00  0.00    +0.000 C 
BRANCH  22  23
ATOM     23  C   UNL     1       3.898   4.081  17.251  0.00  0.00    +0.000 C 
BRANCH  23  24
ATOM     24  C   UNL     1       3.797   2.654  17.783  0.00  0.00    +0.000 C 
BRANCH  24  25
ATOM     25  C   UNL     1       2.334   2.232  17.789  0.00  0.00    +0.000 C 
BRANCH  25  26
ATOM     26  C   UNL     1       1.812   1.988  19.199  0.00  0.00    +0.000 C 
BRANCH  26  27
ATOM     27  C   UNL     1       0.735   3.014  19.537  0.00  0.00    +0.000 C 
BRANCH  27  29
ATOM     28  C   UNL     1       2.176   3.322  21.569  0.00  0.00    +0.000 C 
ATOM     29  C   UNL     1       1.219   3.994  20.601  0.00  0.00    +0.000 C 
ENDBRANCH  27  29
ENDBRANCH  26  27
ENDBRANCH  25  26
ENDBRANCH  24  25
ENDBRANCH  23  24
ENDBRANCH  22  23
ENDBRANCH  19  22
ENDBRANCH  18  19
ENDBRANCH  17  18
ENDBRANCH  16  17
ENDBRANCH   1  16
TORSDOF 16
ENDMDL
MODEL 2
REMARK VINA RESULT:      -6.0      3.629      5.460
REMARK  Name = 
REMARK  19 active torsions:
REMARK  status: ('A' for Active; 'I' for Inactive)
REMARK    1  A    between atoms: C_1  and  C_2
REMARK    2  A    between atoms: C_2  and  C_3
REMARK    3  A    between atoms: C_3  and  C_4
REMARK    4  A    between atoms: C_4  and  C_5
REMARK    5  A    between atoms: C_5  and  C_6
REMARK    6  A    between atoms: C_6  and  C_7
REMARK    7  A    between atoms: C_7  and  C_8
REMARK    8  A    between atoms: C_8  and  N_9
REMARK    9  A    between atoms: N_9  and  C_10
REMARK   10  A    between atoms: N_9  and  C_12
REMARK   11  A    between atoms: C_10  and  C_11
REMARK   12  A    between atoms: C_12  and  C_13
REMARK   13  A    between atoms: C_13  and  C_14
REMARK   14  A    between atoms: C_14  and  C_15
REMARK   15  A    between atoms: C_15  and  O_16
REMARK   16  A    between atoms: C_15  and  C_17
REMARK   17  A    between atoms: C_20  and  N_21
REMARK   18  A    between atoms: N_21  and  S_22
REMARK   19  A    between atoms: S_22  and  C_23
REMARK                            x       y       z     vdW  Elec       q    Type
REMARK                         _______ _______ _______ _____ _____    ______ ____
ROOT
ATOM      1  C   UNL     1       3.190   5.606  18.790  0.00  0.00    +0.000 C 
ENDROOT
BRANCH   1   2
ATOM      2  C   UNL     1       2.518   6.958  18.960  0.00  0.00    +0.000 A 
ATOM      3  C   UNL     1       2.454   7.902  17.928  0.00  0.00    +0.000 A 
ATOM      4  C   UNL     1       1.760   9.106  18.089  0.00  0.00    +0.000 A 
ATOM      5  C   UNL     1       1.132   9.387  19.298  0.00  0.00    +0.000 A 
ATOM      6  C   UNL     1       1.191   8.478  20.348  0.00  0.00    +0.000 A 
ATOM      7  C   UNL     1       1.886   7.265  20.180  0.00  0.00    +0.000 A 
BRANCH   5   8
ATOM      8  N   UNL     1       0.391  10.595  19.406  0.00  0.00    +0.000 N 
ATOM      9  H   UNL     1       0.376  11.189  18.573  0.00  0.00    +0.000 HD
BRANCH   8  10
ATOM     10  S   UNL     1       0.608  11.531  20.797  0.00  0.00    +0.000 S 
ATOM     11  C   UNL     1      -1.036  11.544  21.471  0.00  0.00    +0.000 C 
ATOM     12  O   UNL     1       1.498  10.860  21.721  0.00  0.00    +0.000 OA
ATOM     13  O   UNL     1       0.896  12.868  20.320  0.00  0.00    +0.000 OA
ENDBRANCH   8  10
ENDBRANCH   5   8
ENDBRANCH   1   2
BRANCH   1  14
ATOM     14  O   UNL     1       2.427   4.627  19.497  0.00  0.00    +0.000 OA
ATOM     15  H   UNL     1       2.921   3.790  19.436  0.00  0.00    +0.000 HD
ENDBRANCH   1  14
BRANCH   1  16
ATOM     16  C   UNL     1       4.648   5.542  19.267  0.00  0.00    +0.000 C 
BRANCH  16  17
ATOM     17  C   UNL     1       5.451   4.434  18.584  0.00  0.00    +0.000 C 
BRANCH  17  18
ATOM     18  C   UNL     1       6.852   4.917  18.165  0.00  0.00    +0.000 C 
BRANCH  18  19
ATOM     19  N   UNL     1       6.888   5.582  16.851  0.00  0.00    +0.000 NA
BRANCH  19  20
ATOM     20  C   UNL     1       6.923   7.048  16.988  0.00  0.00    +0.000 C 
ATOM     21  C   UNL     1       7.915   7.610  18.004  0.00  0.00    +0.000 C 
ENDBRANCH  19  20
BRANCH  19  22
ATOM     22  C   UNL     1       5.828   5.084  15.958  0.00  0.00    +0.000 C 
BRANCH  22  23
ATOM     23  C   UNL     1       6.216   5.100  14.480  0.00  0.00    +0.000 C 
BRANCH  23  24
ATOM     24  C   UNL     1       6.280   3.689  13.903  0.00  0.00    +0.000 C 
BRANCH  24  25
ATOM     25  C   UNL     1       6.420   3.780  12.389  0.00  0.00    +0.000 C 
BRANCH  25  26
ATOM     26  C   UNL     1       5.464   2.842  11.666  0.00  0.00    +0.000 C 
BRANCH  26  27
ATOM     27  C   UNL     1       4.040   3.384  11.755  0.00  0.00    +0.000 C 
BRANCH  27  29
ATOM     28  C   UNL     1       3.160   4.195   9.548  0.00  0.00    +0.000 C 
ATOM     29  C   UNL     1       3.233   3.024  10.513  0.00  0.00    +0.000 C 
ENDBRANCH  27  29
ENDBRANCH  26  27
ENDBRANCH  25  26
ENDBRANCH  24  25
ENDBRANCH  23  24
ENDBRANCH  22  23
ENDBRANCH  19  22
ENDBRANCH  18  19
ENDBRANCH  17  18
ENDBRANCH  16  17
ENDBRANCH   1  16
TORSDOF 16
ENDMDL
MODEL 3
REMARK VINA RESULT:      -6.0      2.295      3.100
REMARK  Name = 
REMARK  19 active torsions:
REMARK  status: ('A' for Active; 'I' for Inactive)
REMARK    1  A    between atoms: C_1  and  C_2
REMARK    2  A    between atoms: C_2  and  C_3
REMARK    3  A    between atoms: C_3  and  C_4
REMARK    4  A    between atoms: C_4  and  C_5
REMARK    5  A    between atoms: C_5  and  C_6
REMARK    6  A    between atoms: C_6  and  C_7
REMARK    7  A    between atoms: C_7  and  C_8
REMARK    8  A    between atoms: C_8  and  N_9
REMARK    9  A    between atoms: N_9  and  C_10
REMARK   10  A    between atoms: N_9  and  C_12
REMARK   11  A    between atoms: C_10  and  C_11
REMARK   12  A    between atoms: C_12  and  C_13
REMARK   13  A    between atoms: C_13  and  C_14
REMARK   14  A    between atoms: C_14  and  C_15
REMARK   15  A    between atoms: C_15  and  O_16
REMARK   16  A    between atoms: C_15  and  C_17
REMARK   17  A    between atoms: C_20  and  N_21
REMARK   18  A    between atoms: N_21  and  S_22
REMARK   19  A    between atoms: S_22  and  C_23
REMARK                            x       y       z     vdW  Elec       q    Type
REMARK                         _______ _______ _______ _____ _____    ______ ____
ROOT
ATOM      1  C   UNL     1       3.171   6.615  18.496  0.00  0.00    +0.000 C 
ENDROOT
BRANCH   1   2
ATOM      2  C   UNL     1       2.278   7.792  18.848  0.00  0.00    +0.000 A 
ATOM      3  C   UNL     1       1.702   7.949  20.115  0.00  0.00    +0.000 A 
ATOM      4  C   UNL     1       0.948   9.083  20.433  0.00  0.00    +0.000 A 
ATOM      5  C   UNL     1       0.747  10.073  19.476  0.00  0.00    +0.000 A 
ATOM      6  C   UNL     1       1.292   9.940  18.203  0.00  0.00    +0.000 A 
ATOM      7  C   UNL     1       2.054   8.799  17.889  0.00  0.00    +0.000 A 
BRANCH   5   8
ATOM      8  N   UNL     1       0.023  11.236  19.853  0.00  0.00    +0.000 N 
ATOM      9  H   UNL     1      -0.143  11.357  20.855  0.00  0.00    +0.000 HD
BRANCH   8  10
ATOM     10  S   UNL     1      -1.369  11.618  18.972  0.00  0.00    +0.000 S 
ATOM     11  C   UNL     1      -2.361  12.414  20.212  0.00  0.00    +0.000 C 
ATOM     12  O   UNL     1      -1.057  12.569  17.925  0.00  0.00    +0.000 OA
ATOM     13  O   UNL     1      -1.990  10.346  18.664  0.00  0.00    +0.000 OA
ENDBRANCH   8  10
ENDBRANCH   5   8
ENDBRANCH   1   2
BRANCH   1  14
ATOM     14  O   UNL     1       3.708   6.074  19.705  0.00  0.00    +0.000 OA
ATOM     15  H   UNL     1       2.951   5.892  20.290  0.00  0.00    +0.000 HD
ENDBRANCH   1  14
BRANCH   1  16
ATOM     16  C   UNL     1       4.326   6.940  17.539  0.00  0.00    +0.000 C 
BRANCH  16  17
ATOM     17  C   UNL     1       5.639   6.264  17.937  0.00  0.00    +0.000 C 
BRANCH  17  18
ATOM     18  C   UNL     1       6.427   5.774  16.708  0.00  0.00    +0.000 C 
BRANCH  18  19
ATOM     19  N   UNL     1       6.144   4.378  16.332  0.00  0.00    +0.000 NA
BRANCH  19  20
ATOM     20  C   UNL     1       5.759   4.267  14.914  0.00  0.00    +0.000 C 
ATOM     21  C   UNL     1       6.834   4.625  13.891  0.00  0.00    +0.000 C 
ENDBRANCH  19  20
BRANCH  19  22
ATOM     22  C   UNL     1       5.198   3.742  17.266  0.00  0.00    +0.000 C 
BRANCH  22  23
ATOM     23  C   UNL     1       3.840   3.430  16.641  0.00  0.00    +0.000 C 
BRANCH  23  24
ATOM     24  C   UNL     1       3.118   2.318  17.398  0.00  0.00    +0.000 C 
BRANCH  24  25
ATOM     25  C   UNL     1       2.665   2.855  18.750  0.00  0.00    +0.000 C 
BRANCH  25  26
ATOM     26  C   UNL     1       1.269   3.459  18.690  0.00  0.00    +0.000 C 
BRANCH  26  27
ATOM     27  C   UNL     1       0.849   3.930  20.079  0.00  0.00    +0.000 C 
BRANCH  27  29
ATOM     28  C   UNL     1       2.285   3.230  22.015  0.00  0.00    +0.000 C 
ATOM     29  C   UNL     1       1.109   2.856  21.130  0.00  0.00    +0.000 C 
ENDBRANCH  27  29
ENDBRANCH  26  27
ENDBRANCH  25  26
ENDBRANCH  24  25
ENDBRANCH  23  24
ENDBRANCH  22  23
ENDBRANCH  19  22
ENDBRANCH  18  19
ENDBRANCH  17  18
ENDBRANCH  16  17
ENDBRANCH   1  16
TORSDOF 16
ENDMDL
MODEL 4
REMARK VINA RESULT:      -5.9      1.974      2.741
REMARK  Name = 
REMARK  19 active torsions:
REMARK  status: ('A' for Active; 'I' for Inactive)
REMARK    1  A    between atoms: C_1  and  C_2
REMARK    2  A    between atoms: C_2  and  C_3
REMARK    3  A    between atoms: C_3  and  C_4
REMARK    4  A    between atoms: C_4  and  C_5
REMARK    5  A    between atoms: C_5  and  C_6
REMARK    6  A    between atoms: C_6  and  C_7
REMARK    7  A    between atoms: C_7  and  C_8
REMARK    8  A    between atoms: C_8  and  N_9
REMARK    9  A    between atoms: N_9  and  C_10
REMARK   10  A    between atoms: N_9  and  C_12
REMARK   11  A    between atoms: C_10  and  C_11
REMARK   12  A    between atoms: C_12  and  C_13
REMARK   13  A    between atoms: C_13  and  C_14
REMARK   14  A    between atoms: C_14  and  C_15
REMARK   15  A    between atoms: C_15  and  O_16
REMARK   16  A    between atoms: C_15  and  C_17
REMARK   17  A    between atoms: C_20  and  N_21
REMARK   18  A    between atoms: N_21  and  S_22
REMARK   19  A    between atoms: S_22  and  C_23
REMARK                            x       y       z     vdW  Elec       q    Type
REMARK                         _______ _______ _______ _____ _____    ______ ____
ROOT
ATOM      1  C   UNL     1       3.012   6.896  18.612  0.00  0.00    +0.000 C 
ENDROOT
BRANCH   1   2
ATOM      2  C   UNL     1       2.052   7.983  19.064  0.00  0.00    +0.000 A 
ATOM      3  C   UNL     1       1.564   8.966  18.195  0.00  0.00    +0.000 A 
ATOM      4  C   UNL     1       0.620   9.907  18.621  0.00  0.00    +0.000 A 
ATOM      5  C   UNL     1       0.163   9.884  19.935  0.00  0.00    +0.000 A 
ATOM      6  C   UNL     1       0.640   8.930  20.828  0.00  0.00    +0.000 A 
ATOM      7  C   UNL     1       1.586   7.982  20.393  0.00  0.00    +0.000 A 
BRANCH   5   8
ATOM      8  N   UNL     1      -0.836  10.820  20.316  0.00  0.00    +0.000 N 
ATOM      9  H   UNL     1      -1.425  11.180  19.562  0.00  0.00    +0.000 HD
BRANCH   8  10
ATOM     10  S   UNL     1      -0.387  12.069  21.364  0.00  0.00    +0.000 S 
ATOM     11  C   UNL     1      -1.105  11.518  22.892  0.00  0.00    +0.000 C 
ATOM     12  O   UNL     1       1.054  12.116  21.502  0.00  0.00    +0.000 OA
ATOM     13  O   UNL     1      -1.133  13.229  20.921  0.00  0.00    +0.000 OA
ENDBRANCH   8  10
ENDBRANCH   5   8
ENDBRANCH   1   2
BRANCH   1  14
ATOM     14  O   UNL     1       3.412   6.138  19.755  0.00  0.00    +0.000 OA
ATOM     15  H   UNL     1       4.006   5.438  19.432  0.00  0.00    +0.000 HD
ENDBRANCH   1  14
BRANCH   1  16
ATOM     16  C   UNL     1       4.266   7.399  17.884  0.00  0.00    +0.000 C 
BRANCH  16  17
ATOM     17  C   UNL     1       4.590   6.593  16.625  0.00  0.00    +0.000 C 
BRANCH  17  18
ATOM     18  C   UNL     1       6.098   6.315  16.496  0.00  0.00    +0.000 C 
BRANCH  18  19
ATOM     19  N   UNL     1       6.488   4.941  16.859  0.00  0.00    +0.000 NA
BRANCH  19  20
ATOM     20  C   UNL     1       7.027   4.208  15.700  0.00  0.00    +0.000 C 
ATOM     21  C   UNL     1       6.834   4.864  14.335  0.00  0.00    +0.000 C 
ENDBRANCH  19  20
BRANCH  19  22
ATOM     22  C   UNL     1       5.405   4.236  17.568  0.00  0.00    +0.000 C 
BRANCH  22  23
ATOM     23  C   UNL     1       4.471   3.461  16.641  0.00  0.00    +0.000 C 
BRANCH  23  24
ATOM     24  C   UNL     1       3.089   3.280  17.264  0.00  0.00    +0.000 C 
BRANCH  24  25
ATOM     25  C   UNL     1       3.221   2.422  18.516  0.00  0.00    +0.000 C 
BRANCH  25  26
ATOM     26  C   UNL     1       1.868   1.979  19.055  0.00  0.00    +0.000 C 
BRANCH  26  27
ATOM     27  C   UNL     1       0.976   3.198  19.278  0.00  0.00    +0.000 C 
BRANCH  27  29
ATOM     28  C   UNL     1       1.503   2.643  21.668  0.00  0.00    +0.000 C 
ATOM     29  C   UNL     1       1.130   3.745  20.692  0.00  0.00    +0.000 C 
ENDBRANCH  27  29
ENDBRANCH  26  27
ENDBRANCH  25  26
ENDBRANCH  24  25
ENDBRANCH  23  24
ENDBRANCH  22  23
ENDBRANCH  19  22
ENDBRANCH  18  19
ENDBRANCH  17  18
ENDBRANCH  16  17
ENDBRANCH   1  16
TORSDOF 16
ENDMDL
MODEL 5
REMARK VINA RESULT:      -5.9      3.646      5.466
REMARK  Name = 
REMARK  19 active torsions:
REMARK  status: ('A' for Active; 'I' for Inactive)
REMARK    1  A    between atoms: C_1  and  C_2
REMARK    2  A    between atoms: C_2  and  C_3
REMARK    3  A    between atoms: C_3  and  C_4
REMARK    4  A    between atoms: C_4  and  C_5
REMARK    5  A    between atoms: C_5  and  C_6
REMARK    6  A    between atoms: C_6  and  C_7
REMARK    7  A    between atoms: C_7  and  C_8
REMARK    8  A    between atoms: C_8  and  N_9
REMARK    9  A    between atoms: N_9  and  C_10
REMARK   10  A    between atoms: N_9  and  C_12
REMARK   11  A    between atoms: C_10  and  C_11
REMARK   12  A    between atoms: C_12  and  C_13
REMARK   13  A    between atoms: C_13  and  C_14
REMARK   14  A    between atoms: C_14  and  C_15
REMARK   15  A    between atoms: C_15  and  O_16
REMARK   16  A    between atoms: C_15  and  C_17
REMARK   17  A    between atoms: C_20  and  N_21
REMARK   18  A    between atoms: N_21  and  S_22
REMARK   19  A    between atoms: S_22  and  C_23
REMARK                            x       y       z     vdW  Elec       q    Type
REMARK                         _______ _______ _______ _____ _____    ______ ____
ROOT
ATOM      1  C   UNL     1       2.481   5.052  18.660  0.00  0.00    +0.000 C 
ENDROOT
BRANCH   1   2
ATOM      2  C   UNL     1       2.089   6.499  18.907  0.00  0.00    +0.000 A 
ATOM      3  C   UNL     1       1.786   6.990  20.182  0.00  0.00    +0.000 A 
ATOM      4  C   UNL     1       1.505   8.345  20.390  0.00  0.00    +0.000 A 
ATOM      5  C   UNL     1       1.509   9.226  19.313  0.00  0.00    +0.000 A 
ATOM      6  C   UNL     1       1.789   8.767  18.030  0.00  0.00    +0.000 A 
ATOM      7  C   UNL     1       2.076   7.404  17.828  0.00  0.00    +0.000 A 
BRANCH   5   8
ATOM      8  N   UNL     1       1.273  10.604  19.571  0.00  0.00    +0.000 N 
ATOM      9  H   UNL     1       1.824  11.020  20.324  0.00  0.00    +0.000 HD
BRANCH   8  10
ATOM     10  S   UNL     1      -0.333  11.126  19.653  0.00  0.00    +0.000 S 
ATOM     11  C   UNL     1      -0.646  11.024  21.399  0.00  0.00    +0.000 C 
ATOM     12  O   UNL     1      -0.435  12.508  19.229  0.00  0.00    +0.000 OA
ATOM     13  O   UNL     1      -1.109  10.088  19.007  0.00  0.00    +0.000 OA
ENDBRANCH   8  10
ENDBRANCH   5   8
ENDBRANCH   1   2
BRANCH   1  14
ATOM     14  O   UNL     1       2.960   4.495  19.885  0.00  0.00    +0.000 OA
ATOM     15  H   UNL     1       2.334   4.768  20.579  0.00  0.00    +0.000 HD
ENDBRANCH   1  14
BRANCH   1  16
ATOM     16  C   UNL     1       3.540   4.843  17.569  0.00  0.00    +0.000 C 
BRANCH  16  17
ATOM     17  C   UNL     1       4.667   3.904  18.003  0.00  0.00    +0.000 C 
BRANCH  17  18
ATOM     18  C   UNL     1       5.985   4.663  18.239  0.00  0.00    +0.000 C 
BRANCH  18  19
ATOM     19  N   UNL     1       6.873   4.703  17.064  0.00  0.00    +0.000 NA
BRANCH  19  20
ATOM     20  C   UNL     1       7.345   6.072  16.789  0.00  0.00    +0.000 C 
ATOM     21  C   UNL     1       7.484   6.995  17.998  0.00  0.00    +0.000 C 
ENDBRANCH  19  20
BRANCH  19  22
ATOM     22  C   UNL     1       6.270   4.029  15.901  0.00  0.00    +0.000 C 
BRANCH  22  23
ATOM     23  C   UNL     1       6.031   4.957  14.712  0.00  0.00    +0.000 C 
BRANCH  23  24
ATOM     24  C   UNL     1       6.693   4.424  13.444  0.00  0.00    +0.000 C 
BRANCH  24  25
ATOM     25  C   UNL     1       6.104   3.058  13.116  0.00  0.00    +0.000 C 
BRANCH  25  26
ATOM     26  C   UNL     1       5.581   2.985  11.688  0.00  0.00    +0.000 C 
BRANCH  26  27
ATOM     27  C   UNL     1       4.243   3.712  11.589  0.00  0.00    +0.000 C 
BRANCH  27  29
ATOM     28  C   UNL     1       2.829   4.266   9.591  0.00  0.00    +0.000 C 
ATOM     29  C   UNL     1       3.392   3.152  10.456  0.00  0.00    +0.000 C 
ENDBRANCH  27  29
ENDBRANCH  26  27
ENDBRANCH  25  26
ENDBRANCH  24  25
ENDBRANCH  23  24
ENDBRANCH  22  23
ENDBRANCH  19  22
ENDBRANCH  18  19
ENDBRANCH  17  18
ENDBRANCH  16  17
ENDBRANCH   1  16
TORSDOF 16
ENDMDL
MODEL 6
REMARK VINA RESULT:      -5.9      1.991      2.733
REMARK  Name = 
REMARK  19 active torsions:
REMARK  status: ('A' for Active; 'I' for Inactive)
REMARK    1  A    between atoms: C_1  and  C_2
REMARK    2  A    between atoms: C_2  and  C_3
REMARK    3  A    between atoms: C_3  and  C_4
REMARK    4  A    between atoms: C_4  and  C_5
REMARK    5  A    between atoms: C_5  and  C_6
REMARK    6  A    between atoms: C_6  and  C_7
REMARK    7  A    between atoms: C_7  and  C_8
REMARK    8  A    between atoms: C_8  and  N_9
REMARK    9  A    between atoms: N_9  and  C_10
REMARK   10  A    between atoms: N_9  and  C_12
REMARK   11  A    between atoms: C_10  and  C_11
REMARK   12  A    between atoms: C_12  and  C_13
REMARK   13  A    between atoms: C_13  and  C_14
REMARK   14  A    between atoms: C_14  and  C_15
REMARK   15  A    between atoms: C_15  and  O_16
REMARK   16  A    between atoms: C_15  and  C_17
REMARK   17  A    between atoms: C_20  and  N_21
REMARK   18  A    between atoms: N_21  and  S_22
REMARK   19  A    between atoms: S_22  and  C_23
REMARK                            x       y       z     vdW  Elec       q    Type
REMARK                         _______ _______ _______ _____ _____    ______ ____
ROOT
ATOM      1  C   UNL     1       2.795   7.229  17.748  0.00  0.00    +0.000 C 
ENDROOT
BRANCH   1   2
ATOM      2  C   UNL     1       1.909   8.219  18.485  0.00  0.00    +0.000 A 
ATOM      3  C   UNL     1       1.169   9.206  17.823  0.00  0.00    +0.000 A 
ATOM      4  C   UNL     1       0.302  10.053  18.522  0.00  0.00    +0.000 A 
ATOM      5  C   UNL     1       0.178   9.932  19.903  0.00  0.00    +0.000 A 
ATOM      6  C   UNL     1       0.913   8.973  20.593  0.00  0.00    +0.000 A 
ATOM      7  C   UNL     1       1.780   8.119  19.884  0.00  0.00    +0.000 A 
BRANCH   5   8
ATOM      8  N   UNL     1      -0.753  10.772  20.571  0.00  0.00    +0.000 N 
ATOM      9  H   UNL     1      -1.403  11.287  19.973  0.00  0.00    +0.000 HD
BRANCH   8  10
ATOM     10  S   UNL     1      -0.169  11.769  21.806  0.00  0.00    +0.000 S 
ATOM     11  C   UNL     1      -1.318  13.122  21.737  0.00  0.00    +0.000 C 
ATOM     12  O   UNL     1      -0.289  11.104  23.088  0.00  0.00    +0.000 OA
ATOM     13  O   UNL     1       1.111  12.255  21.335  0.00  0.00    +0.000 OA
ENDBRANCH   8  10
ENDBRANCH   5   8
ENDBRANCH   1   2
BRANCH   1  14
ATOM     14  O   UNL     1       2.242   5.921  17.903  0.00  0.00    +0.000 OA
ATOM     15  H   UNL     1       2.730   5.496  18.631  0.00  0.00    +0.000 HD
ENDBRANCH   1  14
BRANCH   1  16
ATOM     16  C   UNL     1       4.261   7.208  18.200  0.00  0.00    +0.000 C 
BRANCH  16  17
ATOM     17  C   UNL     1       5.233   6.899  17.059  0.00  0.00    +0.000 C 
BRANCH  17  18
ATOM     18  C   UNL     1       6.351   5.939  17.504  0.00  0.00    +0.000 C 
BRANCH  18  19
ATOM     19  N   UNL     1       6.090   4.524  17.185  0.00  0.00    +0.000 NA
BRANCH  19  20
ATOM     20  C   UNL     1       5.824   4.335  15.748  0.00  0.00    +0.000 C 
ATOM     21  C   UNL     1       6.940   4.751  14.793  0.00  0.00    +0.000 C 
ENDBRANCH  19  20
BRANCH  19  22
ATOM     22  C   UNL     1       5.064   3.946  18.070  0.00  0.00    +0.000 C 
BRANCH  22  23
ATOM     23  C   UNL     1       4.088   3.018  17.349  0.00  0.00    +0.000 C 
BRANCH  23  24
ATOM     24  C   UNL     1       3.232   2.230  18.337  0.00  0.00    +0.000 C 
BRANCH  24  25
ATOM     25  C   UNL     1       1.762   2.502  18.043  0.00  0.00    +0.000 C 
BRANCH  25  26
ATOM     26  C   UNL     1       0.917   2.520  19.309  0.00  0.00    +0.000 C 
BRANCH  26  27
ATOM     27  C   UNL     1       1.805   2.288  20.528  0.00  0.00    +0.000 C 
BRANCH  27  29
ATOM     28  C   UNL     1       2.272   4.690  21.088  0.00  0.00    +0.000 C 
ATOM     29  C   UNL     1       1.631   3.396  21.560  0.00  0.00    +0.000 C 
ENDBRANCH  27  29
ENDBRANCH  26  27
ENDBRANCH  25  26
ENDBRANCH  24  25
ENDBRANCH  23  24
ENDBRANCH  22  23
ENDBRANCH  19  22
ENDBRANCH  18  19
ENDBRANCH  17  18
ENDBRANCH  16  17
ENDBRANCH   1  16
TORSDOF 16
ENDMDL
MODEL 7
REMARK VINA RESULT:      -5.9      2.812      5.452
REMARK  Name = 
REMARK  19 active torsions:
REMARK  status: ('A' for Active; 'I' for Inactive)
REMARK    1  A    between atoms: C_1  and  C_2
REMARK    2  A    between atoms: C_2  and  C_3
REMARK    3  A    between atoms: C_3  and  C_4
REMARK    4  A    between atoms: C_4  and  C_5
REMARK    5  A    between atoms: C_5  and  C_6
REMARK    6  A    between atoms: C_6  and  C_7
REMARK    7  A    between atoms: C_7  and  C_8
REMARK    8  A    between atoms: C_8  and  N_9
REMARK    9  A    between atoms: N_9  and  C_10
REMARK   10  A    between atoms: N_9  and  C_12
REMARK   11  A    between atoms: C_10  and  C_11
REMARK   12  A    between atoms: C_12  and  C_13
REMARK   13  A    between atoms: C_13  and  C_14
REMARK   14  A    between atoms: C_14  and  C_15
REMARK   15  A    between atoms: C_15  and  O_16
REMARK   16  A    between atoms: C_15  and  C_17
REMARK   17  A    between atoms: C_20  and  N_21
REMARK   18  A    between atoms: N_21  and  S_22
REMARK   19  A    between atoms: S_22  and  C_23
REMARK                            x       y       z     vdW  Elec       q    Type
REMARK                         _______ _______ _______ _____ _____    ______ ____
ROOT
ATOM      1  C   UNL     1       3.103   6.967  18.093  0.00  0.00    +0.000 C 
ENDROOT
BRANCH   1   2
ATOM      2  C   UNL     1       2.154   7.985  18.701  0.00  0.00    +0.000 A 
ATOM      3  C   UNL     1       1.528   8.979  17.940  0.00  0.00    +0.000 A 
ATOM      4  C   UNL     1       0.599   9.854  18.513  0.00  0.00    +0.000 A 
ATOM      5  C   UNL     1       0.296   9.754  19.867  0.00  0.00    +0.000 A 
ATOM      6  C   UNL     1       0.914   8.788  20.655  0.00  0.00    +0.000 A 
ATOM      7  C   UNL     1       1.844   7.907  20.073  0.00  0.00    +0.000 A 
BRANCH   5   8
ATOM      8  N   UNL     1      -0.692  10.624  20.402  0.00  0.00    +0.000 N 
ATOM      9  H   UNL     1      -1.524  10.767  19.824  0.00  0.00    +0.000 HD
BRANCH   8  10
ATOM     10  S   UNL     1      -0.175  12.088  21.070  0.00  0.00    +0.000 S 
ATOM     11  C   UNL     1      -1.093  12.122  22.591  0.00  0.00    +0.000 C 
ATOM     12  O   UNL     1       1.241  12.034  21.368  0.00  0.00    +0.000 OA
ATOM     13  O   UNL     1      -0.718  13.117  20.208  0.00  0.00    +0.000 OA
ENDBRANCH   8  10
ENDBRANCH   5   8
ENDBRANCH   1   2
BRANCH   1  14
ATOM     14  O   UNL     1       3.486   7.420  16.794  0.00  0.00    +0.000 OA
ATOM     15  H   UNL     1       3.355   6.671  16.187  0.00  0.00    +0.000 HD
ENDBRANCH   1  14
BRANCH   1  16
ATOM     16  C   UNL     1       2.541   5.543  17.980  0.00  0.00    +0.000 C 
BRANCH  16  17
ATOM     17  C   UNL     1       3.410   4.500  18.685  0.00  0.00    +0.000 C 
BRANCH  17  18
ATOM     18  C   UNL     1       4.488   3.925  17.748  0.00  0.00    +0.000 C 
BRANCH  18  19
ATOM     19  N   UNL     1       5.493   4.910  17.313  0.00  0.00    +0.000 NA
BRANCH  19  20
ATOM     20  C   UNL     1       6.306   4.397  16.196  0.00  0.00    +0.000 C 
ATOM     21  C   UNL     1       5.888   4.840  14.796  0.00  0.00    +0.000 C 
ENDBRANCH  19  20
BRANCH  19  22
ATOM     22  C   UNL     1       6.281   5.422  18.447  0.00  0.00    +0.000 C 
BRANCH  22  23
ATOM     23  C   UNL     1       7.578   6.112  18.028  0.00  0.00    +0.000 C 
BRANCH  23  24
ATOM     24  C   UNL     1       7.317   7.517  17.493  0.00  0.00    +0.000 C 
BRANCH  24  25
ATOM     25  C   UNL     1       8.266   8.491  18.180  0.00  0.00    +0.000 C 
BRANCH  25  26
ATOM     26  C   UNL     1       8.229   9.874  17.546  0.00  0.00    +0.000 C 
BRANCH  26  27
ATOM     27  C   UNL     1       9.142  10.822  18.319  0.00  0.00    +0.000 C 
BRANCH  27  29
ATOM     28  C   UNL     1      10.096  11.358  20.578  0.00  0.00    +0.000 C 
ATOM     29  C   UNL     1       9.422  10.299  19.723  0.00  0.00    +0.000 C 
ENDBRANCH  27  29
ENDBRANCH  26  27
ENDBRANCH  25  26
ENDBRANCH  24  25
ENDBRANCH  23  24
ENDBRANCH  22  23
ENDBRANCH  19  22
ENDBRANCH  18  19
ENDBRANCH  17  18
ENDBRANCH  16  17
ENDBRANCH   1  16
TORSDOF 16
ENDMDL
MODEL 8
REMARK VINA RESULT:      -5.9      2.984      3.202
REMARK  Name = 
REMARK  19 active torsions:
REMARK  status: ('A' for Active; 'I' for Inactive)
REMARK    1  A    between atoms: C_1  and  C_2
REMARK    2  A    between atoms: C_2  and  C_3
REMARK    3  A    between atoms: C_3  and  C_4
REMARK    4  A    between atoms: C_4  and  C_5
REMARK    5  A    between atoms: C_5  and  C_6
REMARK    6  A    between atoms: C_6  and  C_7
REMARK    7  A    between atoms: C_7  and  C_8
REMARK    8  A    between atoms: C_8  and  N_9
REMARK    9  A    between atoms: N_9  and  C_10
REMARK   10  A    between atoms: N_9  and  C_12
REMARK   11  A    between atoms: C_10  and  C_11
REMARK   12  A    between atoms: C_12  and  C_13
REMARK   13  A    between atoms: C_13  and  C_14
REMARK   14  A    between atoms: C_14  and  C_15
REMARK   15  A    between atoms: C_15  and  O_16
REMARK   16  A    between atoms: C_15  and  C_17
REMARK   17  A    between atoms: C_20  and  N_21
REMARK   18  A    between atoms: N_21  and  S_22
REMARK   19  A    between atoms: S_22  and  C_23
REMARK                            x       y       z     vdW  Elec       q    Type
REMARK                         _______ _______ _______ _____ _____    ______ ____
ROOT
ATOM      1  C   UNL     1       0.859   9.152  19.105  0.00  0.00    +0.000 C 
ENDROOT
BRANCH   1   2
ATOM      2  C   UNL     1      -0.323   9.980  18.633  0.00  0.00    +0.000 A 
ATOM      3  C   UNL     1      -1.045   9.670  17.474  0.00  0.00    +0.000 A 
ATOM      4  C   UNL     1      -2.176  10.405  17.106  0.00  0.00    +0.000 A 
ATOM      5  C   UNL     1      -2.592  11.476  17.890  0.00  0.00    +0.000 A 
ATOM      6  C   UNL     1      -1.888  11.821  19.039  0.00  0.00    +0.000 A 
ATOM      7  C   UNL     1      -0.752  11.075  19.408  0.00  0.00    +0.000 A 
BRANCH   5   8
ATOM      8  N   UNL     1      -3.778  12.165  17.515  0.00  0.00    +0.000 N 
ATOM      9  H   UNL     1      -3.687  13.174  17.377  0.00  0.00    +0.000 HD
BRANCH   8  10
ATOM     10  S   UNL     1      -5.197  11.808  18.362  0.00  0.00    +0.000 S 
ATOM     11  C   UNL     1      -6.424  12.568  17.325  0.00  0.00    +0.000 C 
ATOM     12  O   UNL     1      -5.418  10.377  18.394  0.00  0.00    +0.000 OA
ATOM     13  O   UNL     1      -5.119  12.579  19.585  0.00  0.00    +0.000 OA
ENDBRANCH   8  10
ENDBRANCH   5   8
ENDBRANCH   1   2
BRANCH   1  14
ATOM     14  O   UNL     1       1.260   9.625  20.393  0.00  0.00    +0.000 OA
ATOM     15  H   UNL     1       1.102  10.585  20.399  0.00  0.00    +0.000 HD
ENDBRANCH   1  14
BRANCH   1  16
ATOM     16  C   UNL     1       2.075   9.163  18.169  0.00  0.00    +0.000 C 
BRANCH  16  17
ATOM     17  C   UNL     1       2.306   7.820  17.474  0.00  0.00    +0.000 C 
BRANCH  17  18
ATOM     18  C   UNL     1       3.143   6.862  18.341  0.00  0.00    +0.000 C 
BRANCH  18  19
ATOM     19  N   UNL     1       4.563   6.791  17.956  0.00  0.00    +0.000 NA
BRANCH  19  20
ATOM     20  C   UNL     1       4.735   6.917  16.498  0.00  0.00    +0.000 C 
ATOM     21  C   UNL     1       5.209   5.666  15.761  0.00  0.00    +0.000 C 
ENDBRANCH  19  20
BRANCH  19  22
ATOM     22  C   UNL     1       5.229   5.614  18.542  0.00  0.00    +0.000 C 
BRANCH  22  23
ATOM     23  C   UNL     1       4.326   4.798  19.465  0.00  0.00    +0.000 C 
BRANCH  23  24
ATOM     24  C   UNL     1       4.558   3.299  19.292  0.00  0.00    +0.000 C 
BRANCH  24  25
ATOM     25  C   UNL     1       3.557   2.758  18.278  0.00  0.00    +0.000 C 
BRANCH  25  26
ATOM     26  C   UNL     1       2.381   2.062  18.948  0.00  0.00    +0.000 C 
BRANCH  26  27
ATOM     27  C   UNL     1       1.126   2.921  18.813  0.00  0.00    +0.000 C 
BRANCH  27  29
ATOM     28  C   UNL     1       1.359   2.882  21.311  0.00  0.00    +0.000 C 
ATOM     29  C   UNL     1       0.804   3.640  20.118  0.00  0.00    +0.000 C 
ENDBRANCH  27  29
ENDBRANCH  26  27
ENDBRANCH  25  26
ENDBRANCH  24  25
ENDBRANCH  23  24
ENDBRANCH  22  23
ENDBRANCH  19  22
ENDBRANCH  18  19
ENDBRANCH  17  18
ENDBRANCH  16  17
ENDBRANCH   1  16
TORSDOF 16
ENDMDL
MODEL 9
REMARK VINA RESULT:      -5.9      1.245      1.706
REMARK  Name = 
REMARK  19 active torsions:
REMARK  status: ('A' for Active; 'I' for Inactive)
REMARK    1  A    between atoms: C_1  and  C_2
REMARK    2  A    between atoms: C_2  and  C_3
REMARK    3  A    between atoms: C_3  and  C_4
REMARK    4  A    between atoms: C_4  and  C_5
REMARK    5  A    between atoms: C_5  and  C_6
REMARK    6  A    between atoms: C_6  and  C_7
REMARK    7  A    between atoms: C_7  and  C_8
REMARK    8  A    between atoms: C_8  and  N_9
REMARK    9  A    between atoms: N_9  and  C_10
REMARK   10  A    between atoms: N_9  and  C_12
REMARK   11  A    between atoms: C_10  and  C_11
REMARK   12  A    between atoms: C_12  and  C_13
REMARK   13  A    between atoms: C_13  and  C_14
REMARK   14  A    between atoms: C_14  and  C_15
REMARK   15  A    between atoms: C_15  and  O_16
REMARK   16  A    between atoms: C_15  and  C_17
REMARK   17  A    between atoms: C_20  and  N_21
REMARK   18  A    between atoms: N_21  and  S_22
REMARK   19  A    between atoms: S_22  and  C_23
REMARK                            x       y       z     vdW  Elec       q    Type
REMARK                         _______ _______ _______ _____ _____    ______ ____
ROOT
ATOM      1  C   UNL     1       1.964   8.586  19.275  0.00  0.00    +0.000 C 
ENDROOT
BRANCH   1   2
ATOM      2  C   UNL     1       1.121   9.236  20.359  0.00  0.00    +0.000 A 
ATOM      3  C   UNL     1       0.921  10.620  20.429  0.00  0.00    +0.000 A 
ATOM      4  C   UNL     1       0.077  11.183  21.392  0.00  0.00    +0.000 A 
ATOM      5  C   UNL     1      -0.569  10.363  22.312  0.00  0.00    +0.000 A 
ATOM      6  C   UNL     1      -0.378   8.985  22.280  0.00  0.00    +0.000 A 
ATOM      7  C   UNL     1       0.468   8.423  21.306  0.00  0.00    +0.000 A 
BRANCH   5   8
ATOM      8  N   UNL     1      -1.462  10.965  23.240  0.00  0.00    +0.000 N 
ATOM      9  H   UNL     1      -2.182  10.354  23.632  0.00  0.00    +0.000 HD
BRANCH   8  10
ATOM     10  S   UNL     1      -2.117  12.471  22.839  0.00  0.00    +0.000 S 
ATOM     11  C   UNL     1      -3.564  12.509  23.869  0.00  0.00    +0.000 C 
ATOM     12  O   UNL     1      -1.217  13.534  23.239  0.00  0.00    +0.000 OA
ATOM     13  O   UNL     1      -2.559  12.344  21.466  0.00  0.00    +0.000 OA
ENDBRANCH   8  10
ENDBRANCH   5   8
ENDBRANCH   1   2
BRANCH   1  14
ATOM     14  O   UNL     1       1.309   8.770  18.019  0.00  0.00    +0.000 OA
ATOM     15  H   UNL     1       0.772   7.973  17.864  0.00  0.00    +0.000 HD
ENDBRANCH   1  14
BRANCH   1  16
ATOM     16  C   UNL     1       2.241   7.090  19.479  0.00  0.00    +0.000 C 
BRANCH  16  17
ATOM     17  C   UNL     1       2.689   6.386  18.197  0.00  0.00    +0.000 C 
BRANCH  17  18
ATOM     18  C   UNL     1       4.208   6.508  17.978  0.00  0.00    +0.000 C 
BRANCH  18  19
ATOM     19  N   UNL     1       4.960   5.282  18.295  0.00  0.00    +0.000 NA
BRANCH  19  20
ATOM     20  C   UNL     1       6.072   5.553  19.222  0.00  0.00    +0.000 C 
ATOM     21  C   UNL     1       7.477   5.515  18.625  0.00  0.00    +0.000 C 
ENDBRANCH  19  20
BRANCH  19  22
ATOM     22  C   UNL     1       5.356   4.554  17.076  0.00  0.00    +0.000 C 
BRANCH  22  23
ATOM     23  C   UNL     1       4.304   3.558  16.591  0.00  0.00    +0.000 C 
BRANCH  23  24
ATOM     24  C   UNL     1       3.725   2.749  17.748  0.00  0.00    +0.000 C 
BRANCH  24  25
ATOM     25  C   UNL     1       2.205   2.757  17.644  0.00  0.00    +0.000 C 
BRANCH  25  26
ATOM     26  C   UNL     1       1.539   2.248  18.914  0.00  0.00    +0.000 C 
BRANCH  26  27
ATOM     27  C   UNL     1       0.996   3.424  19.721  0.00  0.00    +0.000 C 
BRANCH  27  29
ATOM     28  C   UNL     1       2.690   2.712  21.431  0.00  0.00    +0.000 C 
ATOM     29  C   UNL     1       1.291   3.259  21.208  0.00  0.00    +0.000 C 
ENDBRANCH  27  29
ENDBRANCH  26  27
ENDBRANCH  25  26
ENDBRANCH  24  25
ENDBRANCH  23  24
ENDBRANCH  22  23
ENDBRANCH  19  22
ENDBRANCH  18  19
ENDBRANCH  17  18
ENDBRANCH  16  17
ENDBRANCH   1  16
TORSDOF 16
ENDMDL
