MODEL 1
REMARK VINA RESULT:      -8.5      0.000      0.000
REMARK  Name = 
REMARK  5 active torsions:
REMARK  status: ('A' for Active; 'I' for Inactive)
REMARK    1  A    between atoms: C_1  and  C_2
REMARK    2  A    between atoms: C_8  and  S_9
REMARK    3  A    between atoms: S_9  and  N_12
REMARK    4  A    between atoms: C_20  and  C_21
REMARK    5  A    between atoms: C_25  and  C_26
REMARK                            x       y       z     vdW  Elec       q    Type
REMARK                         _______ _______ _______ _____ _____    ______ ____
ROOT
ATOM      1  C   UNL     1      -0.448  10.592  21.325  0.00  0.00    +0.000 C 
ATOM      2  C   UNL     1       0.395   9.343  21.295  0.00  0.00    +0.000 C 
ATOM      3  O   UNL     1       0.458   8.663  22.320  0.00  0.00    +0.000 OA
ATOM      4  N   UNL     1       1.003   9.024  20.091  0.00  0.00    +0.000 N 
ATOM      5  C   UNL     1       1.710   7.815  19.869  0.00  0.00    +0.000 A 
ATOM      6  C   UNL     1       1.920   6.747  20.728  0.00  0.00    +0.000 A 
ATOM      7  C   UNL     1       2.587   5.609  20.256  0.00  0.00    +0.000 A 
ATOM      8  C   UNL     1       2.983   5.534  18.914  0.00  0.00    +0.000 A 
ATOM      9  C   UNL     1       2.849   6.643  18.072  0.00  0.00    +0.000 A 
ATOM     10  C   UNL     1       2.221   7.776  18.573  0.00  0.00    +0.000 A 
ATOM     11  C   UNL     1       2.010   9.070  17.864  0.00  0.00    +0.000 C 
ATOM     12  C   UNL     1       1.183   9.891  18.885  0.00  0.00    +0.000 C 
ATOM     13  C   UNL     1      -0.098  10.383  18.210  0.00  0.00    +0.000 C 
ENDROOT
BRANCH   8  14
ATOM     14  S   UNL     1       3.771   4.051  18.309  0.00  0.00    +0.000 S 
ATOM     15  O   UNL     1       4.054   3.221  19.461  0.00  0.00    +0.000 OA
ATOM     16  O   UNL     1       2.921   3.541  17.243  0.00  0.00    +0.000 OA
BRANCH  14  17
ATOM     17  N   UNL     1       5.219   4.598  17.623  0.00  0.00    +0.000 N 
ATOM     18  C   UNL     1       5.526   4.410  16.236  0.00  0.00    +0.000 A 
ATOM     19  C   UNL     1       4.680   4.320  15.144  0.00  0.00    +0.000 A 
ATOM     20  C   UNL     1       5.237   4.313  13.857  0.00  0.00    +0.000 A 
ATOM     21  C   UNL     1       6.619   4.449  13.672  0.00  0.00    +0.000 A 
ATOM     22  C   UNL     1       7.465   4.551  14.772  0.00  0.00    +0.000 A 
ATOM     23  C   UNL     1       6.903   4.509  16.042  0.00  0.00    +0.000 A 
ATOM     24  C   UNL     1       7.637   4.618  17.335  0.00  0.00    +0.000 C 
ATOM     25  C   UNL     1       6.509   4.502  18.391  0.00  0.00    +0.000 C 
ATOM     26  C   UNL     1       6.667   5.618  19.416  0.00  0.00    +0.000 C 
ENDBRANCH  14  17
ENDBRANCH   8  14
TORSDOF 2
ENDMDL
MODEL 2
REMARK VINA RESULT:      -8.3      3.079      8.273
REMARK  Name = 
REMARK  5 active torsions:
REMARK  status: ('A' for Active; 'I' for Inactive)
REMARK    1  A    between atoms: C_1  and  C_2
REMARK    2  A    between atoms: C_8  and  S_9
REMARK    3  A    between atoms: S_9  and  N_12
REMARK    4  A    between atoms: C_20  and  C_21
REMARK    5  A    between atoms: C_25  and  C_26
REMARK                            x       y       z     vdW  Elec       q    Type
REMARK                         _______ _______ _______ _____ _____    ______ ____
ROOT
ATOM      1  C   UNL     1       3.538   3.716  19.856  0.00  0.00    +0.000 C 
ATOM      2  C   UNL     1       2.687   4.906  20.216  0.00  0.00    +0.000 C 
ATOM      3  O   UNL     1       2.036   4.858  21.260  0.00  0.00    +0.000 OA
ATOM      4  N   UNL     1       2.736   5.996  19.361  0.00  0.00    +0.000 N 
ATOM      5  C   UNL     1       2.102   7.234  19.635  0.00  0.00    +0.000 A 
ATOM      6  C   UNL     1       1.365   7.619  20.745  0.00  0.00    +0.000 A 
ATOM      7  C   UNL     1       0.900   8.937  20.834  0.00  0.00    +0.000 A 
ATOM      8  C   UNL     1       1.229   9.868  19.838  0.00  0.00    +0.000 A 
ATOM      9  C   UNL     1       1.898   9.458  18.679  0.00  0.00    +0.000 A 
ATOM     10  C   UNL     1       2.315   8.136  18.594  0.00  0.00    +0.000 A 
ATOM     11  C   UNL     1       3.004   7.487  17.443  0.00  0.00    +0.000 C 
ATOM     12  C   UNL     1       3.293   6.061  17.973  0.00  0.00    +0.000 C 
ATOM     13  C   UNL     1       4.786   5.766  17.829  0.00  0.00    +0.000 C 
ENDROOT
BRANCH   8  14
ATOM     14  S   UNL     1       0.688  11.560  19.998  0.00  0.00    +0.000 S 
ATOM     15  O   UNL     1       1.088  12.011  21.315  0.00  0.00    +0.000 OA
ATOM     16  O   UNL     1       1.173  12.260  18.818  0.00  0.00    +0.000 OA
BRANCH  14  17
ATOM     17  N   UNL     1      -1.001  11.469  19.910  0.00  0.00    +0.000 N 
ATOM     18  C   UNL     1      -1.683  11.090  18.708  0.00  0.00    +0.000 A 
ATOM     19  C   UNL     1      -1.273  10.261  17.679  0.00  0.00    +0.000 A 
ATOM     20  C   UNL     1      -2.200   9.903  16.689  0.00  0.00    +0.000 A 
ATOM     21  C   UNL     1      -3.532  10.331  16.765  0.00  0.00    +0.000 A 
ATOM     22  C   UNL     1      -3.943  11.156  17.808  0.00  0.00    +0.000 A 
ATOM     23  C   UNL     1      -3.001  11.540  18.755  0.00  0.00    +0.000 A 
ATOM     24  C   UNL     1      -3.250  12.400  19.947  0.00  0.00    +0.000 C 
ATOM     25  C   UNL     1      -1.856  12.484  20.618  0.00  0.00    +0.000 C 
ATOM     26  C   UNL     1      -1.998  12.197  22.107  0.00  0.00    +0.000 C 
ENDBRANCH  14  17
ENDBRANCH   8  14
TORSDOF 2
ENDMDL
MODEL 3
REMARK VINA RESULT:      -8.1      3.391      8.339
REMARK  Name = 
REMARK  5 active torsions:
REMARK  status: ('A' for Active; 'I' for Inactive)
REMARK    1  A    between atoms: C_1  and  C_2
REMARK    2  A    between atoms: C_8  and  S_9
REMARK    3  A    between atoms: S_9  and  N_12
REMARK    4  A    between atoms: C_20  and  C_21
REMARK    5  A    between atoms: C_25  and  C_26
REMARK                            x       y       z     vdW  Elec       q    Type
REMARK                         _______ _______ _______ _____ _____    ______ ____
ROOT
ATOM      1  C   UNL     1       3.095   3.523  18.134  0.00  0.00    +0.000 C 
ATOM      2  C   UNL     1       3.102   5.028  18.067  0.00  0.00    +0.000 C 
ATOM      3  O   UNL     1       3.639   5.562  17.096  0.00  0.00    +0.000 OA
ATOM      4  N   UNL     1       2.454   5.705  19.088  0.00  0.00    +0.000 N 
ATOM      5  C   UNL     1       2.256   7.109  19.092  0.00  0.00    +0.000 A 
ATOM      6  C   UNL     1       2.614   8.052  18.141  0.00  0.00    +0.000 A 
ATOM      7  C   UNL     1       2.236   9.388  18.325  0.00  0.00    +0.000 A 
ATOM      8  C   UNL     1       1.454   9.752  19.430  0.00  0.00    +0.000 A 
ATOM      9  C   UNL     1       1.167   8.819  20.432  0.00  0.00    +0.000 A 
ATOM     10  C   UNL     1       1.587   7.507  20.249  0.00  0.00    +0.000 A 
ATOM     11  C   UNL     1       1.420   6.373  21.201  0.00  0.00    +0.000 C 
ATOM     12  C   UNL     1       1.992   5.171  20.407  0.00  0.00    +0.000 C 
ATOM     13  C   UNL     1       0.941   4.061  20.356  0.00  0.00    +0.000 C 
ENDROOT
BRANCH   8  14
ATOM     14  S   UNL     1       0.922  11.445  19.616  0.00  0.00    +0.000 S 
ATOM     15  O   UNL     1       1.431  11.911  20.889  0.00  0.00    +0.000 OA
ATOM     16  O   UNL     1       1.305  12.132  18.391  0.00  0.00    +0.000 OA
BRANCH  14  17
ATOM     17  N   UNL     1      -0.767  11.349  19.670  0.00  0.00    +0.000 N 
ATOM     18  C   UNL     1      -1.550  11.007  18.520  0.00  0.00    +0.000 A 
ATOM     19  C   UNL     1      -1.230  10.214  17.433  0.00  0.00    +0.000 A 
ATOM     20  C   UNL     1      -2.238   9.886  16.515  0.00  0.00    +0.000 A 
ATOM     21  C   UNL     1      -3.559  10.305  16.720  0.00  0.00    +0.000 A 
ATOM     22  C   UNL     1      -3.880  11.092  17.822  0.00  0.00    +0.000 A 
ATOM     23  C   UNL     1      -2.860  11.448  18.696  0.00  0.00    +0.000 A 
ATOM     24  C   UNL     1      -3.006  12.267  19.934  0.00  0.00    +0.000 C 
ATOM     25  C   UNL     1      -1.560  12.336  20.484  0.00  0.00    +0.000 C 
ATOM     26  C   UNL     1      -1.572  11.998  21.969  0.00  0.00    +0.000 C 
ENDBRANCH  14  17
ENDBRANCH   8  14
TORSDOF 2
ENDMDL
MODEL 4
REMARK VINA RESULT:      -8.1      0.856      2.458
REMARK  Name = 
REMARK  5 active torsions:
REMARK  status: ('A' for Active; 'I' for Inactive)
REMARK    1  A    between atoms: C_1  and  C_2
REMARK    2  A    between atoms: C_8  and  S_9
REMARK    3  A    between atoms: S_9  and  N_12
REMARK    4  A    between atoms: C_20  and  C_21
REMARK    5  A    between atoms: C_25  and  C_26
REMARK                            x       y       z     vdW  Elec       q    Type
REMARK                         _______ _______ _______ _____ _____    ______ ____
ROOT
ATOM      1  C   UNL     1      -0.154  10.527  21.567  0.00  0.00    +0.000 C 
ATOM      2  C   UNL     1       0.618   9.243  21.406  0.00  0.00    +0.000 C 
ATOM      3  O   UNL     1       0.750   8.519  22.393  0.00  0.00    +0.000 OA
ATOM      4  N   UNL     1       1.087   8.947  20.136  0.00  0.00    +0.000 N 
ATOM      5  C   UNL     1       1.707   7.717  19.799  0.00  0.00    +0.000 A 
ATOM      6  C   UNL     1       1.949   6.605  20.593  0.00  0.00    +0.000 A 
ATOM      7  C   UNL     1       2.508   5.459  20.013  0.00  0.00    +0.000 A 
ATOM      8  C   UNL     1       2.764   5.421  18.636  0.00  0.00    +0.000 A 
ATOM      9  C   UNL     1       2.602   6.569  17.853  0.00  0.00    +0.000 A 
ATOM     10  C   UNL     1       2.084   7.708  18.457  0.00  0.00    +0.000 A 
ATOM     11  C   UNL     1       1.867   9.039  17.821  0.00  0.00    +0.000 C 
ATOM     12  C   UNL     1       1.188   9.853  18.950  0.00  0.00    +0.000 C 
ATOM     13  C   UNL     1      -0.127  10.431  18.427  0.00  0.00    +0.000 C 
ENDROOT
BRANCH   8  14
ATOM     14  S   UNL     1       3.413   3.931  17.900  0.00  0.00    +0.000 S 
ATOM     15  O   UNL     1       3.669   3.001  18.980  0.00  0.00    +0.000 OA
ATOM     16  O   UNL     1       2.491   3.564  16.836  0.00  0.00    +0.000 OA
BRANCH  14  17
ATOM     17  N   UNL     1       4.876   4.414  17.198  0.00  0.00    +0.000 N 
ATOM     18  C   UNL     1       5.857   5.168  17.920  0.00  0.00    +0.000 A 
ATOM     19  C   UNL     1       6.141   5.188  19.274  0.00  0.00    +0.000 A 
ATOM     20  C   UNL     1       7.276   5.884  19.716  0.00  0.00    +0.000 A 
ATOM     21  C   UNL     1       8.139   6.505  18.803  0.00  0.00    +0.000 A 
ATOM     22  C   UNL     1       7.855   6.473  17.441  0.00  0.00    +0.000 A 
ATOM     23  C   UNL     1       6.702   5.819  17.023  0.00  0.00    +0.000 A 
ATOM     24  C   UNL     1       6.239   5.664  15.614  0.00  0.00    +0.000 C 
ATOM     25  C   UNL     1       4.919   4.866  15.763  0.00  0.00    +0.000 C 
ATOM     26  C   UNL     1       4.924   3.701  14.781  0.00  0.00    +0.000 C 
ENDBRANCH  14  17
ENDBRANCH   8  14
TORSDOF 2
ENDMDL
MODEL 5
REMARK VINA RESULT:      -7.9      2.623      8.273
REMARK  Name = 
REMARK  5 active torsions:
REMARK  status: ('A' for Active; 'I' for Inactive)
REMARK    1  A    between atoms: C_1  and  C_2
REMARK    2  A    between atoms: C_8  and  S_9
REMARK    3  A    between atoms: S_9  and  N_12
REMARK    4  A    between atoms: C_20  and  C_21
REMARK    5  A    between atoms: C_25  and  C_26
REMARK                            x       y       z     vdW  Elec       q    Type
REMARK                         _______ _______ _______ _____ _____    ______ ____
ROOT
ATOM      1  C   UNL     1       5.094   4.315  16.196  0.00  0.00    +0.000 C 
ATOM      2  C   UNL     1       4.537   5.613  16.720  0.00  0.00    +0.000 C 
ATOM      3  O   UNL     1       4.682   6.625  16.033  0.00  0.00    +0.000 OA
ATOM      4  N   UNL     1       3.856   5.563  17.926  0.00  0.00    +0.000 N 
ATOM      5  C   UNL     1       3.160   6.669  18.477  0.00  0.00    +0.000 A 
ATOM      6  C   UNL     1       2.993   7.948  17.967  0.00  0.00    +0.000 A 
ATOM      7  C   UNL     1       2.186   8.860  18.658  0.00  0.00    +0.000 A 
ATOM      8  C   UNL     1       1.509   8.462  19.819  0.00  0.00    +0.000 A 
ATOM      9  C   UNL     1       1.745   7.201  20.379  0.00  0.00    +0.000 A 
ATOM     10  C   UNL     1       2.582   6.326  19.698  0.00  0.00    +0.000 A 
ATOM     11  C   UNL     1       2.995   4.962  20.134  0.00  0.00    +0.000 C 
ATOM     12  C   UNL     1       3.835   4.457  18.934  0.00  0.00    +0.000 C 
ATOM     13  C   UNL     1       3.271   3.119  18.456  0.00  0.00    +0.000 C 
ENDROOT
BRANCH   8  14
ATOM     14  S   UNL     1       0.430   9.613  20.651  0.00  0.00    +0.000 S 
ATOM     15  O   UNL     1      -0.779   8.893  20.990  0.00  0.00    +0.000 OA
ATOM     16  O   UNL     1       1.222  10.229  21.706  0.00  0.00    +0.000 OA
BRANCH  14  17
ATOM     17  N   UNL     1       0.091  10.789  19.480  0.00  0.00    +0.000 N 
ATOM     18  C   UNL     1       0.551  12.140  19.600  0.00  0.00    +0.000 A 
ATOM     19  C   UNL     1       1.679  12.642  20.226  0.00  0.00    +0.000 A 
ATOM     20  C   UNL     1       2.004  13.995  20.050  0.00  0.00    +0.000 A 
ATOM     21  C   UNL     1       1.235  14.815  19.215  0.00  0.00    +0.000 A 
ATOM     22  C   UNL     1       0.107  14.304  18.579  0.00  0.00    +0.000 A 
ATOM     23  C   UNL     1      -0.228  12.974  18.800  0.00  0.00    +0.000 A 
ATOM     24  C   UNL     1      -1.381  12.244  18.199  0.00  0.00    +0.000 C 
ATOM     25  C   UNL     1      -1.252  10.823  18.803  0.00  0.00    +0.000 C 
ATOM     26  C   UNL     1      -1.374   9.792  17.688  0.00  0.00    +0.000 C 
ENDBRANCH  14  17
ENDBRANCH   8  14
TORSDOF 2
ENDMDL
MODEL 6
REMARK VINA RESULT:      -7.9      1.134      1.968
REMARK  Name = 
REMARK  5 active torsions:
REMARK  status: ('A' for Active; 'I' for Inactive)
REMARK    1  A    between atoms: C_1  and  C_2
REMARK    2  A    between atoms: C_8  and  S_9
REMARK    3  A    between atoms: S_9  and  N_12
REMARK    4  A    between atoms: C_20  and  C_21
REMARK    5  A    between atoms: C_25  and  C_26
REMARK                            x       y       z     vdW  Elec       q    Type
REMARK                         _______ _______ _______ _____ _____    ______ ____
ROOT
ATOM      1  C   UNL     1       0.505  11.651  20.056  0.00  0.00    +0.000 C 
ATOM      2  C   UNL     1       1.093  10.492  19.295  0.00  0.00    +0.000 C 
ATOM      3  O   UNL     1       1.533  10.704  18.164  0.00  0.00    +0.000 OA
ATOM      4  N   UNL     1       1.139   9.270  19.948  0.00  0.00    +0.000 N 
ATOM      5  C   UNL     1       1.784   8.124  19.417  0.00  0.00    +0.000 A 
ATOM      6  C   UNL     1       2.484   7.978  18.229  0.00  0.00    +0.000 A 
ATOM      7  C   UNL     1       3.114   6.758  17.951  0.00  0.00    +0.000 A 
ATOM      8  C   UNL     1       3.084   5.721  18.893  0.00  0.00    +0.000 A 
ATOM      9  C   UNL     1       2.307   5.838  20.051  0.00  0.00    +0.000 A 
ATOM     10  C   UNL     1       1.657   7.043  20.287  0.00  0.00    +0.000 A 
ATOM     11  C   UNL     1       0.756   7.364  21.430  0.00  0.00    +0.000 C 
ATOM     12  C   UNL     1       0.427   8.860  21.199  0.00  0.00    +0.000 C 
ATOM     13  C   UNL     1       0.773   9.649  22.462  0.00  0.00    +0.000 C 
ENDROOT
BRANCH   8  14
ATOM     14  S   UNL     1       3.948   4.197  18.555  0.00  0.00    +0.000 S 
ATOM     15  O   UNL     1       4.268   3.599  19.834  0.00  0.00    +0.000 OA
ATOM     16  O   UNL     1       3.130   3.464  17.600  0.00  0.00    +0.000 OA
BRANCH  14  17
ATOM     17  N   UNL     1       5.370   4.687  17.777  0.00  0.00    +0.000 N 
ATOM     18  C   UNL     1       5.589   4.468  16.378  0.00  0.00    +0.000 A 
ATOM     19  C   UNL     1       4.678   4.389  15.339  0.00  0.00    +0.000 A 
ATOM     20  C   UNL     1       5.158   4.346  14.022  0.00  0.00    +0.000 A 
ATOM     21  C   UNL     1       6.530   4.434  13.754  0.00  0.00    +0.000 A 
ATOM     22  C   UNL     1       7.442   4.525  14.802  0.00  0.00    +0.000 A 
ATOM     23  C   UNL     1       6.954   4.520  16.103  0.00  0.00    +0.000 A 
ATOM     24  C   UNL     1       7.766   4.625  17.349  0.00  0.00    +0.000 C 
ATOM     25  C   UNL     1       6.700   4.562  18.471  0.00  0.00    +0.000 C 
ATOM     26  C   UNL     1       6.951   5.687  19.466  0.00  0.00    +0.000 C 
ENDBRANCH  14  17
ENDBRANCH   8  14
TORSDOF 2
ENDMDL
MODEL 7
REMARK VINA RESULT:      -7.7      3.510      9.018
REMARK  Name = 
REMARK  5 active torsions:
REMARK  status: ('A' for Active; 'I' for Inactive)
REMARK    1  A    between atoms: C_1  and  C_2
REMARK    2  A    between atoms: C_8  and  S_9
REMARK    3  A    between atoms: S_9  and  N_12
REMARK    4  A    between atoms: C_20  and  C_21
REMARK    5  A    between atoms: C_25  and  C_26
REMARK                            x       y       z     vdW  Elec       q    Type
REMARK                         _______ _______ _______ _____ _____    ______ ____
ROOT
ATOM      1  C   UNL     1       3.401   4.781  19.444  0.00  0.00    +0.000 C 
ATOM      2  C   UNL     1       2.506   5.853  20.009  0.00  0.00    +0.000 C 
ATOM      3  O   UNL     1       1.990   5.657  21.110  0.00  0.00    +0.000 OA
ATOM      4  N   UNL     1       2.364   7.012  19.260  0.00  0.00    +0.000 N 
ATOM      5  C   UNL     1       1.669   8.159  19.720  0.00  0.00    +0.000 A 
ATOM      6  C   UNL     1       1.041   8.379  20.937  0.00  0.00    +0.000 A 
ATOM      7  C   UNL     1       0.484   9.637  21.202  0.00  0.00    +0.000 A 
ATOM      8  C   UNL     1       0.615  10.675  20.268  0.00  0.00    +0.000 A 
ATOM      9  C   UNL     1       1.172  10.428  19.009  0.00  0.00    +0.000 A 
ATOM     10  C   UNL     1       1.681   9.161  18.752  0.00  0.00    +0.000 A 
ATOM     11  C   UNL     1       2.278   8.679  17.475  0.00  0.00    +0.000 C 
ATOM     12  C   UNL     1       2.743   7.245  17.832  0.00  0.00    +0.000 C 
ATOM     13  C   UNL     1       4.227   7.102  17.495  0.00  0.00    +0.000 C 
ENDROOT
BRANCH   8  14
ATOM     14  S   UNL     1      -0.039  12.291  20.648  0.00  0.00    +0.000 S 
ATOM     15  O   UNL     1       0.433  12.639  21.972  0.00  0.00    +0.000 OA
ATOM     16  O   UNL     1       0.294  13.144  19.516  0.00  0.00    +0.000 OA
BRANCH  14  17
ATOM     17  N   UNL     1      -1.717  12.067  20.674  0.00  0.00    +0.000 N 
ATOM     18  C   UNL     1      -2.494  11.978  19.475  0.00  0.00    +0.000 A 
ATOM     19  C   UNL     1      -2.140  11.515  18.220  0.00  0.00    +0.000 A 
ATOM     20  C   UNL     1      -3.139  11.363  17.248  0.00  0.00    +0.000 A 
ATOM     21  C   UNL     1      -4.482  11.623  17.552  0.00  0.00    +0.000 A 
ATOM     22  C   UNL     1      -4.836  12.078  18.819  0.00  0.00    +0.000 A 
ATOM     23  C   UNL     1      -3.828  12.267  19.757  0.00  0.00    +0.000 A 
ATOM     24  C   UNL     1      -4.008  12.730  21.163  0.00  0.00    +0.000 C 
ATOM     25  C   UNL     1      -2.560  12.755  21.713  0.00  0.00    +0.000 C 
ATOM     26  C   UNL     1      -2.524  12.048  23.062  0.00  0.00    +0.000 C 
ENDBRANCH  14  17
ENDBRANCH   8  14
TORSDOF 2
ENDMDL
MODEL 8
REMARK VINA RESULT:      -7.6      3.648      9.046
REMARK  Name = 
REMARK  5 active torsions:
REMARK  status: ('A' for Active; 'I' for Inactive)
REMARK    1  A    between atoms: C_1  and  C_2
REMARK    2  A    between atoms: C_8  and  S_9
REMARK    3  A    between atoms: S_9  and  N_12
REMARK    4  A    between atoms: C_20  and  C_21
REMARK    5  A    between atoms: C_25  and  C_26
REMARK                            x       y       z     vdW  Elec       q    Type
REMARK                         _______ _______ _______ _____ _____    ______ ____
ROOT
ATOM      1  C   UNL     1       3.503   5.251  18.270  0.00  0.00    +0.000 C 
ATOM      2  C   UNL     1       3.202   6.724  18.182  0.00  0.00    +0.000 C 
ATOM      3  O   UNL     1       3.646   7.350  17.220  0.00  0.00    +0.000 OA
ATOM      4  N   UNL     1       2.398   7.261  19.176  0.00  0.00    +0.000 N 
ATOM      5  C   UNL     1       1.916   8.594  19.156  0.00  0.00    +0.000 A 
ATOM      6  C   UNL     1       2.100   9.583  18.202  0.00  0.00    +0.000 A 
ATOM      7  C   UNL     1       1.450  10.814  18.358  0.00  0.00    +0.000 A 
ATOM      8  C   UNL     1       0.578  11.017  19.436  0.00  0.00    +0.000 A 
ATOM      9  C   UNL     1       0.459  10.053  20.442  0.00  0.00    +0.000 A 
ATOM     10  C   UNL     1       1.145   8.854  20.288  0.00  0.00    +0.000 A 
ATOM     11  C   UNL     1       1.187   7.717  21.250  0.00  0.00    +0.000 C 
ATOM     12  C   UNL     1       2.017   6.653  20.489  0.00  0.00    +0.000 C 
ATOM     13  C   UNL     1       1.220   5.350  20.424  0.00  0.00    +0.000 C 
ENDROOT
BRANCH   8  14
ATOM     14  S   UNL     1      -0.296  12.566  19.584  0.00  0.00    +0.000 S 
ATOM     15  O   UNL     1       0.053  13.128  20.872  0.00  0.00    +0.000 OA
ATOM     16  O   UNL     1      -0.012  13.315  18.369  0.00  0.00    +0.000 OA
BRANCH  14  17
ATOM     17  N   UNL     1      -1.931  12.126  19.572  0.00  0.00    +0.000 N 
ATOM     18  C   UNL     1      -2.608  11.737  18.372  0.00  0.00    +0.000 A 
ATOM     19  C   UNL     1      -2.115  11.126  17.232  0.00  0.00    +0.000 A 
ATOM     20  C   UNL     1      -3.020  10.684  16.256  0.00  0.00    +0.000 A 
ATOM     21  C   UNL     1      -4.402  10.808  16.450  0.00  0.00    +0.000 A 
ATOM     22  C   UNL     1      -4.895  11.413  17.603  0.00  0.00    +0.000 A 
ATOM     23  C   UNL     1      -3.984  11.888  18.539  0.00  0.00    +0.000 A 
ATOM     24  C   UNL     1      -4.314  12.546  19.835  0.00  0.00    +0.000 C 
ATOM     25  C   UNL     1      -2.922  12.856  20.438  0.00  0.00    +0.000 C 
ATOM     26  C   UNL     1      -2.889  12.391  21.889  0.00  0.00    +0.000 C 
ENDBRANCH  14  17
ENDBRANCH   8  14
TORSDOF 2
ENDMDL
MODEL 9
REMARK VINA RESULT:      -7.5      2.916      8.195
REMARK  Name = 
REMARK  5 active torsions:
REMARK  status: ('A' for Active; 'I' for Inactive)
REMARK    1  A    between atoms: C_1  and  C_2
REMARK    2  A    between atoms: C_8  and  S_9
REMARK    3  A    between atoms: S_9  and  N_12
REMARK    4  A    between atoms: C_20  and  C_21
REMARK    5  A    between atoms: C_25  and  C_26
REMARK                            x       y       z     vdW  Elec       q    Type
REMARK                         _______ _______ _______ _____ _____    ______ ____
ROOT
ATOM      1  C   UNL     1       3.882   3.361  17.222  0.00  0.00    +0.000 C 
ATOM      2  C   UNL     1       3.618   4.789  17.621  0.00  0.00    +0.000 C 
ATOM      3  O   UNL     1       3.999   5.682  16.864  0.00  0.00    +0.000 OA
ATOM      4  N   UNL     1       2.917   4.993  18.800  0.00  0.00    +0.000 N 
ATOM      5  C   UNL     1       2.474   6.268  19.235  0.00  0.00    +0.000 A 
ATOM      6  C   UNL     1       2.608   7.504  18.621  0.00  0.00    +0.000 A 
ATOM      7  C   UNL     1       2.010   8.627  19.206  0.00  0.00    +0.000 A 
ATOM      8  C   UNL     1       1.237   8.488  20.367  0.00  0.00    +0.000 A 
ATOM      9  C   UNL     1       1.175   7.259  21.033  0.00  0.00    +0.000 A 
ATOM     10  C   UNL     1       1.809   6.166  20.456  0.00  0.00    +0.000 A 
ATOM     11  C   UNL     1       1.898   4.786  21.012  0.00  0.00    +0.000 C 
ATOM     12  C   UNL     1       2.629   4.009  19.889  0.00  0.00    +0.000 C 
ATOM     13  C   UNL     1       1.791   2.792  19.496  0.00  0.00    +0.000 C 
ENDROOT
BRANCH   8  14
ATOM     14  S   UNL     1       0.426   9.916  21.064  0.00  0.00    +0.000 S 
ATOM     15  O   UNL     1      -0.896   9.493  21.477  0.00  0.00    +0.000 OA
ATOM     16  O   UNL     1       1.345  10.472  22.046  0.00  0.00    +0.000 OA
BRANCH  14  17
ATOM     17  N   UNL     1       0.304  11.001  19.769  0.00  0.00    +0.000 N 
ATOM     18  C   UNL     1       0.954  12.277  19.780  0.00  0.00    +0.000 A 
ATOM     19  C   UNL     1       2.122  12.674  20.408  0.00  0.00    +0.000 A 
ATOM     20  C   UNL     1       2.649  13.941  20.119  0.00  0.00    +0.000 A 
ATOM     21  C   UNL     1       2.038  14.773  19.171  0.00  0.00    +0.000 A 
ATOM     22  C   UNL     1       0.870  14.365  18.533  0.00  0.00    +0.000 A 
ATOM     23  C   UNL     1       0.335  13.127  18.865  0.00  0.00    +0.000 A 
ATOM     24  C   UNL     1      -0.892  12.512  18.282  0.00  0.00    +0.000 C 
ATOM     25  C   UNL     1      -0.995  11.157  19.026  0.00  0.00    +0.000 C 
ATOM     26  C   UNL     1      -1.229  10.045  18.012  0.00  0.00    +0.000 C 
ENDBRANCH  14  17
ENDBRANCH   8  14
TORSDOF 2
ENDMDL
