MODEL 1
REMARK VINA RESULT:      -6.5      0.000      0.000
REMARK  Name = 
REMARK  11 active torsions:
REMARK  status: ('A' for Active; 'I' for Inactive)
REMARK    1  A    between atoms: C_1  and  O_2
REMARK    2  A    between atoms: O_2  and  C_3
REMARK    3  A    between atoms: C_5  and  C_6
REMARK    4  A    between atoms: C_6  and  C_8
REMARK    5  A    between atoms: C_8  and  O_9
REMARK    6  A    between atoms: O_9  and  C_10
REMARK    7  A    between atoms: C_10  and  C_12
REMARK    8  A    between atoms: C_18  and  O_19
REMARK    9  A    between atoms: O_19  and  C_20
REMARK   10  A    between atoms: C_21  and  O_22
REMARK   11  A    between atoms: O_22  and  C_23
REMARK                            x       y       z     vdW  Elec       q    Type
REMARK                         _______ _______ _______ _____ _____    ______ ____
ROOT
ATOM      1  C   UNL     1       4.515   6.623  17.403  0.00  0.00    +0.000 A 
ATOM      2  C   UNL     1       3.644   5.520  17.418  0.00  0.00    +0.000 A 
ATOM      3  C   UNL     1       4.062   4.284  16.940  0.00  0.00    +0.000 A 
ATOM      4  C   UNL     1       5.302   4.181  16.317  0.00  0.00    +0.000 A 
ATOM      5  C   UNL     1       6.156   5.294  16.216  0.00  0.00    +0.000 A 
ATOM      6  C   UNL     1       5.772   6.536  16.770  0.00  0.00    +0.000 A 
ENDROOT
BRANCH   1   8
ATOM      7  C   UNL     1       2.713   8.083  17.820  0.00  0.00    +0.000 C 
ATOM      8  O   UNL     1       4.104   7.797  17.986  0.00  0.00    +0.000 OA
ENDBRANCH   1   8
BRANCH   3   9
ATOM      9  C   UNL     1       3.223   3.069  17.103  0.00  0.00    +0.000 C 
ATOM     10  O   UNL     1       2.018   3.140  16.863  0.00  0.00    +0.000 OA
BRANCH   9  11
ATOM     11  C   UNL     1       3.869   1.776  17.615  0.00  0.00    +0.000 C 
BRANCH  11  12
ATOM     12  O   UNL     1       3.521   1.334  18.929  0.00  0.00    +0.000 OA
BRANCH  12  13
ATOM     13  C   UNL     1       3.938   2.132  19.953  0.00  0.00    +0.000 C 
ATOM     14  O   UNL     1       5.042   2.044  20.477  0.00  0.00    +0.000 OA
BRANCH  13  15
ATOM     15  C   UNL     1       2.944   3.142  20.290  0.00  0.00    +0.000 A 
ATOM     16  C   UNL     1       3.182   4.479  20.550  0.00  0.00    +0.000 A 
ATOM     17  C   UNL     1       1.984   5.236  20.708  0.00  0.00    +0.000 A 
ATOM     18  C   UNL     1       0.864   4.446  20.598  0.00  0.00    +0.000 A 
ATOM     19  S   UNL     1       1.270   2.795  20.437  0.00  0.00    +0.000 S 
ENDBRANCH  13  15
ENDBRANCH  12  13
ENDBRANCH  11  12
ENDBRANCH   9  11
ENDBRANCH   3   9
BRANCH   5  20
ATOM     20  O   UNL     1       7.323   4.967  15.570  0.00  0.00    +0.000 OA
ATOM     21  C   UNL     1       7.315   4.747  14.167  0.00  0.00    +0.000 C 
ENDBRANCH   5  20
BRANCH   6  22
ATOM     22  O   UNL     1       6.674   7.557  16.642  0.00  0.00    +0.000 OA
ATOM     23  C   UNL     1       7.691   7.768  17.605  0.00  0.00    +0.000 C 
ENDBRANCH   6  22
TORSDOF 8
ENDMDL
MODEL 2
REMARK VINA RESULT:      -6.4      2.723      6.423
REMARK  Name = 
REMARK  11 active torsions:
REMARK  status: ('A' for Active; 'I' for Inactive)
REMARK    1  A    between atoms: C_1  and  O_2
REMARK    2  A    between atoms: O_2  and  C_3
REMARK    3  A    between atoms: C_5  and  C_6
REMARK    4  A    between atoms: C_6  and  C_8
REMARK    5  A    between atoms: C_8  and  O_9
REMARK    6  A    between atoms: O_9  and  C_10
REMARK    7  A    between atoms: C_10  and  C_12
REMARK    8  A    between atoms: C_18  and  O_19
REMARK    9  A    between atoms: O_19  and  C_20
REMARK   10  A    between atoms: C_21  and  O_22
REMARK   11  A    between atoms: O_22  and  C_23
REMARK                            x       y       z     vdW  Elec       q    Type
REMARK                         _______ _______ _______ _____ _____    ______ ____
ROOT
ATOM      1  C   UNL     1       2.593   3.861  18.357  0.00  0.00    +0.000 A 
ATOM      2  C   UNL     1       3.440   4.571  17.488  0.00  0.00    +0.000 A 
ATOM      3  C   UNL     1       3.790   5.886  17.763  0.00  0.00    +0.000 A 
ATOM      4  C   UNL     1       3.185   6.542  18.831  0.00  0.00    +0.000 A 
ATOM      5  C   UNL     1       2.268   5.874  19.664  0.00  0.00    +0.000 A 
ATOM      6  C   UNL     1       1.966   4.513  19.439  0.00  0.00    +0.000 A 
ENDROOT
BRANCH   1   8
ATOM      7  C   UNL     1       3.531   1.711  18.131  0.00  0.00    +0.000 C 
ATOM      8  O   UNL     1       2.359   2.530  18.110  0.00  0.00    +0.000 OA
ENDBRANCH   1   8
BRANCH   3   9
ATOM      9  C   UNL     1       4.815   6.598  16.956  0.00  0.00    +0.000 C 
ATOM     10  O   UNL     1       4.482   7.109  15.886  0.00  0.00    +0.000 OA
BRANCH   9  11
ATOM     11  C   UNL     1       6.266   6.630  17.448  0.00  0.00    +0.000 C 
BRANCH  11  12
ATOM     12  O   UNL     1       7.294   6.305  16.510  0.00  0.00    +0.000 OA
BRANCH  12  13
ATOM     13  C   UNL     1       7.513   4.974  16.306  0.00  0.00    +0.000 C 
ATOM     14  O   UNL     1       8.017   4.233  17.141  0.00  0.00    +0.000 OA
BRANCH  13  15
ATOM     15  C   UNL     1       7.006   4.535  15.013  0.00  0.00    +0.000 A 
ATOM     16  C   UNL     1       5.905   3.728  14.790  0.00  0.00    +0.000 A 
ATOM     17  C   UNL     1       5.586   3.598  13.406  0.00  0.00    +0.000 A 
ATOM     18  C   UNL     1       6.475   4.281  12.610  0.00  0.00    +0.000 A 
ATOM     19  S   UNL     1       7.747   4.959  13.525  0.00  0.00    +0.000 S 
ENDBRANCH  13  15
ENDBRANCH  12  13
ENDBRANCH  11  12
ENDBRANCH   9  11
ENDBRANCH   3   9
BRANCH   5  20
ATOM     20  O   UNL     1       1.799   6.706  20.651  0.00  0.00    +0.000 OA
ATOM     21  C   UNL     1       1.576   8.079  20.369  0.00  0.00    +0.000 C 
ENDBRANCH   5  20
BRANCH   6  22
ATOM     22  O   UNL     1       1.081   3.941  20.311  0.00  0.00    +0.000 OA
ATOM     23  C   UNL     1       1.518   3.077  21.346  0.00  0.00    +0.000 C 
ENDBRANCH   6  22
TORSDOF 8
ENDMDL
MODEL 3
REMARK VINA RESULT:      -6.4      2.811      6.159
REMARK  Name = 
REMARK  11 active torsions:
REMARK  status: ('A' for Active; 'I' for Inactive)
REMARK    1  A    between atoms: C_1  and  O_2
REMARK    2  A    between atoms: O_2  and  C_3
REMARK    3  A    between atoms: C_5  and  C_6
REMARK    4  A    between atoms: C_6  and  C_8
REMARK    5  A    between atoms: C_8  and  O_9
REMARK    6  A    between atoms: O_9  and  C_10
REMARK    7  A    between atoms: C_10  and  C_12
REMARK    8  A    between atoms: C_18  and  O_19
REMARK    9  A    between atoms: O_19  and  C_20
REMARK   10  A    between atoms: C_21  and  O_22
REMARK   11  A    between atoms: O_22  and  C_23
REMARK                            x       y       z     vdW  Elec       q    Type
REMARK                         _______ _______ _______ _____ _____    ______ ____
ROOT
ATOM      1  C   UNL     1       3.086   5.700  18.862  0.00  0.00    +0.000 A 
ATOM      2  C   UNL     1       4.449   6.024  18.974  0.00  0.00    +0.000 A 
ATOM      3  C   UNL     1       5.403   5.023  19.115  0.00  0.00    +0.000 A 
ATOM      4  C   UNL     1       4.985   3.707  19.285  0.00  0.00    +0.000 A 
ATOM      5  C   UNL     1       3.620   3.371  19.260  0.00  0.00    +0.000 A 
ATOM      6  C   UNL     1       2.647   4.371  19.038  0.00  0.00    +0.000 A 
ENDROOT
BRANCH   1   8
ATOM      7  C   UNL     1       2.746   7.851  17.962  0.00  0.00    +0.000 C 
ATOM      8  O   UNL     1       2.186   6.708  18.612  0.00  0.00    +0.000 OA
ENDBRANCH   1   8
BRANCH   3   9
ATOM      9  C   UNL     1       6.856   5.329  19.063  0.00  0.00    +0.000 C 
ATOM     10  O   UNL     1       7.462   5.526  20.116  0.00  0.00    +0.000 OA
BRANCH   9  11
ATOM     11  C   UNL     1       7.549   5.442  17.700  0.00  0.00    +0.000 C 
BRANCH  11  12
ATOM     12  O   UNL     1       7.028   4.661  16.622  0.00  0.00    +0.000 OA
BRANCH  12  13
ATOM     13  C   UNL     1       6.380   5.356  15.645  0.00  0.00    +0.000 C 
ATOM     14  O   UNL     1       5.815   6.428  15.834  0.00  0.00    +0.000 OA
BRANCH  13  15
ATOM     15  C   UNL     1       6.507   4.710  14.346  0.00  0.00    +0.000 A 
ATOM     16  C   UNL     1       5.673   3.739  13.823  0.00  0.00    +0.000 A 
ATOM     17  C   UNL     1       5.983   3.413  12.469  0.00  0.00    +0.000 A 
ATOM     18  C   UNL     1       7.069   4.120  12.010  0.00  0.00    +0.000 A 
ATOM     19  S   UNL     1       7.774   5.066  13.245  0.00  0.00    +0.000 S 
ENDBRANCH  13  15
ENDBRANCH  12  13
ENDBRANCH  11  12
ENDBRANCH   9  11
ENDBRANCH   3   9
BRANCH   5  20
ATOM     20  O   UNL     1       3.437   2.022  19.444  0.00  0.00    +0.000 OA
ATOM     21  C   UNL     1       3.815   1.114  18.421  0.00  0.00    +0.000 C 
ENDBRANCH   5  20
BRANCH   6  22
ATOM     22  O   UNL     1       1.346   3.950  19.011  0.00  0.00    +0.000 OA
ATOM     23  C   UNL     1       0.616   3.732  20.205  0.00  0.00    +0.000 C 
ENDBRANCH   6  22
TORSDOF 8
ENDMDL
MODEL 4
REMARK VINA RESULT:      -6.3      3.648      6.262
REMARK  Name = 
REMARK  11 active torsions:
REMARK  status: ('A' for Active; 'I' for Inactive)
REMARK    1  A    between atoms: C_1  and  O_2
REMARK    2  A    between atoms: O_2  and  C_3
REMARK    3  A    between atoms: C_5  and  C_6
REMARK    4  A    between atoms: C_6  and  C_8
REMARK    5  A    between atoms: C_8  and  O_9
REMARK    6  A    between atoms: O_9  and  C_10
REMARK    7  A    between atoms: C_10  and  C_12
REMARK    8  A    between atoms: C_18  and  O_19
REMARK    9  A    between atoms: O_19  and  C_20
REMARK   10  A    between atoms: C_21  and  O_22
REMARK   11  A    between atoms: O_22  and  C_23
REMARK                            x       y       z     vdW  Elec       q    Type
REMARK                         _______ _______ _______ _____ _____    ______ ____
ROOT
ATOM      1  C   UNL     1       5.610   6.387  16.886  0.00  0.00    +0.000 A 
ATOM      2  C   UNL     1       4.644   7.279  17.381  0.00  0.00    +0.000 A 
ATOM      3  C   UNL     1       3.444   6.807  17.896  0.00  0.00    +0.000 A 
ATOM      4  C   UNL     1       3.146   5.451  17.790  0.00  0.00    +0.000 A 
ATOM      5  C   UNL     1       4.065   4.551  17.221  0.00  0.00    +0.000 A 
ATOM      6  C   UNL     1       5.321   5.011  16.766  0.00  0.00    +0.000 A 
ENDROOT
BRANCH   1   8
ATOM      7  C   UNL     1       7.615   7.433  17.549  0.00  0.00    +0.000 C 
ATOM      8  O   UNL     1       6.828   6.884  16.489  0.00  0.00    +0.000 OA
ENDBRANCH   1   8
BRANCH   3   9
ATOM      9  C   UNL     1       2.485   7.714  18.578  0.00  0.00    +0.000 C 
ATOM     10  O   UNL     1       2.000   7.368  19.655  0.00  0.00    +0.000 OA
BRANCH   9  11
ATOM     11  C   UNL     1       2.085   9.028  17.899  0.00  0.00    +0.000 C 
BRANCH  11  12
ATOM     12  O   UNL     1       0.693   9.271  17.686  0.00  0.00    +0.000 OA
BRANCH  12  13
ATOM     13  C   UNL     1       0.114  10.176  18.525  0.00  0.00    +0.000 C 
ATOM     14  O   UNL     1       0.689  10.680  19.483  0.00  0.00    +0.000 OA
BRANCH  13  15
ATOM     15  C   UNL     1      -1.235  10.524  18.098  0.00  0.00    +0.000 A 
ATOM     16  C   UNL     1      -1.970   9.906  17.104  0.00  0.00    +0.000 A 
ATOM     17  C   UNL     1      -3.310  10.388  17.024  0.00  0.00    +0.000 A 
ATOM     18  C   UNL     1      -3.548  11.386  17.939  0.00  0.00    +0.000 A 
ATOM     19  S   UNL     1      -2.130  11.816  18.788  0.00  0.00    +0.000 S 
ENDBRANCH  13  15
ENDBRANCH  12  13
ENDBRANCH  11  12
ENDBRANCH   9  11
ENDBRANCH   3   9
BRANCH   5  20
ATOM     20  O   UNL     1       3.569   3.270  17.220  0.00  0.00    +0.000 OA
ATOM     21  C   UNL     1       2.770   2.823  18.305  0.00  0.00    +0.000 C 
ENDBRANCH   5  20
BRANCH   6  22
ATOM     22  O   UNL     1       6.158   4.063  16.246  0.00  0.00    +0.000 OA
ATOM     23  C   UNL     1       6.202   3.802  14.854  0.00  0.00    +0.000 C 
ENDBRANCH   6  22
TORSDOF 8
ENDMDL
MODEL 5
REMARK VINA RESULT:      -6.3      2.109      3.505
REMARK  Name = 
REMARK  11 active torsions:
REMARK  status: ('A' for Active; 'I' for Inactive)
REMARK    1  A    between atoms: C_1  and  O_2
REMARK    2  A    between atoms: O_2  and  C_3
REMARK    3  A    between atoms: C_5  and  C_6
REMARK    4  A    between atoms: C_6  and  C_8
REMARK    5  A    between atoms: C_8  and  O_9
REMARK    6  A    between atoms: O_9  and  C_10
REMARK    7  A    between atoms: C_10  and  C_12
REMARK    8  A    between atoms: C_18  and  O_19
REMARK    9  A    between atoms: O_19  and  C_20
REMARK   10  A    between atoms: C_21  and  O_22
REMARK   11  A    between atoms: O_22  and  C_23
REMARK                            x       y       z     vdW  Elec       q    Type
REMARK                         _______ _______ _______ _____ _____    ______ ____
ROOT
ATOM      1  C   UNL     1       6.920   5.752  16.098  0.00  0.00    +0.000 A 
ATOM      2  C   UNL     1       5.824   5.400  16.903  0.00  0.00    +0.000 A 
ATOM      3  C   UNL     1       5.001   4.338  16.550  0.00  0.00    +0.000 A 
ATOM      4  C   UNL     1       5.188   3.714  15.320  0.00  0.00    +0.000 A 
ATOM      5  C   UNL     1       6.229   4.107  14.460  0.00  0.00    +0.000 A 
ATOM      6  C   UNL     1       7.119   5.134  14.846  0.00  0.00    +0.000 A 
ENDROOT
BRANCH   1   8
ATOM      7  C   UNL     1       7.462   7.252  17.833  0.00  0.00    +0.000 C 
ATOM      8  O   UNL     1       7.774   6.734  16.537  0.00  0.00    +0.000 OA
ENDBRANCH   1   8
BRANCH   3   9
ATOM      9  C   UNL     1       3.944   3.841  17.468  0.00  0.00    +0.000 C 
ATOM     10  O   UNL     1       2.869   3.471  16.996  0.00  0.00    +0.000 OA
BRANCH   9  11
ATOM     11  C   UNL     1       4.200   3.852  18.980  0.00  0.00    +0.000 C 
BRANCH  11  12
ATOM     12  O   UNL     1       4.027   5.090  19.674  0.00  0.00    +0.000 OA
BRANCH  12  13
ATOM     13  C   UNL     1       2.737   5.473  19.891  0.00  0.00    +0.000 C 
ATOM     14  O   UNL     1       1.927   4.808  20.526  0.00  0.00    +0.000 OA
BRANCH  13  15
ATOM     15  C   UNL     1       2.467   6.796  19.342  0.00  0.00    +0.000 A 
ATOM     16  C   UNL     1       2.796   7.247  18.077  0.00  0.00    +0.000 A 
ATOM     17  C   UNL     1       2.268   8.541  17.795  0.00  0.00    +0.000 A 
ATOM     18  C   UNL     1       1.579   9.056  18.868  0.00  0.00    +0.000 A 
ATOM     19  S   UNL     1       1.686   8.037  20.234  0.00  0.00    +0.000 S 
ENDBRANCH  13  15
ENDBRANCH  12  13
ENDBRANCH  11  12
ENDBRANCH   9  11
ENDBRANCH   3   9
BRANCH   5  20
ATOM     20  O   UNL     1       6.229   3.359  13.308  0.00  0.00    +0.000 OA
ATOM     21  C   UNL     1       5.087   3.361  12.465  0.00  0.00    +0.000 C 
ENDBRANCH   5  20
BRANCH   6  22
ATOM     22  O   UNL     1       8.113   5.436  13.956  0.00  0.00    +0.000 OA
ATOM     23  C   UNL     1       7.821   5.755  12.606  0.00  0.00    +0.000 C 
ENDBRANCH   6  22
TORSDOF 8
ENDMDL
MODEL 6
REMARK VINA RESULT:      -6.2      3.703      6.258
REMARK  Name = 
REMARK  11 active torsions:
REMARK  status: ('A' for Active; 'I' for Inactive)
REMARK    1  A    between atoms: C_1  and  O_2
REMARK    2  A    between atoms: O_2  and  C_3
REMARK    3  A    between atoms: C_5  and  C_6
REMARK    4  A    between atoms: C_6  and  C_8
REMARK    5  A    between atoms: C_8  and  O_9
REMARK    6  A    between atoms: O_9  and  C_10
REMARK    7  A    between atoms: C_10  and  C_12
REMARK    8  A    between atoms: C_18  and  O_19
REMARK    9  A    between atoms: O_19  and  C_20
REMARK   10  A    between atoms: C_21  and  O_22
REMARK   11  A    between atoms: O_22  and  C_23
REMARK                            x       y       z     vdW  Elec       q    Type
REMARK                         _______ _______ _______ _____ _____    ______ ____
ROOT
ATOM      1  C   UNL     1       3.647   4.516  17.184  0.00  0.00    +0.000 A 
ATOM      2  C   UNL     1       2.877   5.403  17.955  0.00  0.00    +0.000 A 
ATOM      3  C   UNL     1       3.259   6.731  18.095  0.00  0.00    +0.000 A 
ATOM      4  C   UNL     1       4.485   7.143  17.582  0.00  0.00    +0.000 A 
ATOM      5  C   UNL     1       5.313   6.248  16.879  0.00  0.00    +0.000 A 
ATOM      6  C   UNL     1       4.895   4.916  16.663  0.00  0.00    +0.000 A 
ENDROOT
BRANCH   1   8
ATOM      7  C   UNL     1       3.534   2.309  18.002  0.00  0.00    +0.000 C 
ATOM      8  O   UNL     1       3.179   3.241  16.978  0.00  0.00    +0.000 OA
ENDBRANCH   1   8
BRANCH   3   9
ATOM      9  C   UNL     1       2.374   7.723  18.759  0.00  0.00    +0.000 C 
ATOM     10  O   UNL     1       1.973   7.496  19.900  0.00  0.00    +0.000 OA
BRANCH   9  11
ATOM     11  C   UNL     1       1.943   8.976  17.987  0.00  0.00    +0.000 C 
BRANCH  11  12
ATOM     12  O   UNL     1       0.541   9.212  17.834  0.00  0.00    +0.000 OA
BRANCH  12  13
ATOM     13  C   UNL     1       0.049  10.302  18.488  0.00  0.00    +0.000 C 
ATOM     14  O   UNL     1       0.709  10.985  19.263  0.00  0.00    +0.000 OA
BRANCH  13  15
ATOM     15  C   UNL     1      -1.323  10.595  18.095  0.00  0.00    +0.000 A 
ATOM     16  C   UNL     1      -2.042   9.978  17.088  0.00  0.00    +0.000 A 
ATOM     17  C   UNL     1      -3.406  10.392  17.047  0.00  0.00    +0.000 A 
ATOM     18  C   UNL     1      -3.680  11.340  18.004  0.00  0.00    +0.000 A 
ATOM     19  S   UNL     1      -2.272  11.810  18.848  0.00  0.00    +0.000 S 
ENDBRANCH  13  15
ENDBRANCH  12  13
ENDBRANCH  11  12
ENDBRANCH   9  11
ENDBRANCH   3   9
BRANCH   5  20
ATOM     20  O   UNL     1       6.467   6.864  16.462  0.00  0.00    +0.000 OA
ATOM     21  C   UNL     1       7.484   7.169  17.405  0.00  0.00    +0.000 C 
ENDBRANCH   5  20
BRANCH   6  22
ATOM     22  O   UNL     1       5.755   4.123  15.953  0.00  0.00    +0.000 OA
ATOM     23  C   UNL     1       5.884   4.250  14.547  0.00  0.00    +0.000 C 
ENDBRANCH   6  22
TORSDOF 8
ENDMDL
MODEL 7
REMARK VINA RESULT:      -6.2      2.232      3.211
REMARK  Name = 
REMARK  11 active torsions:
REMARK  status: ('A' for Active; 'I' for Inactive)
REMARK    1  A    between atoms: C_1  and  O_2
REMARK    2  A    between atoms: O_2  and  C_3
REMARK    3  A    between atoms: C_5  and  C_6
REMARK    4  A    between atoms: C_6  and  C_8
REMARK    5  A    between atoms: C_8  and  O_9
REMARK    6  A    between atoms: O_9  and  C_10
REMARK    7  A    between atoms: C_10  and  C_12
REMARK    8  A    between atoms: C_18  and  O_19
REMARK    9  A    between atoms: O_19  and  C_20
REMARK   10  A    between atoms: C_21  and  O_22
REMARK   11  A    between atoms: O_22  and  C_23
REMARK                            x       y       z     vdW  Elec       q    Type
REMARK                         _______ _______ _______ _____ _____    ______ ____
ROOT
ATOM      1  C   UNL     1       6.405   5.258  18.907  0.00  0.00    +0.000 A 
ATOM      2  C   UNL     1       5.308   4.403  19.107  0.00  0.00    +0.000 A 
ATOM      3  C   UNL     1       4.592   3.907  18.025  0.00  0.00    +0.000 A 
ATOM      4  C   UNL     1       4.882   4.376  16.747  0.00  0.00    +0.000 A 
ATOM      5  C   UNL     1       5.922   5.298  16.533  0.00  0.00    +0.000 A 
ATOM      6  C   UNL     1       6.707   5.746  17.618  0.00  0.00    +0.000 A 
ENDROOT
BRANCH   1   8
ATOM      7  C   UNL     1       8.528   5.245  19.927  0.00  0.00    +0.000 C 
ATOM      8  O   UNL     1       7.155   5.637  19.993  0.00  0.00    +0.000 OA
ENDBRANCH   1   8
BRANCH   3   9
ATOM      9  C   UNL     1       3.541   2.872  18.202  0.00  0.00    +0.000 C 
ATOM     10  O   UNL     1       3.574   1.862  17.499  0.00  0.00    +0.000 OA
BRANCH   9  11
ATOM     11  C   UNL     1       2.417   3.112  19.216  0.00  0.00    +0.000 C 
BRANCH  11  12
ATOM     12  O   UNL     1       1.709   4.352  19.143  0.00  0.00    +0.000 OA
BRANCH  12  13
ATOM     13  C   UNL     1       2.026   5.274  20.096  0.00  0.00    +0.000 C 
ATOM     14  O   UNL     1       2.294   4.987  21.257  0.00  0.00    +0.000 OA
BRANCH  13  15
ATOM     15  C   UNL     1       2.082   6.622  19.547  0.00  0.00    +0.000 A 
ATOM     16  C   UNL     1       2.561   6.986  18.302  0.00  0.00    +0.000 A 
ATOM     17  C   UNL     1       2.346   8.365  18.007  0.00  0.00    +0.000 A 
ATOM     18  C   UNL     1       1.740   9.022  19.052  0.00  0.00    +0.000 A 
ATOM     19  S   UNL     1       1.556   8.007  20.413  0.00  0.00    +0.000 S 
ENDBRANCH  13  15
ENDBRANCH  12  13
ENDBRANCH  11  12
ENDBRANCH   9  11
ENDBRANCH   3   9
BRANCH   5  20
ATOM     20  O   UNL     1       6.034   5.619  15.202  0.00  0.00    +0.000 OA
ATOM     21  C   UNL     1       6.728   4.747  14.322  0.00  0.00    +0.000 C 
ENDBRANCH   5  20
BRANCH   6  22
ATOM     22  O   UNL     1       7.709   6.626  17.314  0.00  0.00    +0.000 OA
ATOM     23  C   UNL     1       7.537   8.024  17.472  0.00  0.00    +0.000 C 
ENDBRANCH   6  22
TORSDOF 8
ENDMDL
MODEL 8
REMARK VINA RESULT:      -6.2      2.845      6.624
REMARK  Name = 
REMARK  11 active torsions:
REMARK  status: ('A' for Active; 'I' for Inactive)
REMARK    1  A    between atoms: C_1  and  O_2
REMARK    2  A    between atoms: O_2  and  C_3
REMARK    3  A    between atoms: C_5  and  C_6
REMARK    4  A    between atoms: C_6  and  C_8
REMARK    5  A    between atoms: C_8  and  O_9
REMARK    6  A    between atoms: O_9  and  C_10
REMARK    7  A    between atoms: C_10  and  C_12
REMARK    8  A    between atoms: C_18  and  O_19
REMARK    9  A    between atoms: O_19  and  C_20
REMARK   10  A    between atoms: C_21  and  O_22
REMARK   11  A    between atoms: O_22  and  C_23
REMARK                            x       y       z     vdW  Elec       q    Type
REMARK                         _______ _______ _______ _____ _____    ______ ____
ROOT
ATOM      1  C   UNL     1       3.521   3.133  18.641  0.00  0.00    +0.000 A 
ATOM      2  C   UNL     1       4.859   3.411  18.313  0.00  0.00    +0.000 A 
ATOM      3  C   UNL     1       5.408   4.658  18.580  0.00  0.00    +0.000 A 
ATOM      4  C   UNL     1       4.582   5.677  19.048  0.00  0.00    +0.000 A 
ATOM      5  C   UNL     1       3.219   5.444  19.303  0.00  0.00    +0.000 A 
ATOM      6  C   UNL     1       2.671   4.156  19.109  0.00  0.00    +0.000 A 
ENDROOT
BRANCH   1   8
ATOM      7  C   UNL     1       3.935   0.830  18.918  0.00  0.00    +0.000 C 
ATOM      8  O   UNL     1       3.048   1.856  18.464  0.00  0.00    +0.000 OA
ENDBRANCH   1   8
BRANCH   3   9
ATOM      9  C   UNL     1       6.859   4.919  18.401  0.00  0.00    +0.000 C 
ATOM     10  O   UNL     1       7.501   5.393  19.338  0.00  0.00    +0.000 OA
BRANCH   9  11
ATOM     11  C   UNL     1       7.507   4.641  17.039  0.00  0.00    +0.000 C 
BRANCH  11  12
ATOM     12  O   UNL     1       7.477   5.685  16.063  0.00  0.00    +0.000 OA
BRANCH  12  13
ATOM     13  C   UNL     1       6.367   5.725  15.272  0.00  0.00    +0.000 C 
ATOM     14  O   UNL     1       5.402   6.448  15.491  0.00  0.00    +0.000 OA
BRANCH  13  15
ATOM     15  C   UNL     1       6.504   4.866  14.104  0.00  0.00    +0.000 A 
ATOM     16  C   UNL     1       5.631   3.871  13.705  0.00  0.00    +0.000 A 
ATOM     17  C   UNL     1       5.973   3.307  12.440  0.00  0.00    +0.000 A 
ATOM     18  C   UNL     1       7.119   3.865  11.926  0.00  0.00    +0.000 A 
ATOM     19  S   UNL     1       7.834   4.961  13.024  0.00  0.00    +0.000 S 
ENDBRANCH  13  15
ENDBRANCH  12  13
ENDBRANCH  11  12
ENDBRANCH   9  11
ENDBRANCH   3   9
BRANCH   5  20
ATOM     20  O   UNL     1       2.599   6.581  19.759  0.00  0.00    +0.000 OA
ATOM     21  C   UNL     1       2.310   7.637  18.855  0.00  0.00    +0.000 C 
ENDBRANCH   5  20
BRANCH   6  22
ATOM     22  O   UNL     1       1.342   4.018  19.402  0.00  0.00    +0.000 OA
ATOM     23  C   UNL     1       0.912   3.447  20.626  0.00  0.00    +0.000 C 
ENDBRANCH   6  22
TORSDOF 8
ENDMDL
MODEL 9
REMARK VINA RESULT:      -6.2      3.459      5.748
REMARK  Name = 
REMARK  11 active torsions:
REMARK  status: ('A' for Active; 'I' for Inactive)
REMARK    1  A    between atoms: C_1  and  O_2
REMARK    2  A    between atoms: O_2  and  C_3
REMARK    3  A    between atoms: C_5  and  C_6
REMARK    4  A    between atoms: C_6  and  C_8
REMARK    5  A    between atoms: C_8  and  O_9
REMARK    6  A    between atoms: O_9  and  C_10
REMARK    7  A    between atoms: C_10  and  C_12
REMARK    8  A    between atoms: C_18  and  O_19
REMARK    9  A    between atoms: O_19  and  C_20
REMARK   10  A    between atoms: C_21  and  O_22
REMARK   11  A    between atoms: O_22  and  C_23
REMARK                            x       y       z     vdW  Elec       q    Type
REMARK                         _______ _______ _______ _____ _____    ______ ____
ROOT
ATOM      1  C   UNL     1       5.428   6.264  16.913  0.00  0.00    +0.000 A 
ATOM      2  C   UNL     1       4.429   7.045  17.519  0.00  0.00    +0.000 A 
ATOM      3  C   UNL     1       3.376   6.443  18.196  0.00  0.00    +0.000 A 
ATOM      4  C   UNL     1       3.242   5.059  18.149  0.00  0.00    +0.000 A 
ATOM      5  C   UNL     1       4.185   4.262  17.475  0.00  0.00    +0.000 A 
ATOM      6  C   UNL     1       5.303   4.861  16.852  0.00  0.00    +0.000 A 
ENDROOT
BRANCH   1   8
ATOM      7  C   UNL     1       7.544   7.233  17.278  0.00  0.00    +0.000 C 
ATOM      8  O   UNL     1       6.510   6.896  16.350  0.00  0.00    +0.000 OA
ENDBRANCH   1   8
BRANCH   3   9
ATOM      9  C   UNL     1       2.407   7.245  18.987  0.00  0.00    +0.000 C 
ATOM     10  O   UNL     1       1.938   6.766  20.019  0.00  0.00    +0.000 OA
BRANCH   9  11
ATOM     11  C   UNL     1       1.977   8.622  18.469  0.00  0.00    +0.000 C 
BRANCH  11  12
ATOM     12  O   UNL     1       0.745   9.161  18.955  0.00  0.00    +0.000 OA
BRANCH  12  13
ATOM     13  C   UNL     1       0.835  10.359  19.599  0.00  0.00    +0.000 C 
ATOM     14  O   UNL     1       1.331  11.363  19.101  0.00  0.00    +0.000 OA
BRANCH  13  15
ATOM     15  C   UNL     1       0.205  10.317  20.912  0.00  0.00    +0.000 A 
ATOM     16  C   UNL     1       0.364   9.335  21.872  0.00  0.00    +0.000 A 
ATOM     17  C   UNL     1      -0.275   9.656  23.105  0.00  0.00    +0.000 A 
ATOM     18  C   UNL     1      -0.935  10.861  23.039  0.00  0.00    +0.000 A 
ATOM     19  S   UNL     1      -0.883  11.523  21.466  0.00  0.00    +0.000 S 
ENDBRANCH  13  15
ENDBRANCH  12  13
ENDBRANCH  11  12
ENDBRANCH   9  11
ENDBRANCH   3   9
BRANCH   5  20
ATOM     20  O   UNL     1       3.859   2.931  17.559  0.00  0.00    +0.000 OA
ATOM     21  C   UNL     1       2.498   2.532  17.501  0.00  0.00    +0.000 C 
ENDBRANCH   5  20
BRANCH   6  22
ATOM     22  O   UNL     1       6.178   4.007  16.238  0.00  0.00    +0.000 OA
ATOM     23  C   UNL     1       6.203   3.865  14.828  0.00  0.00    +0.000 C 
ENDBRANCH   6  22
TORSDOF 8
ENDMDL
