MODEL 1
REMARK VINA RESULT:      -7.4      0.000      0.000
REMARK  Name = 
REMARK  6 active torsions:
REMARK  status: ('A' for Active; 'I' for Inactive)
REMARK    1  A    between atoms: C_1  and  C_2
REMARK    2  A    between atoms: C_7  and  C_8
REMARK    3  A    between atoms: N_12  and  C_13
REMARK    4  A    between atoms: C_13  and  C_14
REMARK    5  A    between atoms: C_14  and  N_15
REMARK    6  A    between atoms: N_18  and  C_19
REMARK                            x       y       z     vdW  Elec       q    Type
REMARK                         _______ _______ _______ _____ _____    ______ ____
ROOT
ATOM      1  C   UNL     1       0.899   9.926  18.236  0.00  0.00    +0.000 C 
ENDROOT
BRANCH   1   6
ATOM      2  C   UNL     1       3.029   6.958  19.084  0.00  0.00    +0.000 C 
ATOM      3  C   UNL     1       2.188   7.114  20.353  0.00  0.00    +0.000 C 
ATOM      4  C   UNL     1       1.356   8.339  20.104  0.00  0.00    +0.000 C 
ATOM      5  O   UNL     1       0.604   8.835  20.931  0.00  0.00    +0.000 OA
ATOM      6  N   UNL     1       1.580   8.789  18.838  0.00  0.00    +0.000 N 
ATOM      7  C   UNL     1       2.566   8.093  18.200  0.00  0.00    +0.000 C 
ATOM      8  O   UNL     1       3.020   8.356  17.092  0.00  0.00    +0.000 OA
BRANCH   2  15
ATOM      9  C   UNL     1       5.256   5.711  17.436  0.00  0.00    +0.000 C 
ATOM     10  C   UNL     1       3.931   5.028  17.645  0.00  0.00    +0.000 A 
ATOM     11  C   UNL     1       3.729   3.776  17.036  0.00  0.00    +0.000 A 
ATOM     12  C   UNL     1       2.529   3.085  17.187  0.00  0.00    +0.000 A 
ATOM     13  C   UNL     1       1.506   3.640  17.945  0.00  0.00    +0.000 A 
ATOM     14  C   UNL     1       1.685   4.883  18.551  0.00  0.00    +0.000 A 
ATOM     15  C   UNL     1       2.893   5.598  18.416  0.00  0.00    +0.000 A 
ENDBRANCH   2  15
ENDBRANCH   1   6
BRANCH   1  16
ATOM     16  C   UNL     1       1.360  11.271  18.830  0.00  0.00    +0.000 C 
BRANCH  16  17
ATOM     17  N   UNL     1       0.396  12.380  18.688  0.00  0.00    +0.000 NA
ATOM     18  C   UNL     1      -1.002  11.866  18.721  0.00  0.00    +0.000 C 
ATOM     19  C   UNL     1      -1.469  11.360  20.107  0.00  0.00    +0.000 C 
ATOM     20  N   UNL     1      -1.295  12.414  21.116  0.00  0.00    +0.000 N 
ATOM     21  C   UNL     1       0.036  13.035  21.163  0.00  0.00    +0.000 C 
ATOM     22  C   UNL     1       0.509  13.424  19.737  0.00  0.00    +0.000 C 
BRANCH  20  23
ATOM     23  C   UNL     1      -2.321  12.810  21.957  0.00  0.00    +0.000 A 
ATOM     24  C   UNL     1      -3.099  13.946  21.664  0.00  0.00    +0.000 A 
ATOM     25  C   UNL     1      -4.152  14.360  22.490  0.00  0.00    +0.000 A 
ATOM     26  C   UNL     1      -4.460  13.647  23.644  0.00  0.00    +0.000 A 
ATOM     27  C   UNL     1      -3.713  12.522  23.967  0.00  0.00    +0.000 A 
ATOM     28  C   UNL     1      -2.668  12.116  23.134  0.00  0.00    +0.000 A 
ATOM     29  F   UNL     1      -2.031  10.983  23.474  0.00  0.00    +0.000 F 
ENDBRANCH  20  23
ENDBRANCH  16  17
ENDBRANCH   1  16
TORSDOF 5
ENDMDL
MODEL 2
REMARK VINA RESULT:      -7.3      2.667      3.034
REMARK  Name = 
REMARK  6 active torsions:
REMARK  status: ('A' for Active; 'I' for Inactive)
REMARK    1  A    between atoms: C_1  and  C_2
REMARK    2  A    between atoms: C_7  and  C_8
REMARK    3  A    between atoms: N_12  and  C_13
REMARK    4  A    between atoms: C_13  and  C_14
REMARK    5  A    between atoms: C_14  and  N_15
REMARK    6  A    between atoms: N_18  and  C_19
REMARK                            x       y       z     vdW  Elec       q    Type
REMARK                         _______ _______ _______ _____ _____    ______ ____
ROOT
ATOM      1  C   UNL     1       1.102   9.742  18.353  0.00  0.00    +0.000 C 
ENDROOT
BRANCH   1   6
ATOM      2  C   UNL     1       2.954   6.651  19.391  0.00  0.00    +0.000 C 
ATOM      3  C   UNL     1       2.020   6.871  20.582  0.00  0.00    +0.000 C 
ATOM      4  C   UNL     1       1.293   8.145  20.258  0.00  0.00    +0.000 C 
ATOM      5  O   UNL     1       0.507   8.695  21.015  0.00  0.00    +0.000 OA
ATOM      6  N   UNL     1       1.653   8.569  19.015  0.00  0.00    +0.000 N 
ATOM      7  C   UNL     1       2.643   7.805  18.466  0.00  0.00    +0.000 C 
ATOM      8  O   UNL     1       3.207   8.030  17.401  0.00  0.00    +0.000 OA
BRANCH   2  15
ATOM      9  C   UNL     1       5.215   5.274  17.899  0.00  0.00    +0.000 C 
ATOM     10  C   UNL     1       3.843   4.666  18.019  0.00  0.00    +0.000 A 
ATOM     11  C   UNL     1       3.614   3.424  17.400  0.00  0.00    +0.000 A 
ATOM     12  C   UNL     1       2.370   2.801  17.471  0.00  0.00    +0.000 A 
ATOM     13  C   UNL     1       1.330   3.415  18.158  0.00  0.00    +0.000 A 
ATOM     14  C   UNL     1       1.536   4.650  18.772  0.00  0.00    +0.000 A 
ATOM     15  C   UNL     1       2.789   5.297  18.717  0.00  0.00    +0.000 A 
ENDBRANCH   2  15
ENDBRANCH   1   6
BRANCH   1  16
ATOM     16  C   UNL     1      -0.438   9.751  18.355  0.00  0.00    +0.000 C 
BRANCH  16  17
ATOM     17  N   UNL     1      -1.059  10.688  17.397  0.00  0.00    +0.000 NA
ATOM     18  C   UNL     1      -2.314  10.110  16.838  0.00  0.00    +0.000 C 
ATOM     19  C   UNL     1      -3.488  10.030  17.842  0.00  0.00    +0.000 C 
ATOM     20  N   UNL     1      -3.756  11.355  18.416  0.00  0.00    +0.000 N 
ATOM     21  C   UNL     1      -2.588  12.055  18.971  0.00  0.00    +0.000 C 
ATOM     22  C   UNL     1      -1.400  12.013  17.974  0.00  0.00    +0.000 C 
BRANCH  20  23
ATOM     23  C   UNL     1      -5.021  11.919  18.420  0.00  0.00    +0.000 A 
ATOM     24  C   UNL     1      -5.665  12.259  17.216  0.00  0.00    +0.000 A 
ATOM     25  C   UNL     1      -6.950  12.816  17.191  0.00  0.00    +0.000 A 
ATOM     26  C   UNL     1      -7.633  13.056  18.378  0.00  0.00    +0.000 A 
ATOM     27  C   UNL     1      -7.029  12.735  19.587  0.00  0.00    +0.000 A 
ATOM     28  C   UNL     1      -5.749  12.176  19.599  0.00  0.00    +0.000 A 
ATOM     29  F   UNL     1      -5.253  11.831  20.800  0.00  0.00    +0.000 F 
ENDBRANCH  20  23
ENDBRANCH  16  17
ENDBRANCH   1  16
TORSDOF 5
ENDMDL
MODEL 3
REMARK VINA RESULT:      -7.2      0.898      1.262
REMARK  Name = 
REMARK  6 active torsions:
REMARK  status: ('A' for Active; 'I' for Inactive)
REMARK    1  A    between atoms: C_1  and  C_2
REMARK    2  A    between atoms: C_7  and  C_8
REMARK    3  A    between atoms: N_12  and  C_13
REMARK    4  A    between atoms: C_13  and  C_14
REMARK    5  A    between atoms: C_14  and  N_15
REMARK    6  A    between atoms: N_18  and  C_19
REMARK                            x       y       z     vdW  Elec       q    Type
REMARK                         _______ _______ _______ _____ _____    ______ ____
ROOT
ATOM      1  C   UNL     1       0.829   9.944  18.309  0.00  0.00    +0.000 C 
ENDROOT
BRANCH   1   6
ATOM      2  C   UNL     1       3.001   6.994  19.111  0.00  0.00    +0.000 C 
ATOM      3  C   UNL     1       2.167   7.126  20.387  0.00  0.00    +0.000 C 
ATOM      4  C   UNL     1       1.318   8.343  20.157  0.00  0.00    +0.000 C 
ATOM      5  O   UNL     1       0.565   8.820  20.993  0.00  0.00    +0.000 OA
ATOM      6  N   UNL     1       1.528   8.809  18.894  0.00  0.00    +0.000 N 
ATOM      7  C   UNL     1       2.518   8.133  18.242  0.00  0.00    +0.000 C 
ATOM      8  O   UNL     1       2.962   8.414  17.134  0.00  0.00    +0.000 OA
BRANCH   2  15
ATOM      9  C   UNL     1       5.269   5.748  17.519  0.00  0.00    +0.000 C 
ATOM     10  C   UNL     1       3.935   5.070  17.684  0.00  0.00    +0.000 A 
ATOM     11  C   UNL     1       3.745   3.824  17.060  0.00  0.00    +0.000 A 
ATOM     12  C   UNL     1       2.538   3.138  17.171  0.00  0.00    +0.000 A 
ATOM     13  C   UNL     1       1.496   3.692  17.903  0.00  0.00    +0.000 A 
ATOM     14  C   UNL     1       1.663   4.930  18.524  0.00  0.00    +0.000 A 
ATOM     15  C   UNL     1       2.879   5.640  18.429  0.00  0.00    +0.000 A 
ENDBRANCH   2  15
ENDBRANCH   1   6
BRANCH   1  16
ATOM     16  C   UNL     1       1.301  11.290  18.890  0.00  0.00    +0.000 C 
BRANCH  16  17
ATOM     17  N   UNL     1       0.344  12.405  18.742  0.00  0.00    +0.000 NA
ATOM     18  C   UNL     1      -1.058  11.902  18.796  0.00  0.00    +0.000 C 
ATOM     19  C   UNL     1      -1.515  11.419  20.193  0.00  0.00    +0.000 C 
ATOM     20  N   UNL     1      -1.323  12.485  21.186  0.00  0.00    +0.000 N 
ATOM     21  C   UNL     1       0.014  13.097  21.211  0.00  0.00    +0.000 C 
ATOM     22  C   UNL     1       0.475  13.462  19.775  0.00  0.00    +0.000 C 
BRANCH  20  23
ATOM     23  C   UNL     1      -2.338  12.901  22.031  0.00  0.00    +0.000 A 
ATOM     24  C   UNL     1      -2.701  12.136  23.156  0.00  0.00    +0.000 A 
ATOM     25  C   UNL     1      -3.714  12.541  24.035  0.00  0.00    +0.000 A 
ATOM     26  C   UNL     1      -4.401  13.730  23.814  0.00  0.00    +0.000 A 
ATOM     27  C   UNL     1      -4.071  14.510  22.712  0.00  0.00    +0.000 A 
ATOM     28  C   UNL     1      -3.057  14.098  21.845  0.00  0.00    +0.000 A 
ATOM     29  F   UNL     1      -2.748  14.934  20.839  0.00  0.00    +0.000 F 
ENDBRANCH  20  23
ENDBRANCH  16  17
ENDBRANCH   1  16
TORSDOF 5
ENDMDL
MODEL 4
REMARK VINA RESULT:      -7.1      3.085      4.964
REMARK  Name = 
REMARK  6 active torsions:
REMARK  status: ('A' for Active; 'I' for Inactive)
REMARK    1  A    between atoms: C_1  and  C_2
REMARK    2  A    between atoms: C_7  and  C_8
REMARK    3  A    between atoms: N_12  and  C_13
REMARK    4  A    between atoms: C_13  and  C_14
REMARK    5  A    between atoms: C_14  and  N_15
REMARK    6  A    between atoms: N_18  and  C_19
REMARK                            x       y       z     vdW  Elec       q    Type
REMARK                         _______ _______ _______ _____ _____    ______ ____
ROOT
ATOM      1  C   UNL     1       2.001   4.951  20.222  0.00  0.00    +0.000 C 
ENDROOT
BRANCH   1   6
ATOM      2  C   UNL     1       4.905   3.462  18.376  0.00  0.00    +0.000 C 
ATOM      3  C   UNL     1       3.812   2.418  18.136  0.00  0.00    +0.000 C 
ATOM      4  C   UNL     1       2.632   2.924  18.915  0.00  0.00    +0.000 C 
ATOM      5  O   UNL     1       1.579   2.315  19.033  0.00  0.00    +0.000 OA
ATOM      6  N   UNL     1       2.931   4.140  19.451  0.00  0.00    +0.000 N 
ATOM      7  C   UNL     1       4.231   4.501  19.242  0.00  0.00    +0.000 C 
ATOM      8  O   UNL     1       4.775   5.500  19.700  0.00  0.00    +0.000 OA
BRANCH   2  15
ATOM      9  C   UNL     1       7.711   4.619  18.239  0.00  0.00    +0.000 C 
ATOM     10  C   UNL     1       6.794   4.592  17.046  0.00  0.00    +0.000 A 
ATOM     11  C   UNL     1       7.263   5.139  15.838  0.00  0.00    +0.000 A 
ATOM     12  C   UNL     1       6.470   5.147  14.693  0.00  0.00    +0.000 A 
ATOM     13  C   UNL     1       5.189   4.613  14.739  0.00  0.00    +0.000 A 
ATOM     14  C   UNL     1       4.703   4.072  15.929  0.00  0.00    +0.000 A 
ATOM     15  C   UNL     1       5.490   4.049  17.100  0.00  0.00    +0.000 A 
ENDBRANCH   2  15
ENDBRANCH   1   6
BRANCH   1  16
ATOM     16  C   UNL     1       1.552   6.214  19.464  0.00  0.00    +0.000 C 
BRANCH  16  17
ATOM     17  N   UNL     1       2.351   7.426  19.738  0.00  0.00    +0.000 NA
ATOM     18  C   UNL     1       2.488   8.252  18.506  0.00  0.00    +0.000 C 
ATOM     19  C   UNL     1       1.187   8.958  18.057  0.00  0.00    +0.000 C 
ATOM     20  N   UNL     1       0.648   9.774  19.153  0.00  0.00    +0.000 N 
ATOM     21  C   UNL     1       0.498   9.085  20.444  0.00  0.00    +0.000 C 
ATOM     22  C   UNL     1       1.789   8.300  20.797  0.00  0.00    +0.000 C 
BRANCH  20  23
ATOM     23  C   UNL     1       0.319  11.109  18.991  0.00  0.00    +0.000 A 
ATOM     24  C   UNL     1      -0.997  11.561  19.201  0.00  0.00    +0.000 A 
ATOM     25  C   UNL     1      -1.353  12.908  19.058  0.00  0.00    +0.000 A 
ATOM     26  C   UNL     1      -0.397  13.851  18.695  0.00  0.00    +0.000 A 
ATOM     27  C   UNL     1       0.912  13.442  18.477  0.00  0.00    +0.000 A 
ATOM     28  C   UNL     1       1.257  12.097  18.627  0.00  0.00    +0.000 A 
ATOM     29  F   UNL     1       2.553  11.785  18.464  0.00  0.00    +0.000 F 
ENDBRANCH  20  23
ENDBRANCH  16  17
ENDBRANCH   1  16
TORSDOF 5
ENDMDL
MODEL 5
REMARK VINA RESULT:      -7.1      2.071      3.298
REMARK  Name = 
REMARK  6 active torsions:
REMARK  status: ('A' for Active; 'I' for Inactive)
REMARK    1  A    between atoms: C_1  and  C_2
REMARK    2  A    between atoms: C_7  and  C_8
REMARK    3  A    between atoms: N_12  and  C_13
REMARK    4  A    between atoms: C_13  and  C_14
REMARK    5  A    between atoms: C_14  and  N_15
REMARK    6  A    between atoms: N_18  and  C_19
REMARK                            x       y       z     vdW  Elec       q    Type
REMARK                         _______ _______ _______ _____ _____    ______ ____
ROOT
ATOM      1  C   UNL     1       1.709   7.120  20.686  0.00  0.00    +0.000 C 
ENDROOT
BRANCH   1   6
ATOM      2  C   UNL     1       3.689   5.842  17.770  0.00  0.00    +0.000 C 
ATOM      3  C   UNL     1       3.423   7.291  17.357  0.00  0.00    +0.000 C 
ATOM      4  C   UNL     1       2.567   7.844  18.460  0.00  0.00    +0.000 C 
ATOM      5  O   UNL     1       2.080   8.965  18.451  0.00  0.00    +0.000 OA
ATOM      6  N   UNL     1       2.429   6.908  19.439  0.00  0.00    +0.000 N 
ATOM      7  C   UNL     1       2.991   5.709  19.104  0.00  0.00    +0.000 C 
ATOM      8  O   UNL     1       2.924   4.681  19.767  0.00  0.00    +0.000 OA
BRANCH   2  15
ATOM      9  C   UNL     1       5.134   4.400  15.519  0.00  0.00    +0.000 C 
ATOM     10  C   UNL     1       5.829   4.803  16.792  0.00  0.00    +0.000 A 
ATOM     11  C   UNL     1       7.190   4.479  16.933  0.00  0.00    +0.000 A 
ATOM     12  C   UNL     1       7.898   4.822  18.083  0.00  0.00    +0.000 A 
ATOM     13  C   UNL     1       7.252   5.490  19.115  0.00  0.00    +0.000 A 
ATOM     14  C   UNL     1       5.901   5.814  18.997  0.00  0.00    +0.000 A 
ATOM     15  C   UNL     1       5.165   5.480  17.840  0.00  0.00    +0.000 A 
ENDBRANCH   2  15
ENDBRANCH   1   6
BRANCH   1  16
ATOM     16  C   UNL     1       1.255   8.581  20.864  0.00  0.00    +0.000 C 
BRANCH  16  17
ATOM     17  N   UNL     1      -0.207   8.786  20.862  0.00  0.00    +0.000 NA
ATOM     18  C   UNL     1      -0.732   8.823  22.256  0.00  0.00    +0.000 C 
ATOM     19  C   UNL     1      -0.346  10.090  23.056  0.00  0.00    +0.000 C 
ATOM     20  N   UNL     1      -0.762  11.296  22.328  0.00  0.00    +0.000 N 
ATOM     21  C   UNL     1      -0.339  11.368  20.922  0.00  0.00    +0.000 C 
ATOM     22  C   UNL     1      -0.647  10.034  20.190  0.00  0.00    +0.000 C 
BRANCH  20  23
ATOM     23  C   UNL     1      -1.519  12.293  22.920  0.00  0.00    +0.000 A 
ATOM     24  C   UNL     1      -2.795  12.018  23.444  0.00  0.00    +0.000 A 
ATOM     25  C   UNL     1      -3.575  13.005  24.060  0.00  0.00    +0.000 A 
ATOM     26  C   UNL     1      -3.100  14.307  24.170  0.00  0.00    +0.000 A 
ATOM     27  C   UNL     1      -1.845  14.617  23.662  0.00  0.00    +0.000 A 
ATOM     28  C   UNL     1      -1.074  13.624  23.053  0.00  0.00    +0.000 A 
ATOM     29  F   UNL     1       0.155  13.981  22.644  0.00  0.00    +0.000 F 
ENDBRANCH  20  23
ENDBRANCH  16  17
ENDBRANCH   1  16
TORSDOF 5
ENDMDL
MODEL 6
REMARK VINA RESULT:      -7.1      2.088      3.284
REMARK  Name = 
REMARK  6 active torsions:
REMARK  status: ('A' for Active; 'I' for Inactive)
REMARK    1  A    between atoms: C_1  and  C_2
REMARK    2  A    between atoms: C_7  and  C_8
REMARK    3  A    between atoms: N_12  and  C_13
REMARK    4  A    between atoms: C_13  and  C_14
REMARK    5  A    between atoms: C_14  and  N_15
REMARK    6  A    between atoms: N_18  and  C_19
REMARK                            x       y       z     vdW  Elec       q    Type
REMARK                         _______ _______ _______ _____ _____    ______ ____
ROOT
ATOM      1  C   UNL     1       1.624   7.114  20.835  0.00  0.00    +0.000 C 
ENDROOT
BRANCH   1   6
ATOM      2  C   UNL     1       3.576   5.770  17.929  0.00  0.00    +0.000 C 
ATOM      3  C   UNL     1       3.252   7.190  17.459  0.00  0.00    +0.000 C 
ATOM      4  C   UNL     1       2.404   7.764  18.558  0.00  0.00    +0.000 C 
ATOM      5  O   UNL     1       1.880   8.868  18.511  0.00  0.00    +0.000 OA
ATOM      6  N   UNL     1       2.321   6.869  19.581  0.00  0.00    +0.000 N 
ATOM      7  C   UNL     1       2.915   5.675  19.284  0.00  0.00    +0.000 C 
ATOM      8  O   UNL     1       2.898   4.676  19.995  0.00  0.00    +0.000 OA
BRANCH   2  15
ATOM      9  C   UNL     1       5.044   4.408  15.644  0.00  0.00    +0.000 C 
ATOM     10  C   UNL     1       5.739   4.819  16.914  0.00  0.00    +0.000 A 
ATOM     11  C   UNL     1       7.113   4.543  17.035  0.00  0.00    +0.000 A 
ATOM     12  C   UNL     1       7.822   4.896  18.181  0.00  0.00    +0.000 A 
ATOM     13  C   UNL     1       7.165   5.527  19.229  0.00  0.00    +0.000 A 
ATOM     14  C   UNL     1       5.802   5.805  19.130  0.00  0.00    +0.000 A 
ATOM     15  C   UNL     1       5.065   5.460  17.978  0.00  0.00    +0.000 A 
ENDBRANCH   2  15
ENDBRANCH   1   6
BRANCH   1  16
ATOM     16  C   UNL     1       0.771   8.396  20.795  0.00  0.00    +0.000 C 
BRANCH  16  17
ATOM     17  N   UNL     1       1.256   9.497  21.652  0.00  0.00    +0.000 NA
ATOM     18  C   UNL     1       0.926  10.817  21.045  0.00  0.00    +0.000 C 
ATOM     19  C   UNL     1      -0.578  11.179  21.071  0.00  0.00    +0.000 C 
ATOM     20  N   UNL     1      -1.092  11.114  22.446  0.00  0.00    +0.000 N 
ATOM     21  C   UNL     1      -0.799   9.872  23.175  0.00  0.00    +0.000 C 
ATOM     22  C   UNL     1       0.698   9.490  23.027  0.00  0.00    +0.000 C 
BRANCH  20  23
ATOM     23  C   UNL     1      -1.789  12.160  23.026  0.00  0.00    +0.000 A 
ATOM     24  C   UNL     1      -3.074  11.961  23.565  0.00  0.00    +0.000 A 
ATOM     25  C   UNL     1      -3.796  12.999  24.170  0.00  0.00    +0.000 A 
ATOM     26  C   UNL     1      -3.252  14.276  24.253  0.00  0.00    +0.000 A 
ATOM     27  C   UNL     1      -1.987  14.510  23.730  0.00  0.00    +0.000 A 
ATOM     28  C   UNL     1      -1.275  13.468  23.132  0.00  0.00    +0.000 A 
ATOM     29  F   UNL     1      -0.032  13.752  22.707  0.00  0.00    +0.000 F 
ENDBRANCH  20  23
ENDBRANCH  16  17
ENDBRANCH   1  16
TORSDOF 5
ENDMDL
MODEL 7
REMARK VINA RESULT:      -7.0      2.826      3.200
REMARK  Name = 
REMARK  6 active torsions:
REMARK  status: ('A' for Active; 'I' for Inactive)
REMARK    1  A    between atoms: C_1  and  C_2
REMARK    2  A    between atoms: C_7  and  C_8
REMARK    3  A    between atoms: N_12  and  C_13
REMARK    4  A    between atoms: C_13  and  C_14
REMARK    5  A    between atoms: C_14  and  N_15
REMARK    6  A    between atoms: N_18  and  C_19
REMARK                            x       y       z     vdW  Elec       q    Type
REMARK                         _______ _______ _______ _____ _____    ______ ____
ROOT
ATOM      1  C   UNL     1       1.332   9.663  18.046  0.00  0.00    +0.000 C 
ENDROOT
BRANCH   1   6
ATOM      2  C   UNL     1       3.075   6.587  19.293  0.00  0.00    +0.000 C 
ATOM      3  C   UNL     1       2.134   6.908  20.456  0.00  0.00    +0.000 C 
ATOM      4  C   UNL     1       1.452   8.181  20.047  0.00  0.00    +0.000 C 
ATOM      5  O   UNL     1       0.675   8.800  20.759  0.00  0.00    +0.000 OA
ATOM      6  N   UNL     1       1.839   8.517  18.785  0.00  0.00    +0.000 N 
ATOM      7  C   UNL     1       2.810   7.691  18.296  0.00  0.00    +0.000 C 
ATOM      8  O   UNL     1       3.393   7.832  17.226  0.00  0.00    +0.000 OA
BRANCH   2  15
ATOM      9  C   UNL     1       5.359   4.948  18.140  0.00  0.00    +0.000 C 
ATOM     10  C   UNL     1       3.940   4.446  18.160  0.00  0.00    +0.000 A 
ATOM     11  C   UNL     1       3.680   3.179  17.608  0.00  0.00    +0.000 A 
ATOM     12  C   UNL     1       2.391   2.650  17.593  0.00  0.00    +0.000 A 
ATOM     13  C   UNL     1       1.339   3.384  18.125  0.00  0.00    +0.000 A 
ATOM     14  C   UNL     1       1.577   4.645  18.671  0.00  0.00    +0.000 A 
ATOM     15  C   UNL     1       2.874   5.199  18.701  0.00  0.00    +0.000 A 
ENDBRANCH   2  15
ENDBRANCH   1   6
BRANCH   1  16
ATOM     16  C   UNL     1      -0.059  10.112  18.533  0.00  0.00    +0.000 C 
BRANCH  16  17
ATOM     17  N   UNL     1      -0.741  11.091  17.663  0.00  0.00    +0.000 NA
ATOM     18  C   UNL     1      -1.902  10.460  16.975  0.00  0.00    +0.000 C 
ATOM     19  C   UNL     1      -3.099  10.135  17.900  0.00  0.00    +0.000 C 
ATOM     20  N   UNL     1      -3.531  11.344  18.614  0.00  0.00    +0.000 N 
ATOM     21  C   UNL     1      -2.469  12.087  19.308  0.00  0.00    +0.000 C 
ATOM     22  C   UNL     1      -1.246  12.291  18.375  0.00  0.00    +0.000 C 
BRANCH  20  23
ATOM     23  C   UNL     1      -4.849  11.769  18.619  0.00  0.00    +0.000 A 
ATOM     24  C   UNL     1      -5.566  11.887  19.824  0.00  0.00    +0.000 A 
ATOM     25  C   UNL     1      -6.895  12.329  19.859  0.00  0.00    +0.000 A 
ATOM     26  C   UNL     1      -7.553  12.665  18.681  0.00  0.00    +0.000 A 
ATOM     27  C   UNL     1      -6.879  12.558  17.472  0.00  0.00    +0.000 A 
ATOM     28  C   UNL     1      -5.552  12.121  17.450  0.00  0.00    +0.000 A 
ATOM     29  F   UNL     1      -4.943  12.105  16.252  0.00  0.00    +0.000 F 
ENDBRANCH  20  23
ENDBRANCH  16  17
ENDBRANCH   1  16
TORSDOF 5
ENDMDL
MODEL 8
REMARK VINA RESULT:      -7.0      3.403      5.898
REMARK  Name = 
REMARK  6 active torsions:
REMARK  status: ('A' for Active; 'I' for Inactive)
REMARK    1  A    between atoms: C_1  and  C_2
REMARK    2  A    between atoms: C_7  and  C_8
REMARK    3  A    between atoms: N_12  and  C_13
REMARK    4  A    between atoms: C_13  and  C_14
REMARK    5  A    between atoms: C_14  and  N_15
REMARK    6  A    between atoms: N_18  and  C_19
REMARK                            x       y       z     vdW  Elec       q    Type
REMARK                         _______ _______ _______ _____ _____    ______ ____
ROOT
ATOM      1  C   UNL     1       4.580   6.288  18.200  0.00  0.00    +0.000 C 
ENDROOT
BRANCH   1   6
ATOM      2  C   UNL     1       7.102   5.381  15.578  0.00  0.00    +0.000 C 
ATOM      3  C   UNL     1       7.469   4.421  16.711  0.00  0.00    +0.000 C 
ATOM      4  C   UNL     1       6.533   4.784  17.828  0.00  0.00    +0.000 C 
ATOM      5  O   UNL     1       6.572   4.283  18.942  0.00  0.00    +0.000 OA
ATOM      6  N   UNL     1       5.663   5.739  17.398  0.00  0.00    +0.000 N 
ATOM      7  C   UNL     1       5.950   6.183  16.139  0.00  0.00    +0.000 C 
ATOM      8  O   UNL     1       5.380   7.101  15.560  0.00  0.00    +0.000 OA
BRANCH   2  15
ATOM      9  C   UNL     1       8.636   5.872  13.001  0.00  0.00    +0.000 C 
ATOM     10  C   UNL     1       7.467   4.927  13.073  0.00  0.00    +0.000 A 
ATOM     11  C   UNL     1       7.076   4.268  11.893  0.00  0.00    +0.000 A 
ATOM     12  C   UNL     1       6.004   3.378  11.885  0.00  0.00    +0.000 A 
ATOM     13  C   UNL     1       5.300   3.138  13.058  0.00  0.00    +0.000 A 
ATOM     14  C   UNL     1       5.668   3.786  14.236  0.00  0.00    +0.000 A 
ATOM     15  C   UNL     1       6.753   4.688  14.269  0.00  0.00    +0.000 A 
ENDBRANCH   2  15
ENDBRANCH   1   6
BRANCH   1  16
ATOM     16  C   UNL     1       3.636   5.197  18.740  0.00  0.00    +0.000 C 
BRANCH  16  17
ATOM     17  N   UNL     1       2.195   5.492  18.602  0.00  0.00    +0.000 NA
ATOM     18  C   UNL     1       1.512   5.400  19.923  0.00  0.00    +0.000 C 
ATOM     19  C   UNL     1       1.864   6.540  20.909  0.00  0.00    +0.000 C 
ATOM     20  N   UNL     1       1.595   7.845  20.292  0.00  0.00    +0.000 N 
ATOM     21  C   UNL     1       2.183   8.052  18.960  0.00  0.00    +0.000 C 
ATOM     22  C   UNL     1       1.898   6.834  18.042  0.00  0.00    +0.000 C 
BRANCH  20  23
ATOM     23  C   UNL     1       0.824   8.813  20.913  0.00  0.00    +0.000 A 
ATOM     24  C   UNL     1       0.663   8.823  22.311  0.00  0.00    +0.000 A 
ATOM     25  C   UNL     1      -0.099   9.799  22.966  0.00  0.00    +0.000 A 
ATOM     26  C   UNL     1      -0.731  10.800  22.237  0.00  0.00    +0.000 A 
ATOM     27  C   UNL     1      -0.597  10.822  20.855  0.00  0.00    +0.000 A 
ATOM     28  C   UNL     1       0.169   9.846  20.213  0.00  0.00    +0.000 A 
ATOM     29  F   UNL     1       0.307   9.967  18.882  0.00  0.00    +0.000 F 
ENDBRANCH  20  23
ENDBRANCH  16  17
ENDBRANCH   1  16
TORSDOF 5
ENDMDL
MODEL 9
REMARK VINA RESULT:      -7.0      2.435      4.314
REMARK  Name = 
REMARK  6 active torsions:
REMARK  status: ('A' for Active; 'I' for Inactive)
REMARK    1  A    between atoms: C_1  and  C_2
REMARK    2  A    between atoms: C_7  and  C_8
REMARK    3  A    between atoms: N_12  and  C_13
REMARK    4  A    between atoms: C_13  and  C_14
REMARK    5  A    between atoms: C_14  and  N_15
REMARK    6  A    between atoms: N_18  and  C_19
REMARK                            x       y       z     vdW  Elec       q    Type
REMARK                         _______ _______ _______ _____ _____    ______ ____
ROOT
ATOM      1  C   UNL     1       2.024   5.678  19.425  0.00  0.00    +0.000 C 
ENDROOT
BRANCH   1   6
ATOM      2  C   UNL     1       4.848   3.703  17.947  0.00  0.00    +0.000 C 
ATOM      3  C   UNL     1       3.658   2.768  17.718  0.00  0.00    +0.000 C 
ATOM      4  C   UNL     1       2.497   3.476  18.356  0.00  0.00    +0.000 C 
ATOM      5  O   UNL     1       1.374   3.002  18.447  0.00  0.00    +0.000 OA
ATOM      6  N   UNL     1       2.901   4.697  18.803  0.00  0.00    +0.000 N 
ATOM      7  C   UNL     1       4.246   4.890  18.663  0.00  0.00    +0.000 C 
ATOM      8  O   UNL     1       4.872   5.862  19.070  0.00  0.00    +0.000 OA
BRANCH   2  15
ATOM      9  C   UNL     1       7.741   4.632  17.937  0.00  0.00    +0.000 C 
ATOM     10  C   UNL     1       6.924   4.532  16.677  0.00  0.00    +0.000 A 
ATOM     11  C   UNL     1       7.533   4.900  15.464  0.00  0.00    +0.000 A 
ATOM     12  C   UNL     1       6.839   4.832  14.258  0.00  0.00    +0.000 A 
ATOM     13  C   UNL     1       5.519   4.401  14.247  0.00  0.00    +0.000 A 
ATOM     14  C   UNL     1       4.896   4.037  15.440  0.00  0.00    +0.000 A 
ATOM     15  C   UNL     1       5.581   4.094  16.673  0.00  0.00    +0.000 A 
ENDBRANCH   2  15
ENDBRANCH   1   6
BRANCH   1  16
ATOM     16  C   UNL     1       1.787   6.909  18.531  0.00  0.00    +0.000 C 
BRANCH  16  17
ATOM     17  N   UNL     1       2.300   8.184  19.073  0.00  0.00    +0.000 NA
ATOM     18  C   UNL     1       1.934   9.317  18.177  0.00  0.00    +0.000 C 
ATOM     19  C   UNL     1       0.430   9.680  18.179  0.00  0.00    +0.000 C 
ATOM     20  N   UNL     1      -0.024   9.953  19.549  0.00  0.00    +0.000 N 
ATOM     21  C   UNL     1       0.308   8.924  20.546  0.00  0.00    +0.000 C 
ATOM     22  C   UNL     1       1.800   8.513  20.431  0.00  0.00    +0.000 C 
BRANCH  20  23
ATOM     23  C   UNL     1      -0.705  11.110  19.887  0.00  0.00    +0.000 A 
ATOM     24  C   UNL     1      -0.138  12.053  20.765  0.00  0.00    +0.000 A 
ATOM     25  C   UNL     1      -0.799  13.239  21.111  0.00  0.00    +0.000 A 
ATOM     26  C   UNL     1      -2.056  13.519  20.589  0.00  0.00    +0.000 A 
ATOM     27  C   UNL     1      -2.649  12.611  19.721  0.00  0.00    +0.000 A 
ATOM     28  C   UNL     1      -1.979  11.434  19.379  0.00  0.00    +0.000 A 
ATOM     29  F   UNL     1      -2.584  10.634  18.485  0.00  0.00    +0.000 F 
ENDBRANCH  20  23
ENDBRANCH  16  17
ENDBRANCH   1  16
TORSDOF 5
ENDMDL
