MODEL 1
REMARK VINA RESULT:      -8.2      0.000      0.000
REMARK  Name = 
REMARK  10 active torsions:
REMARK  status: ('A' for Active; 'I' for Inactive)
REMARK    1  A    between atoms: C_1  and  O_2
REMARK    2  A    between atoms: O_2  and  C_3
REMARK    3  A    between atoms: C_5  and  N_6
REMARK    4  A    between atoms: N_6  and  C_7
REMARK    5  A    between atoms: C_7  and  C_8
REMARK    6  A    between atoms: C_8  and  C_9
REMARK    7  A    between atoms: C_9  and  N_10
REMARK    8  A    between atoms: C_11  and  C_13
REMARK    9  A    between atoms: C_15  and  C_16
REMARK   10  A    between atoms: C_21  and  C_22
REMARK                            x       y       z     vdW  Elec       q    Type
REMARK                         _______ _______ _______ _____ _____    ______ ____
ROOT
ATOM      1  N   UNL     1       3.147   3.470  18.399  0.00  0.00    +0.000 N 
ATOM      2  C   UNL     1       4.485   3.579  18.730  0.00  0.00    +0.000 C 
ATOM      3  O   UNL     1       4.988   3.078  19.724  0.00  0.00    +0.000 OA
ATOM      4  H   UNL     1       2.825   3.783  17.495  0.00  0.00    +0.000 HD
ENDROOT
BRANCH   2   5
ATOM      5  C   UNL     1       5.330   4.322  17.753  0.00  0.00    +0.000 A 
ATOM      6  C   UNL     1       6.086   5.431  18.147  0.00  0.00    +0.000 A 
ATOM      7  C   UNL     1       6.837   6.154  17.209  0.00  0.00    +0.000 A 
ATOM      8  C   UNL     1       6.845   5.729  15.870  0.00  0.00    +0.000 A 
ATOM      9  C   UNL     1       6.110   4.603  15.460  0.00  0.00    +0.000 A 
ATOM     10  C   UNL     1       5.357   3.899  16.417  0.00  0.00    +0.000 A 
BRANCH   7  11
ATOM     11  C   UNL     1       7.604   7.390  17.622  0.00  0.00    +0.000 C 
ATOM     12  F   UNL     1       6.797   8.438  17.946  0.00  0.00    +0.000 F 
ATOM     13  F   UNL     1       8.398   7.176  18.703  0.00  0.00    +0.000 F 
ATOM     14  F   UNL     1       8.419   7.840  16.631  0.00  0.00    +0.000 F 
ENDBRANCH   7  11
BRANCH   9  15
ATOM     15  C   UNL     1       6.097   4.166  14.012  0.00  0.00    +0.000 C 
ATOM     16  F   UNL     1       6.968   4.866  13.233  0.00  0.00    +0.000 F 
ATOM     17  F   UNL     1       6.423   2.855  13.855  0.00  0.00    +0.000 F 
ATOM     18  F   UNL     1       4.874   4.326  13.435  0.00  0.00    +0.000 F 
ENDBRANCH   9  15
ENDBRANCH   2   5
BRANCH   1  19
ATOM     19  C   UNL     1       2.209   2.741  19.226  0.00  0.00    +0.000 C 
BRANCH  19  20
ATOM     20  C   UNL     1       1.054   3.623  19.704  0.00  0.00    +0.000 C 
BRANCH  20  21
ATOM     21  C   UNL     1       1.496   4.417  20.930  0.00  0.00    +0.000 C 
BRANCH  21  22
ATOM     22  N   UNL     1       2.603   5.319  20.623  0.00  0.00    +0.000 N 
ATOM     23  H   UNL     1       3.415   4.870  20.203  0.00  0.00    +0.000 HD
BRANCH  22  26
ATOM     24  C   UNL     1       1.207   8.759  20.222  0.00  0.00    +0.000 A 
ATOM     25  C   UNL     1       1.592   7.517  20.772  0.00  0.00    +0.000 A 
ATOM     26  C   UNL     1       2.323   6.563  20.041  0.00  0.00    +0.000 A 
ATOM     27  C   UNL     1       2.620   6.871  18.712  0.00  0.00    +0.000 A 
ATOM     28  C   UNL     1       2.277   8.107  18.160  0.00  0.00    +0.000 A 
ATOM     29  C   UNL     1       1.585   9.061  18.910  0.00  0.00    +0.000 A 
ATOM     30 CL   UNL     1       1.325  10.575  18.124  0.00  0.00    +0.000 Cl
BRANCH  24  32
ATOM     31  C   UNL     1       0.671   9.251  22.495  0.00  0.00    +0.000 C 
ATOM     32  O   UNL     1       0.542   9.564  21.113  0.00  0.00    +0.000 OA
ENDBRANCH  24  32
ENDBRANCH  22  26
ENDBRANCH  21  22
ENDBRANCH  20  21
ENDBRANCH  19  20
ENDBRANCH   1  19
TORSDOF 9
ENDMDL
MODEL 2
REMARK VINA RESULT:      -8.2      4.040      5.853
REMARK  Name = 
REMARK  10 active torsions:
REMARK  status: ('A' for Active; 'I' for Inactive)
REMARK    1  A    between atoms: C_1  and  O_2
REMARK    2  A    between atoms: O_2  and  C_3
REMARK    3  A    between atoms: C_5  and  N_6
REMARK    4  A    between atoms: N_6  and  C_7
REMARK    5  A    between atoms: C_7  and  C_8
REMARK    6  A    between atoms: C_8  and  C_9
REMARK    7  A    between atoms: C_9  and  N_10
REMARK    8  A    between atoms: C_11  and  C_13
REMARK    9  A    between atoms: C_15  and  C_16
REMARK   10  A    between atoms: C_21  and  C_22
REMARK                            x       y       z     vdW  Elec       q    Type
REMARK                         _______ _______ _______ _____ _____    ______ ____
ROOT
ATOM      1  N   UNL     1       1.781   7.420  20.682  0.00  0.00    +0.000 N 
ATOM      2  C   UNL     1       2.122   7.642  19.360  0.00  0.00    +0.000 C 
ATOM      3  O   UNL     1       2.068   8.733  18.814  0.00  0.00    +0.000 OA
ATOM      4  H   UNL     1       1.984   6.528  21.111  0.00  0.00    +0.000 HD
ENDROOT
BRANCH   2   5
ATOM      5  C   UNL     1       2.628   6.453  18.618  0.00  0.00    +0.000 A 
ATOM      6  C   UNL     1       2.044   5.193  18.787  0.00  0.00    +0.000 A 
ATOM      7  C   UNL     1       2.561   4.071  18.123  0.00  0.00    +0.000 A 
ATOM      8  C   UNL     1       3.655   4.236  17.258  0.00  0.00    +0.000 A 
ATOM      9  C   UNL     1       4.241   5.499  17.059  0.00  0.00    +0.000 A 
ATOM     10  C   UNL     1       3.711   6.608  17.742  0.00  0.00    +0.000 A 
BRANCH   7  11
ATOM     11  C   UNL     1       1.970   2.699  18.354  0.00  0.00    +0.000 C 
ATOM     12  F   UNL     1       2.368   2.134  19.528  0.00  0.00    +0.000 F 
ATOM     13  F   UNL     1       0.612   2.711  18.381  0.00  0.00    +0.000 F 
ATOM     14  F   UNL     1       2.325   1.819  17.379  0.00  0.00    +0.000 F 
ENDBRANCH   7  11
BRANCH   9  15
ATOM     15  C   UNL     1       5.438   5.667  16.151  0.00  0.00    +0.000 C 
ATOM     16  F   UNL     1       6.006   4.483  15.786  0.00  0.00    +0.000 F 
ATOM     17  F   UNL     1       5.134   6.310  14.992  0.00  0.00    +0.000 F 
ATOM     18  F   UNL     1       6.433   6.389  16.737  0.00  0.00    +0.000 F 
ENDBRANCH   9  15
ENDBRANCH   2   5
BRANCH   1  19
ATOM     19  C   UNL     1       1.316   8.485  21.544  0.00  0.00    +0.000 C 
BRANCH  19  20
ATOM     20  C   UNL     1       0.034   9.135  21.019  0.00  0.00    +0.000 C 
BRANCH  20  21
ATOM     21  C   UNL     1       0.278  10.624  20.790  0.00  0.00    +0.000 C 
BRANCH  21  22
ATOM     22  N   UNL     1       0.052  11.004  19.399  0.00  0.00    +0.000 N 
ATOM     23  H   UNL     1       0.689  10.576  18.730  0.00  0.00    +0.000 HD
BRANCH  22  26
ATOM     24  C   UNL     1      -2.887  10.420  17.170  0.00  0.00    +0.000 A 
ATOM     25  C   UNL     1      -1.605  10.346  17.756  0.00  0.00    +0.000 A 
ATOM     26  C   UNL     1      -1.264  11.062  18.917  0.00  0.00    +0.000 A 
ATOM     27  C   UNL     1      -2.239  11.902  19.456  0.00  0.00    +0.000 A 
ATOM     28  C   UNL     1      -3.524  11.964  18.911  0.00  0.00    +0.000 A 
ATOM     29  C   UNL     1      -3.861  11.216  17.780  0.00  0.00    +0.000 A 
ATOM     30 CL   UNL     1      -5.512  11.319  17.289  0.00  0.00    +0.000 Cl
BRANCH  24  32
ATOM     31  C   UNL     1      -3.012  10.236  14.794  0.00  0.00    +0.000 C 
ATOM     32  O   UNL     1      -3.029   9.610  16.071  0.00  0.00    +0.000 OA
ENDBRANCH  24  32
ENDBRANCH  22  26
ENDBRANCH  21  22
ENDBRANCH  20  21
ENDBRANCH  19  20
ENDBRANCH   1  19
TORSDOF 9
ENDMDL
MODEL 3
REMARK VINA RESULT:      -8.0      1.170      3.337
REMARK  Name = 
REMARK  10 active torsions:
REMARK  status: ('A' for Active; 'I' for Inactive)
REMARK    1  A    between atoms: C_1  and  O_2
REMARK    2  A    between atoms: O_2  and  C_3
REMARK    3  A    between atoms: C_5  and  N_6
REMARK    4  A    between atoms: N_6  and  C_7
REMARK    5  A    between atoms: C_7  and  C_8
REMARK    6  A    between atoms: C_8  and  C_9
REMARK    7  A    between atoms: C_9  and  N_10
REMARK    8  A    between atoms: C_11  and  C_13
REMARK    9  A    between atoms: C_15  and  C_16
REMARK   10  A    between atoms: C_21  and  C_22
REMARK                            x       y       z     vdW  Elec       q    Type
REMARK                         _______ _______ _______ _____ _____    ______ ____
ROOT
ATOM      1  N   UNL     1       2.333   3.652  18.202  0.00  0.00    +0.000 N 
ATOM      2  C   UNL     1       3.414   2.863  17.853  0.00  0.00    +0.000 C 
ATOM      3  O   UNL     1       3.432   1.646  17.945  0.00  0.00    +0.000 OA
ATOM      4  H   UNL     1       2.330   4.634  17.967  0.00  0.00    +0.000 HD
ENDROOT
BRANCH   2   5
ATOM      5  C   UNL     1       4.586   3.592  17.288  0.00  0.00    +0.000 A 
ATOM      6  C   UNL     1       4.814   3.635  15.909  0.00  0.00    +0.000 A 
ATOM      7  C   UNL     1       5.947   4.278  15.392  0.00  0.00    +0.000 A 
ATOM      8  C   UNL     1       6.836   4.910  16.278  0.00  0.00    +0.000 A 
ATOM      9  C   UNL     1       6.611   4.896  17.666  0.00  0.00    +0.000 A 
ATOM     10  C   UNL     1       5.472   4.237  18.162  0.00  0.00    +0.000 A 
BRANCH   7  11
ATOM     11  C   UNL     1       6.227   4.271  13.906  0.00  0.00    +0.000 C 
ATOM     12  F   UNL     1       7.181   5.169  13.536  0.00  0.00    +0.000 F 
ATOM     13  F   UNL     1       6.653   3.061  13.459  0.00  0.00    +0.000 F 
ATOM     14  F   UNL     1       5.122   4.581  13.177  0.00  0.00    +0.000 F 
ENDBRANCH   7  11
BRANCH   9  15
ATOM     15  C   UNL     1       7.585   5.551  18.620  0.00  0.00    +0.000 C 
ATOM     16  F   UNL     1       8.046   6.753  18.174  0.00  0.00    +0.000 F 
ATOM     17  F   UNL     1       7.044   5.787  19.845  0.00  0.00    +0.000 F 
ATOM     18  F   UNL     1       8.691   4.787  18.832  0.00  0.00    +0.000 F 
ENDBRANCH   9  15
ENDBRANCH   2   5
BRANCH   1  19
ATOM     19  C   UNL     1       1.107   3.086  18.722  0.00  0.00    +0.000 C 
BRANCH  19  20
ATOM     20  C   UNL     1       0.865   3.477  20.181  0.00  0.00    +0.000 C 
BRANCH  20  21
ATOM     21  C   UNL     1       2.143   4.070  20.767  0.00  0.00    +0.000 C 
BRANCH  21  22
ATOM     22  N   UNL     1       1.914   5.392  21.344  0.00  0.00    +0.000 N 
ATOM     23  H   UNL     1       2.375   5.554  22.236  0.00  0.00    +0.000 HD
BRANCH  22  26
ATOM     24  C   UNL     1       1.227   8.827  20.050  0.00  0.00    +0.000 A 
ATOM     25  C   UNL     1       1.283   7.686  20.879  0.00  0.00    +0.000 A 
ATOM     26  C   UNL     1       1.967   6.516  20.506  0.00  0.00    +0.000 A 
ATOM     27  C   UNL     1       2.562   6.501  19.244  0.00  0.00    +0.000 A 
ATOM     28  C   UNL     1       2.546   7.631  18.422  0.00  0.00    +0.000 A 
ATOM     29  C   UNL     1       1.897   8.801  18.822  0.00  0.00    +0.000 A 
ATOM     30 CL   UNL     1       2.054  10.141  17.747  0.00  0.00    +0.000 Cl
BRANCH  24  32
ATOM     31  C   UNL     1      -0.608  10.350  19.938  0.00  0.00    +0.000 C 
ATOM     32  O   UNL     1       0.550   9.878  20.617  0.00  0.00    +0.000 OA
ENDBRANCH  24  32
ENDBRANCH  22  26
ENDBRANCH  21  22
ENDBRANCH  20  21
ENDBRANCH  19  20
ENDBRANCH   1  19
TORSDOF 9
ENDMDL
MODEL 4
REMARK VINA RESULT:      -8.0      4.155      5.612
REMARK  Name = 
REMARK  10 active torsions:
REMARK  status: ('A' for Active; 'I' for Inactive)
REMARK    1  A    between atoms: C_1  and  O_2
REMARK    2  A    between atoms: O_2  and  C_3
REMARK    3  A    between atoms: C_5  and  N_6
REMARK    4  A    between atoms: N_6  and  C_7
REMARK    5  A    between atoms: C_7  and  C_8
REMARK    6  A    between atoms: C_8  and  C_9
REMARK    7  A    between atoms: C_9  and  N_10
REMARK    8  A    between atoms: C_11  and  C_13
REMARK    9  A    between atoms: C_15  and  C_16
REMARK   10  A    between atoms: C_21  and  C_22
REMARK                            x       y       z     vdW  Elec       q    Type
REMARK                         _______ _______ _______ _____ _____    ______ ____
ROOT
ATOM      1  N   UNL     1       1.831   7.388  20.859  0.00  0.00    +0.000 N 
ATOM      2  C   UNL     1       2.176   7.503  19.525  0.00  0.00    +0.000 C 
ATOM      3  O   UNL     1       2.143   8.550  18.897  0.00  0.00    +0.000 OA
ATOM      4  H   UNL     1       2.017   6.528  21.354  0.00  0.00    +0.000 HD
ENDROOT
BRANCH   2   5
ATOM      5  C   UNL     1       2.659   6.252  18.875  0.00  0.00    +0.000 A 
ATOM      6  C   UNL     1       3.668   6.283  17.908  0.00  0.00    +0.000 A 
ATOM      7  C   UNL     1       4.079   5.106  17.265  0.00  0.00    +0.000 A 
ATOM      8  C   UNL     1       3.484   3.887  17.631  0.00  0.00    +0.000 A 
ATOM      9  C   UNL     1       2.483   3.834  18.618  0.00  0.00    +0.000 A 
ATOM     10  C   UNL     1       2.082   5.028  19.242  0.00  0.00    +0.000 A 
BRANCH   7  11
ATOM     11  C   UNL     1       5.126   5.147  16.175  0.00  0.00    +0.000 C 
ATOM     12  F   UNL     1       6.400   5.152  16.655  0.00  0.00    +0.000 F 
ATOM     13  F   UNL     1       5.043   4.088  15.329  0.00  0.00    +0.000 F 
ATOM     14  F   UNL     1       5.015   6.262  15.403  0.00  0.00    +0.000 F 
ENDBRANCH   7  11
BRANCH   9  15
ATOM     15  C   UNL     1       1.823   2.525  18.988  0.00  0.00    +0.000 C 
ATOM     16  F   UNL     1       0.595   2.363  18.419  0.00  0.00    +0.000 F 
ATOM     17  F   UNL     1       2.554   1.441  18.613  0.00  0.00    +0.000 F 
ATOM     18  F   UNL     1       1.627   2.406  20.330  0.00  0.00    +0.000 F 
ENDBRANCH   9  15
ENDBRANCH   2   5
BRANCH   1  19
ATOM     19  C   UNL     1       1.386   8.524  21.637  0.00  0.00    +0.000 C 
BRANCH  19  20
ATOM     20  C   UNL     1      -0.092   8.841  21.404  0.00  0.00    +0.000 C 
BRANCH  20  21
ATOM     21  C   UNL     1      -0.221  10.227  20.779  0.00  0.00    +0.000 C 
BRANCH  21  22
ATOM     22  N   UNL     1      -0.378  10.157  19.329  0.00  0.00    +0.000 N 
ATOM     23  H   UNL     1      -0.058   9.289  18.906  0.00  0.00    +0.000 HD
BRANCH  22  26
ATOM     24  C   UNL     1      -3.615  11.987  18.979  0.00  0.00    +0.000 A 
ATOM     25  C   UNL     1      -2.366  11.539  19.461  0.00  0.00    +0.000 A 
ATOM     26  C   UNL     1      -1.570  10.620  18.753  0.00  0.00    +0.000 A 
ATOM     27  C   UNL     1      -2.087  10.120  17.557  0.00  0.00    +0.000 A 
ATOM     28  C   UNL     1      -3.305  10.577  17.047  0.00  0.00    +0.000 A 
ATOM     29  C   UNL     1      -4.067  11.519  17.741  0.00  0.00    +0.000 A 
ATOM     30 CL   UNL     1      -5.493  12.059  16.934  0.00  0.00    +0.000 Cl
BRANCH  24  32
ATOM     31  C   UNL     1      -3.481  13.337  20.943  0.00  0.00    +0.000 C 
ATOM     32  O   UNL     1      -4.210  12.916  19.796  0.00  0.00    +0.000 OA
ENDBRANCH  24  32
ENDBRANCH  22  26
ENDBRANCH  21  22
ENDBRANCH  20  21
ENDBRANCH  19  20
ENDBRANCH   1  19
TORSDOF 9
ENDMDL
MODEL 5
REMARK VINA RESULT:      -8.0      1.453      1.805
REMARK  Name = 
REMARK  10 active torsions:
REMARK  status: ('A' for Active; 'I' for Inactive)
REMARK    1  A    between atoms: C_1  and  O_2
REMARK    2  A    between atoms: O_2  and  C_3
REMARK    3  A    between atoms: C_5  and  N_6
REMARK    4  A    between atoms: N_6  and  C_7
REMARK    5  A    between atoms: C_7  and  C_8
REMARK    6  A    between atoms: C_8  and  C_9
REMARK    7  A    between atoms: C_9  and  N_10
REMARK    8  A    between atoms: C_11  and  C_13
REMARK    9  A    between atoms: C_15  and  C_16
REMARK   10  A    between atoms: C_21  and  C_22
REMARK                            x       y       z     vdW  Elec       q    Type
REMARK                         _______ _______ _______ _____ _____    ______ ____
ROOT
ATOM      1  N   UNL     1       3.091   3.374  19.374  0.00  0.00    +0.000 N 
ATOM      2  C   UNL     1       3.230   3.365  17.998  0.00  0.00    +0.000 C 
ATOM      3  O   UNL     1       2.350   3.025  17.224  0.00  0.00    +0.000 OA
ATOM      4  H   UNL     1       3.802   3.801  19.949  0.00  0.00    +0.000 HD
ENDROOT
BRANCH   2   5
ATOM      5  C   UNL     1       4.538   3.859  17.481  0.00  0.00    +0.000 A 
ATOM      6  C   UNL     1       5.503   4.387  18.344  0.00  0.00    +0.000 A 
ATOM      7  C   UNL     1       6.709   4.897  17.841  0.00  0.00    +0.000 A 
ATOM      8  C   UNL     1       6.949   4.838  16.458  0.00  0.00    +0.000 A 
ATOM      9  C   UNL     1       5.999   4.290  15.578  0.00  0.00    +0.000 A 
ATOM     10  C   UNL     1       4.794   3.794  16.105  0.00  0.00    +0.000 A 
BRANCH   7  11
ATOM     11  C   UNL     1       7.726   5.525  18.767  0.00  0.00    +0.000 C 
ATOM     12  F   UNL     1       8.180   6.731  18.325  0.00  0.00    +0.000 F 
ATOM     13  F   UNL     1       7.236   5.739  20.015  0.00  0.00    +0.000 F 
ATOM     14  F   UNL     1       8.830   4.745  18.918  0.00  0.00    +0.000 F 
ENDBRANCH   7  11
BRANCH   9  15
ATOM     15  C   UNL     1       6.247   4.257  14.087  0.00  0.00    +0.000 C 
ATOM     16  F   UNL     1       7.284   5.051  13.698  0.00  0.00    +0.000 F 
ATOM     17  F   UNL     1       6.539   3.010  13.629  0.00  0.00    +0.000 F 
ATOM     18  F   UNL     1       5.168   4.682  13.374  0.00  0.00    +0.000 F 
ENDBRANCH   9  15
ENDBRANCH   2   5
BRANCH   1  19
ATOM     19  C   UNL     1       1.864   2.966  20.024  0.00  0.00    +0.000 C 
BRANCH  19  20
ATOM     20  C   UNL     1       1.205   4.116  20.788  0.00  0.00    +0.000 C 
BRANCH  20  21
ATOM     21  C   UNL     1       1.538   5.438  20.101  0.00  0.00    +0.000 C 
BRANCH  21  22
ATOM     22  N   UNL     1       1.912   6.471  21.063  0.00  0.00    +0.000 N 
ATOM     23  H   UNL     1       2.853   6.384  21.439  0.00  0.00    +0.000 HD
BRANCH  22  26
ATOM     24  C   UNL     1       0.673   9.948  21.630  0.00  0.00    +0.000 A 
ATOM     25  C   UNL     1       1.110   8.622  21.842  0.00  0.00    +0.000 A 
ATOM     26  C   UNL     1       1.568   7.804  20.794  0.00  0.00    +0.000 A 
ATOM     27  C   UNL     1       1.532   8.339  19.506  0.00  0.00    +0.000 A 
ATOM     28  C   UNL     1       1.135   9.659  19.280  0.00  0.00    +0.000 A 
ATOM     29  C   UNL     1       0.720  10.475  20.335  0.00  0.00    +0.000 A 
ATOM     30 CL   UNL     1       0.360  12.108  19.913  0.00  0.00    +0.000 Cl
BRANCH  24  32
ATOM     31  C   UNL     1      -1.081  10.772  23.024  0.00  0.00    +0.000 C 
ATOM     32  O   UNL     1       0.311  10.591  22.788  0.00  0.00    +0.000 OA
ENDBRANCH  24  32
ENDBRANCH  22  26
ENDBRANCH  21  22
ENDBRANCH  20  21
ENDBRANCH  19  20
ENDBRANCH   1  19
TORSDOF 9
ENDMDL
MODEL 6
REMARK VINA RESULT:      -8.0      1.239      3.254
REMARK  Name = 
REMARK  10 active torsions:
REMARK  status: ('A' for Active; 'I' for Inactive)
REMARK    1  A    between atoms: C_1  and  O_2
REMARK    2  A    between atoms: O_2  and  C_3
REMARK    3  A    between atoms: C_5  and  N_6
REMARK    4  A    between atoms: N_6  and  C_7
REMARK    5  A    between atoms: C_7  and  C_8
REMARK    6  A    between atoms: C_8  and  C_9
REMARK    7  A    between atoms: C_9  and  N_10
REMARK    8  A    between atoms: C_11  and  C_13
REMARK    9  A    between atoms: C_15  and  C_16
REMARK   10  A    between atoms: C_21  and  C_22
REMARK                            x       y       z     vdW  Elec       q    Type
REMARK                         _______ _______ _______ _____ _____    ______ ____
ROOT
ATOM      1  N   UNL     1       3.440   2.990  19.868  0.00  0.00    +0.000 N 
ATOM      2  C   UNL     1       3.753   2.765  18.540  0.00  0.00    +0.000 C 
ATOM      3  O   UNL     1       3.241   1.894  17.853  0.00  0.00    +0.000 OA
ATOM      4  H   UNL     1       3.791   3.813  20.335  0.00  0.00    +0.000 HD
ENDROOT
BRANCH   2   5
ATOM      5  C   UNL     1       4.747   3.704  17.946  0.00  0.00    +0.000 A 
ATOM      6  C   UNL     1       4.712   4.028  16.586  0.00  0.00    +0.000 A 
ATOM      7  C   UNL     1       5.682   4.872  16.027  0.00  0.00    +0.000 A 
ATOM      8  C   UNL     1       6.674   5.415  16.860  0.00  0.00    +0.000 A 
ATOM      9  C   UNL     1       6.712   5.118  18.234  0.00  0.00    +0.000 A 
ATOM     10  C   UNL     1       5.733   4.262  18.770  0.00  0.00    +0.000 A 
BRANCH   7  11
ATOM     11  C   UNL     1       5.682   5.172  14.545  0.00  0.00    +0.000 C 
ATOM     12  F   UNL     1       5.128   6.379  14.243  0.00  0.00    +0.000 F 
ATOM     13  F   UNL     1       6.931   5.185  14.013  0.00  0.00    +0.000 F 
ATOM     14  F   UNL     1       4.974   4.250  13.837  0.00  0.00    +0.000 F 
ENDBRANCH   7  11
BRANCH   9  15
ATOM     15  C   UNL     1       7.798   5.680  19.123  0.00  0.00    +0.000 C 
ATOM     16  F   UNL     1       8.891   4.871  19.211  0.00  0.00    +0.000 F 
ATOM     17  F   UNL     1       8.259   6.885  18.694  0.00  0.00    +0.000 F 
ATOM     18  F   UNL     1       7.373   5.867  20.403  0.00  0.00    +0.000 F 
ENDBRANCH   9  15
ENDBRANCH   2   5
BRANCH   1  19
ATOM     19  C   UNL     1       2.461   2.189  20.571  0.00  0.00    +0.000 C 
BRANCH  19  20
ATOM     20  C   UNL     1       1.489   3.047  21.383  0.00  0.00    +0.000 C 
BRANCH  20  21
ATOM     21  C   UNL     1       1.182   4.330  20.616  0.00  0.00    +0.000 C 
BRANCH  21  22
ATOM     22  N   UNL     1       2.033   5.437  21.045  0.00  0.00    +0.000 N 
ATOM     23  H   UNL     1       2.964   5.166  21.353  0.00  0.00    +0.000 HD
BRANCH  22  26
ATOM     24  C   UNL     1       1.214   8.917  19.965  0.00  0.00    +0.000 A 
ATOM     25  C   UNL     1       1.308   7.728  20.720  0.00  0.00    +0.000 A 
ATOM     26  C   UNL     1       2.048   6.615  20.283  0.00  0.00    +0.000 A 
ATOM     27  C   UNL     1       2.660   6.709  19.032  0.00  0.00    +0.000 A 
ATOM     28  C   UNL     1       2.606   7.888  18.285  0.00  0.00    +0.000 A 
ATOM     29  C   UNL     1       1.901   9.001  18.750  0.00  0.00    +0.000 A 
ATOM     30 CL   UNL     1       2.014  10.413  17.767  0.00  0.00    +0.000 Cl
BRANCH  24  32
ATOM     31  C   UNL     1       0.577   9.979  22.006  0.00  0.00    +0.000 C 
ATOM     32  O   UNL     1       0.485   9.899  20.589  0.00  0.00    +0.000 OA
ENDBRANCH  24  32
ENDBRANCH  22  26
ENDBRANCH  21  22
ENDBRANCH  20  21
ENDBRANCH  19  20
ENDBRANCH   1  19
TORSDOF 9
ENDMDL
MODEL 7
REMARK VINA RESULT:      -7.8      0.486      3.245
REMARK  Name = 
REMARK  10 active torsions:
REMARK  status: ('A' for Active; 'I' for Inactive)
REMARK    1  A    between atoms: C_1  and  O_2
REMARK    2  A    between atoms: O_2  and  C_3
REMARK    3  A    between atoms: C_5  and  N_6
REMARK    4  A    between atoms: N_6  and  C_7
REMARK    5  A    between atoms: C_7  and  C_8
REMARK    6  A    between atoms: C_8  and  C_9
REMARK    7  A    between atoms: C_9  and  N_10
REMARK    8  A    between atoms: C_11  and  C_13
REMARK    9  A    between atoms: C_15  and  C_16
REMARK   10  A    between atoms: C_21  and  C_22
REMARK                            x       y       z     vdW  Elec       q    Type
REMARK                         _______ _______ _______ _____ _____    ______ ____
ROOT
ATOM      1  N   UNL     1       2.662   3.393  18.078  0.00  0.00    +0.000 N 
ATOM      2  C   UNL     1       4.012   3.383  18.378  0.00  0.00    +0.000 C 
ATOM      3  O   UNL     1       4.501   2.773  19.315  0.00  0.00    +0.000 OA
ATOM      4  H   UNL     1       2.342   3.797  17.210  0.00  0.00    +0.000 HD
ENDROOT
BRANCH   2   5
ATOM      5  C   UNL     1       4.885   4.140  17.435  0.00  0.00    +0.000 A 
ATOM      6  C   UNL     1       4.974   3.781  16.086  0.00  0.00    +0.000 A 
ATOM      7  C   UNL     1       5.838   4.466  15.220  0.00  0.00    +0.000 A 
ATOM      8  C   UNL     1       6.590   5.543  15.719  0.00  0.00    +0.000 A 
ATOM      9  C   UNL     1       6.496   5.933  17.067  0.00  0.00    +0.000 A 
ATOM     10  C   UNL     1       5.630   5.224  17.919  0.00  0.00    +0.000 A 
BRANCH   7  11
ATOM     11  C   UNL     1       5.982   4.038  13.777  0.00  0.00    +0.000 C 
ATOM     12  F   UNL     1       6.379   2.743  13.639  0.00  0.00    +0.000 F 
ATOM     13  F   UNL     1       4.824   4.157  13.078  0.00  0.00    +0.000 F 
ATOM     14  F   UNL     1       6.908   4.783  13.114  0.00  0.00    +0.000 F 
ENDBRANCH   7  11
BRANCH   9  15
ATOM     15  C   UNL     1       7.329   7.072  17.608  0.00  0.00    +0.000 C 
ATOM     16  F   UNL     1       8.024   6.742  18.733  0.00  0.00    +0.000 F 
ATOM     17  F   UNL     1       8.252   7.521  16.716  0.00  0.00    +0.000 F 
ATOM     18  F   UNL     1       6.571   8.151  17.947  0.00  0.00    +0.000 F 
ENDBRANCH   9  15
ENDBRANCH   2   5
BRANCH   1  19
ATOM     19  C   UNL     1       1.695   2.668  18.874  0.00  0.00    +0.000 C 
BRANCH  19  20
ATOM     20  C   UNL     1       1.785   3.026  20.358  0.00  0.00    +0.000 C 
BRANCH  20  21
ATOM     21  C   UNL     1       1.198   4.417  20.582  0.00  0.00    +0.000 C 
BRANCH  21  22
ATOM     22  N   UNL     1       2.239   5.423  20.766  0.00  0.00    +0.000 N 
ATOM     23  H   UNL     1       3.192   5.068  20.709  0.00  0.00    +0.000 HD
BRANCH  22  26
ATOM     24  C   UNL     1       1.036   8.898  20.114  0.00  0.00    +0.000 A 
ATOM     25  C   UNL     1       1.288   7.653  20.730  0.00  0.00    +0.000 A 
ATOM     26  C   UNL     1       2.098   6.668  20.136  0.00  0.00    +0.000 A 
ATOM     27  C   UNL     1       2.618   6.950  18.872  0.00  0.00    +0.000 A 
ATOM     28  C   UNL     1       2.409   8.189  18.261  0.00  0.00    +0.000 A 
ATOM     29  C   UNL     1       1.634   9.173  18.880  0.00  0.00    +0.000 A 
ATOM     30 CL   UNL     1       1.554  10.683  18.050  0.00  0.00    +0.000 Cl
BRANCH  24  32
ATOM     31  C   UNL     1       0.733  10.052  22.182  0.00  0.00    +0.000 C 
ATOM     32  O   UNL     1       0.260   9.734  20.878  0.00  0.00    +0.000 OA
ENDBRANCH  24  32
ENDBRANCH  22  26
ENDBRANCH  21  22
ENDBRANCH  20  21
ENDBRANCH  19  20
ENDBRANCH   1  19
TORSDOF 9
ENDMDL
MODEL 8
REMARK VINA RESULT:      -7.8      4.453      6.047
REMARK  Name = 
REMARK  10 active torsions:
REMARK  status: ('A' for Active; 'I' for Inactive)
REMARK    1  A    between atoms: C_1  and  O_2
REMARK    2  A    between atoms: O_2  and  C_3
REMARK    3  A    between atoms: C_5  and  N_6
REMARK    4  A    between atoms: N_6  and  C_7
REMARK    5  A    between atoms: C_7  and  C_8
REMARK    6  A    between atoms: C_8  and  C_9
REMARK    7  A    between atoms: C_9  and  N_10
REMARK    8  A    between atoms: C_11  and  C_13
REMARK    9  A    between atoms: C_15  and  C_16
REMARK   10  A    between atoms: C_21  and  C_22
REMARK                            x       y       z     vdW  Elec       q    Type
REMARK                         _______ _______ _______ _____ _____    ______ ____
ROOT
ATOM      1  N   UNL     1       1.802   7.658  20.727  0.00  0.00    +0.000 N 
ATOM      2  C   UNL     1       2.168   7.605  19.394  0.00  0.00    +0.000 C 
ATOM      3  O   UNL     1       2.125   8.558  18.633  0.00  0.00    +0.000 OA
ATOM      4  H   UNL     1       1.997   6.876  21.334  0.00  0.00    +0.000 HD
ENDROOT
BRANCH   2   5
ATOM      5  C   UNL     1       2.688   6.290  18.923  0.00  0.00    +0.000 A 
ATOM      6  C   UNL     1       2.314   5.097  19.552  0.00  0.00    +0.000 A 
ATOM      7  C   UNL     1       2.850   3.870  19.134  0.00  0.00    +0.000 A 
ATOM      8  C   UNL     1       3.745   3.852  18.051  0.00  0.00    +0.000 A 
ATOM      9  C   UNL     1       4.115   5.038  17.393  0.00  0.00    +0.000 A 
ATOM     10  C   UNL     1       3.572   6.257  17.836  0.00  0.00    +0.000 A 
BRANCH   7  11
ATOM     11  C   UNL     1       2.494   2.589  19.853  0.00  0.00    +0.000 C 
ATOM     12  F   UNL     1       2.289   1.540  19.009  0.00  0.00    +0.000 F 
ATOM     13  F   UNL     1       3.458   2.192  20.724  0.00  0.00    +0.000 F 
ATOM     14  F   UNL     1       1.350   2.711  20.578  0.00  0.00    +0.000 F 
ENDBRANCH   7  11
BRANCH   9  15
ATOM     15  C   UNL     1       5.103   5.018  16.248  0.00  0.00    +0.000 C 
ATOM     16  F   UNL     1       4.748   4.162  15.249  0.00  0.00    +0.000 F 
ATOM     17  F   UNL     1       5.254   6.235  15.662  0.00  0.00    +0.000 F 
ATOM     18  F   UNL     1       6.346   4.629  16.645  0.00  0.00    +0.000 F 
ENDBRANCH   9  15
ENDBRANCH   2   5
BRANCH   1  19
ATOM     19  C   UNL     1       1.320   8.877  21.341  0.00  0.00    +0.000 C 
BRANCH  19  20
ATOM     20  C   UNL     1      -0.145   9.155  21.000  0.00  0.00    +0.000 C 
BRANCH  20  21
ATOM     21  C   UNL     1      -0.233  10.401  20.123  0.00  0.00    +0.000 C 
BRANCH  21  22
ATOM     22  N   UNL     1      -0.730  10.090  18.786  0.00  0.00    +0.000 N 
ATOM     23  H   UNL     1      -0.612   9.120  18.501  0.00  0.00    +0.000 HD
BRANCH  22  26
ATOM     24  C   UNL     1      -3.634  10.908  16.585  0.00  0.00    +0.000 A 
ATOM     25  C   UNL     1      -2.439  10.349  17.085  0.00  0.00    +0.000 A 
ATOM     26  C   UNL     1      -1.967  10.616  18.383  0.00  0.00    +0.000 A 
ATOM     27  C   UNL     1      -2.709  11.506  19.160  0.00  0.00    +0.000 A 
ATOM     28  C   UNL     1      -3.913  12.043  18.696  0.00  0.00    +0.000 A 
ATOM     29  C   UNL     1      -4.390  11.739  17.420  0.00  0.00    +0.000 A 
ATOM     30 CL   UNL     1      -5.938  12.395  17.031  0.00  0.00    +0.000 Cl
BRANCH  24  32
ATOM     31  C   UNL     1      -2.878   9.965  14.527  0.00  0.00    +0.000 C 
ATOM     32  O   UNL     1      -3.942  10.486  15.316  0.00  0.00    +0.000 OA
ENDBRANCH  24  32
ENDBRANCH  22  26
ENDBRANCH  21  22
ENDBRANCH  20  21
ENDBRANCH  19  20
ENDBRANCH   1  19
TORSDOF 9
ENDMDL
MODEL 9
REMARK VINA RESULT:      -7.8      1.101      1.475
REMARK  Name = 
REMARK  10 active torsions:
REMARK  status: ('A' for Active; 'I' for Inactive)
REMARK    1  A    between atoms: C_1  and  O_2
REMARK    2  A    between atoms: O_2  and  C_3
REMARK    3  A    between atoms: C_5  and  N_6
REMARK    4  A    between atoms: N_6  and  C_7
REMARK    5  A    between atoms: C_7  and  C_8
REMARK    6  A    between atoms: C_8  and  C_9
REMARK    7  A    between atoms: C_9  and  N_10
REMARK    8  A    between atoms: C_11  and  C_13
REMARK    9  A    between atoms: C_15  and  C_16
REMARK   10  A    between atoms: C_21  and  C_22
REMARK                            x       y       z     vdW  Elec       q    Type
REMARK                         _______ _______ _______ _____ _____    ______ ____
ROOT
ATOM      1  N   UNL     1       3.508   3.131  18.949  0.00  0.00    +0.000 N 
ATOM      2  C   UNL     1       3.275   3.497  17.635  0.00  0.00    +0.000 C 
ATOM      3  O   UNL     1       2.202   3.364  17.068  0.00  0.00    +0.000 OA
ATOM      4  H   UNL     1       4.370   3.399  19.401  0.00  0.00    +0.000 HD
ENDROOT
BRANCH   2   5
ATOM      5  C   UNL     1       4.425   4.134  16.932  0.00  0.00    +0.000 A 
ATOM      6  C   UNL     1       5.197   5.119  17.556  0.00  0.00    +0.000 A 
ATOM      7  C   UNL     1       6.244   5.749  16.867  0.00  0.00    +0.000 A 
ATOM      8  C   UNL     1       6.528   5.352  15.550  0.00  0.00    +0.000 A 
ATOM      9  C   UNL     1       5.777   4.347  14.915  0.00  0.00    +0.000 A 
ATOM     10  C   UNL     1       4.726   3.737  15.622  0.00  0.00    +0.000 A 
BRANCH   7  11
ATOM     11  C   UNL     1       7.038   6.858  17.518  0.00  0.00    +0.000 C 
ATOM     12  F   UNL     1       7.666   6.467  18.662  0.00  0.00    +0.000 F 
ATOM     13  F   UNL     1       8.006   7.356  16.706  0.00  0.00    +0.000 F 
ATOM     14  F   UNL     1       6.252   7.912  17.867  0.00  0.00    +0.000 F 
ENDBRANCH   7  11
BRANCH   9  15
ATOM     15  C   UNL     1       6.065   3.944  13.486  0.00  0.00    +0.000 C 
ATOM     16  F   UNL     1       4.989   4.081  12.662  0.00  0.00    +0.000 F 
ATOM     17  F   UNL     1       7.063   4.676  12.923  0.00  0.00    +0.000 F 
ATOM     18  F   UNL     1       6.444   2.640  13.384  0.00  0.00    +0.000 F 
ENDBRANCH   9  15
ENDBRANCH   2   5
BRANCH   1  19
ATOM     19  C   UNL     1       2.476   2.542  19.775  0.00  0.00    +0.000 C 
BRANCH  19  20
ATOM     20  C   UNL     1       2.272   3.313  21.081  0.00  0.00    +0.000 C 
BRANCH  20  21
ATOM     21  C   UNL     1       1.683   4.687  20.772  0.00  0.00    +0.000 C 
BRANCH  21  22
ATOM     22  N   UNL     1       2.720   5.661  20.444  0.00  0.00    +0.000 N 
ATOM     23  H   UNL     1       3.537   5.274  19.976  0.00  0.00    +0.000 HD
BRANCH  22  26
ATOM     24  C   UNL     1       1.210   9.071  20.248  0.00  0.00    +0.000 A 
ATOM     25  C   UNL     1       1.691   7.836  20.736  0.00  0.00    +0.000 A 
ATOM     26  C   UNL     1       2.340   6.901  19.910  0.00  0.00    +0.000 A 
ATOM     27  C   UNL     1       2.456   7.219  18.557  0.00  0.00    +0.000 A 
ATOM     28  C   UNL     1       2.017   8.450  18.061  0.00  0.00    +0.000 A 
ATOM     29  C   UNL     1       1.409   9.386  18.900  0.00  0.00    +0.000 A 
ATOM     30 CL   UNL     1       1.016  10.896  18.164  0.00  0.00    +0.000 Cl
BRANCH  24  32
ATOM     31  C   UNL     1      -0.665  10.349  20.988  0.00  0.00    +0.000 C 
ATOM     32  O   UNL     1       0.650   9.859  21.223  0.00  0.00    +0.000 OA
ENDBRANCH  24  32
ENDBRANCH  22  26
ENDBRANCH  21  22
ENDBRANCH  20  21
ENDBRANCH  19  20
ENDBRANCH   1  19
TORSDOF 9
ENDMDL
