MODEL 1
REMARK VINA RESULT:      -6.4      0.000      0.000
REMARK  Name = 
REMARK  2 active torsions:
REMARK  status: ('A' for Active; 'I' for Inactive)
REMARK    1  A    between atoms: C_2  and  C_3
REMARK    2  A    between atoms: N_5  and  C_6
REMARK                            x       y       z     vdW  Elec       q    Type
REMARK                         _______ _______ _______ _____ _____    ______ ____
ROOT
ATOM      1  C   UNL     1       4.598   4.376  18.161  0.00  0.00    +0.000 C 
ATOM      2  C   UNL     1       3.958   5.030  19.433  0.00  0.00    +0.000 C 
ATOM      3  N   UNL     1       2.761   4.281  19.887  0.00  0.00    +0.000 NA
ATOM      4  C   UNL     1       1.764   4.220  18.791  0.00  0.00    +0.000 C 
ATOM      5  C   UNL     1       2.332   3.473  17.558  0.00  0.00    +0.000 C 
ATOM      6  C   UNL     1       3.794   3.088  17.833  0.00  0.00    +0.000 C 
ATOM      7  C   UNL     1       3.817   2.166  19.075  0.00  0.00    +0.000 C 
ATOM      8  C   UNL     1       3.163   2.907  20.269  0.00  0.00    +0.000 C 
ENDROOT
BRANCH   1  11
ATOM      9  N   UNL     1       8.226   4.102  17.674  0.00  0.00    +0.000 NA
ATOM     10  C   UNL     1       7.084   4.689  17.700  0.00  0.00    +0.000 C 
ATOM     11  N   UNL     1       5.997   4.037  18.371  0.00  0.00    +0.000 N 
ATOM     12  H   UNL     1       9.045   4.522  17.210  0.00  0.00    +0.000 HD
ATOM     13  H   UNL     1       6.229   3.223  18.957  0.00  0.00    +0.000 HD
BRANCH  10  14
ATOM     14  C   UNL     1       6.943   6.051  17.054  0.00  0.00    +0.000 C 
ATOM     15 CL   UNL     1       7.810   7.298  17.984  0.00  0.00    +0.000 Cl
ENDBRANCH  10  14
ENDBRANCH   1  11
TORSDOF 2
ENDMDL
MODEL 2
REMARK VINA RESULT:      -6.4      1.003      1.540
REMARK  Name = 
REMARK  2 active torsions:
REMARK  status: ('A' for Active; 'I' for Inactive)
REMARK    1  A    between atoms: C_2  and  C_3
REMARK    2  A    between atoms: N_5  and  C_6
REMARK                            x       y       z     vdW  Elec       q    Type
REMARK                         _______ _______ _______ _____ _____    ______ ____
ROOT
ATOM      1  C   UNL     1       4.759   4.260  18.952  0.00  0.00    +0.000 C 
ATOM      2  C   UNL     1       4.035   3.113  19.737  0.00  0.00    +0.000 C 
ATOM      3  N   UNL     1       2.644   2.920  19.258  0.00  0.00    +0.000 NA
ATOM      4  C   UNL     1       1.887   4.187  19.397  0.00  0.00    +0.000 C 
ATOM      5  C   UNL     1       2.515   5.312  18.536  0.00  0.00    +0.000 C 
ATOM      6  C   UNL     1       3.785   4.775  17.857  0.00  0.00    +0.000 C 
ATOM      7  C   UNL     1       3.376   3.582  16.962  0.00  0.00    +0.000 C 
ATOM      8  C   UNL     1       2.671   2.511  17.835  0.00  0.00    +0.000 C 
ENDROOT
BRANCH   1  11
ATOM      9  N   UNL     1       7.963   4.244  17.160  0.00  0.00    +0.000 NA
ATOM     10  C   UNL     1       7.092   4.657  18.009  0.00  0.00    +0.000 C 
ATOM     11  N   UNL     1       5.990   3.797  18.329  0.00  0.00    +0.000 N 
ATOM     12  H   UNL     1       8.777   4.815  16.892  0.00  0.00    +0.000 HD
ATOM     13  H   UNL     1       6.049   2.820  18.009  0.00  0.00    +0.000 HD
BRANCH  10  14
ATOM     14  C   UNL     1       7.282   6.013  18.654  0.00  0.00    +0.000 C 
ATOM     15 CL   UNL     1       7.601   7.269  17.432  0.00  0.00    +0.000 Cl
ENDBRANCH  10  14
ENDBRANCH   1  11
TORSDOF 2
ENDMDL
MODEL 3
REMARK VINA RESULT:      -6.2      1.112      1.112
REMARK  Name = 
REMARK  2 active torsions:
REMARK  status: ('A' for Active; 'I' for Inactive)
REMARK    1  A    between atoms: C_2  and  C_3
REMARK    2  A    between atoms: N_5  and  C_6
REMARK                            x       y       z     vdW  Elec       q    Type
REMARK                         _______ _______ _______ _____ _____    ______ ____
ROOT
ATOM      1  C   UNL     1       4.529   4.303  18.125  0.00  0.00    +0.000 C 
ATOM      2  C   UNL     1       3.816   5.013  19.326  0.00  0.00    +0.000 C 
ATOM      3  N   UNL     1       2.666   4.217  19.822  0.00  0.00    +0.000 NA
ATOM      4  C   UNL     1       1.701   3.991  18.719  0.00  0.00    +0.000 C 
ATOM      5  C   UNL     1       2.350   3.187  17.564  0.00  0.00    +0.000 C 
ATOM      6  C   UNL     1       3.829   2.936  17.895  0.00  0.00    +0.000 C 
ATOM      7  C   UNL     1       3.890   2.126  19.211  0.00  0.00    +0.000 C 
ATOM      8  C   UNL     1       3.157   2.914  20.327  0.00  0.00    +0.000 C 
ENDROOT
BRANCH   1  11
ATOM      9  N   UNL     1       8.165   4.097  17.660  0.00  0.00    +0.000 NA
ATOM     10  C   UNL     1       6.996   4.620  17.569  0.00  0.00    +0.000 C 
ATOM     11  N   UNL     1       5.945   4.087  18.386  0.00  0.00    +0.000 N 
ATOM     12  H   UNL     1       8.961   4.439  17.100  0.00  0.00    +0.000 HD
ATOM     13  H   UNL     1       6.218   3.440  19.138  0.00  0.00    +0.000 HD
BRANCH  10  14
ATOM     14  C   UNL     1       6.785   5.791  16.632  0.00  0.00    +0.000 C 
ATOM     15 CL   UNL     1       6.148   5.250  15.059  0.00  0.00    +0.000 Cl
ENDBRANCH  10  14
ENDBRANCH   1  11
TORSDOF 2
ENDMDL
MODEL 4
REMARK VINA RESULT:      -6.1      2.849      4.698
REMARK  Name = 
REMARK  2 active torsions:
REMARK  status: ('A' for Active; 'I' for Inactive)
REMARK    1  A    between atoms: C_2  and  C_3
REMARK    2  A    between atoms: N_5  and  C_6
REMARK                            x       y       z     vdW  Elec       q    Type
REMARK                         _______ _______ _______ _____ _____    ______ ____
ROOT
ATOM      1  C   UNL     1       4.946   4.344  18.241  0.00  0.00    +0.000 C 
ATOM      2  C   UNL     1       4.591   3.942  16.768  0.00  0.00    +0.000 C 
ATOM      3  N   UNL     1       5.414   4.690  15.786  0.00  0.00    +0.000 NA
ATOM      4  C   UNL     1       5.218   6.147  15.976  0.00  0.00    +0.000 C 
ATOM      5  C   UNL     1       5.673   6.593  17.389  0.00  0.00    +0.000 C 
ATOM      6  C   UNL     1       6.121   5.359  18.186  0.00  0.00    +0.000 C 
ATOM      7  C   UNL     1       7.299   4.706  17.427  0.00  0.00    +0.000 C 
ATOM      8  C   UNL     1       6.841   4.350  15.988  0.00  0.00    +0.000 C 
ENDROOT
BRANCH   1  11
ATOM      9  N   UNL     1       5.003   1.797  20.884  0.00  0.00    +0.000 NA
ATOM     10  C   UNL     1       4.474   2.556  19.993  0.00  0.00    +0.000 C 
ATOM     11  N   UNL     1       5.336   3.191  19.039  0.00  0.00    +0.000 N 
ATOM     12  H   UNL     1       4.436   1.312  21.594  0.00  0.00    +0.000 HD
ATOM     13  H   UNL     1       6.311   2.863  18.996  0.00  0.00    +0.000 HD
BRANCH  10  14
ATOM     14  C   UNL     1       2.969   2.721  19.969  0.00  0.00    +0.000 C 
ATOM     15 CL   UNL     1       2.300   2.766  21.619  0.00  0.00    +0.000 Cl
ENDBRANCH  10  14
ENDBRANCH   1  11
TORSDOF 2
ENDMDL
MODEL 5
REMARK VINA RESULT:      -6.0      1.386      2.083
REMARK  Name = 
REMARK  2 active torsions:
REMARK  status: ('A' for Active; 'I' for Inactive)
REMARK    1  A    between atoms: C_2  and  C_3
REMARK    2  A    between atoms: N_5  and  C_6
REMARK                            x       y       z     vdW  Elec       q    Type
REMARK                         _______ _______ _______ _____ _____    ______ ____
ROOT
ATOM      1  C   UNL     1       3.946   3.844  19.503  0.00  0.00    +0.000 C 
ATOM      2  C   UNL     1       3.274   2.539  20.053  0.00  0.00    +0.000 C 
ATOM      3  N   UNL     1       1.798   2.587  19.915  0.00  0.00    +0.000 NA
ATOM      4  C   UNL     1       1.267   3.772  20.630  0.00  0.00    +0.000 C 
ATOM      5  C   UNL     1       1.826   5.086  20.028  0.00  0.00    +0.000 C 
ATOM      6  C   UNL     1       2.825   4.743  18.913  0.00  0.00    +0.000 C 
ATOM      7  C   UNL     1       2.069   3.938  17.830  0.00  0.00    +0.000 C 
ATOM      8  C   UNL     1       1.446   2.675  18.478  0.00  0.00    +0.000 C 
ENDROOT
BRANCH   1  11
ATOM      9  N   UNL     1       6.651   4.256  17.056  0.00  0.00    +0.000 NA
ATOM     10  C   UNL     1       6.055   4.396  18.185  0.00  0.00    +0.000 C 
ATOM     11  N   UNL     1       4.931   3.554  18.472  0.00  0.00    +0.000 N 
ATOM     12  H   UNL     1       7.466   4.831  16.795  0.00  0.00    +0.000 HD
ATOM     13  H   UNL     1       4.771   2.755  17.842  0.00  0.00    +0.000 HD
BRANCH  10  14
ATOM     14  C   UNL     1       6.582   5.415  19.173  0.00  0.00    +0.000 C 
ATOM     15 CL   UNL     1       7.737   6.527  18.397  0.00  0.00    +0.000 Cl
ENDBRANCH  10  14
ENDBRANCH   1  11
TORSDOF 2
ENDMDL
MODEL 6
REMARK VINA RESULT:      -6.0      1.307      1.651
REMARK  Name = 
REMARK  2 active torsions:
REMARK  status: ('A' for Active; 'I' for Inactive)
REMARK    1  A    between atoms: C_2  and  C_3
REMARK    2  A    between atoms: N_5  and  C_6
REMARK                            x       y       z     vdW  Elec       q    Type
REMARK                         _______ _______ _______ _____ _____    ______ ____
ROOT
ATOM      1  C   UNL     1       4.987   4.151  18.402  0.00  0.00    +0.000 C 
ATOM      2  C   UNL     1       3.940   5.161  17.819  0.00  0.00    +0.000 C 
ATOM      3  N   UNL     1       2.555   4.649  17.956  0.00  0.00    +0.000 NA
ATOM      4  C   UNL     1       2.435   3.340  17.270  0.00  0.00    +0.000 C 
ATOM      5  C   UNL     1       3.377   2.286  17.906  0.00  0.00    +0.000 C 
ATOM      6  C   UNL     1       4.205   2.956  19.013  0.00  0.00    +0.000 C 
ATOM      7  C   UNL     1       3.223   3.503  20.075  0.00  0.00    +0.000 C 
ATOM      8  C   UNL     1       2.236   4.487  19.394  0.00  0.00    +0.000 C 
ENDROOT
BRANCH   1  11
ATOM      9  N   UNL     1       7.883   5.605  20.127  0.00  0.00    +0.000 NA
ATOM     10  C   UNL     1       7.066   5.417  19.153  0.00  0.00    +0.000 C 
ATOM     11  N   UNL     1       5.819   4.763  19.426  0.00  0.00    +0.000 N 
ATOM     12  H   UNL     1       8.793   6.071  19.993  0.00  0.00    +0.000 HD
ATOM     13  H   UNL     1       5.559   4.645  20.415  0.00  0.00    +0.000 HD
BRANCH  10  14
ATOM     14  C   UNL     1       7.438   5.919  17.774  0.00  0.00    +0.000 C 
ATOM     15 CL   UNL     1       7.800   7.663  17.800  0.00  0.00    +0.000 Cl
ENDBRANCH  10  14
ENDBRANCH   1  11
TORSDOF 2
ENDMDL
MODEL 7
REMARK VINA RESULT:      -5.8      2.780      4.921
REMARK  Name = 
REMARK  2 active torsions:
REMARK  status: ('A' for Active; 'I' for Inactive)
REMARK    1  A    between atoms: C_2  and  C_3
REMARK    2  A    between atoms: N_5  and  C_6
REMARK                            x       y       z     vdW  Elec       q    Type
REMARK                         _______ _______ _______ _____ _____    ______ ____
ROOT
ATOM      1  C   UNL     1       5.801   4.980  18.619  0.00  0.00    +0.000 C 
ATOM      2  C   UNL     1       5.053   5.725  17.461  0.00  0.00    +0.000 C 
ATOM      3  N   UNL     1       6.005   6.390  16.538  0.00  0.00    +0.000 NA
ATOM      4  C   UNL     1       6.851   7.345  17.294  0.00  0.00    +0.000 C 
ATOM      5  C   UNL     1       7.692   6.615  18.372  0.00  0.00    +0.000 C 
ATOM      6  C   UNL     1       7.327   5.123  18.369  0.00  0.00    +0.000 C 
ATOM      7  C   UNL     1       7.650   4.558  16.967  0.00  0.00    +0.000 C 
ATOM      8  C   UNL     1       6.863   5.364  15.901  0.00  0.00    +0.000 C 
ENDROOT
BRANCH   1  11
ATOM      9  N   UNL     1       4.402   1.781  19.756  0.00  0.00    +0.000 NA
ATOM     10  C   UNL     1       4.406   3.041  19.508  0.00  0.00    +0.000 C 
ATOM     11  N   UNL     1       5.447   3.569  18.674  0.00  0.00    +0.000 N 
ATOM     12  H   UNL     1       3.679   1.344  20.346  0.00  0.00    +0.000 HD
ATOM     13  H   UNL     1       6.029   2.890  18.165  0.00  0.00    +0.000 HD
BRANCH  10  14
ATOM     14  C   UNL     1       3.300   3.905  20.075  0.00  0.00    +0.000 C 
ATOM     15 CL   UNL     1       2.454   3.077  21.406  0.00  0.00    +0.000 Cl
ENDBRANCH  10  14
ENDBRANCH   1  11
TORSDOF 2
ENDMDL
MODEL 8
REMARK VINA RESULT:      -5.8      1.564      1.581
REMARK  Name = 
REMARK  2 active torsions:
REMARK  status: ('A' for Active; 'I' for Inactive)
REMARK    1  A    between atoms: C_2  and  C_3
REMARK    2  A    between atoms: N_5  and  C_6
REMARK                            x       y       z     vdW  Elec       q    Type
REMARK                         _______ _______ _______ _____ _____    ______ ____
ROOT
ATOM      1  C   UNL     1       4.424   5.213  18.572  0.00  0.00    +0.000 C 
ATOM      2  C   UNL     1       3.044   5.710  19.124  0.00  0.00    +0.000 C 
ATOM      3  N   UNL     1       2.038   4.620  19.134  0.00  0.00    +0.000 NA
ATOM      4  C   UNL     1       1.872   4.078  17.763  0.00  0.00    +0.000 C 
ATOM      5  C   UNL     1       3.198   3.473  17.237  0.00  0.00    +0.000 C 
ATOM      6  C   UNL     1       4.301   3.691  18.284  0.00  0.00    +0.000 C 
ATOM      7  C   UNL     1       3.868   2.979  19.586  0.00  0.00    +0.000 C 
ATOM      8  C   UNL     1       2.497   3.542  20.041  0.00  0.00    +0.000 C 
ENDROOT
BRANCH   1  11
ATOM      9  N   UNL     1       7.778   5.421  20.051  0.00  0.00    +0.000 NA
ATOM     10  C   UNL     1       6.880   5.577  19.146  0.00  0.00    +0.000 C 
ATOM     11  N   UNL     1       5.502   5.443  19.523  0.00  0.00    +0.000 N 
ATOM     12  H   UNL     1       8.783   5.507  19.842  0.00  0.00    +0.000 HD
ATOM     13  H   UNL     1       5.292   5.413  20.530  0.00  0.00    +0.000 HD
BRANCH  10  14
ATOM     14  C   UNL     1       7.309   5.926  17.737  0.00  0.00    +0.000 C 
ATOM     15 CL   UNL     1       7.424   4.468  16.720  0.00  0.00    +0.000 Cl
ENDBRANCH  10  14
ENDBRANCH   1  11
TORSDOF 2
ENDMDL
MODEL 9
REMARK VINA RESULT:      -5.8      2.394      4.891
REMARK  Name = 
REMARK  2 active torsions:
REMARK  status: ('A' for Active; 'I' for Inactive)
REMARK    1  A    between atoms: C_2  and  C_3
REMARK    2  A    between atoms: N_5  and  C_6
REMARK                            x       y       z     vdW  Elec       q    Type
REMARK                         _______ _______ _______ _____ _____    ______ ____
ROOT
ATOM      1  C   UNL     1       5.325   4.555  17.991  0.00  0.00    +0.000 C 
ATOM      2  C   UNL     1       6.891   4.544  18.039  0.00  0.00    +0.000 C 
ATOM      3  N   UNL     1       7.476   5.302  16.906  0.00  0.00    +0.000 NA
ATOM      4  C   UNL     1       7.002   4.729  15.623  0.00  0.00    +0.000 C 
ATOM      5  C   UNL     1       5.461   4.834  15.498  0.00  0.00    +0.000 C 
ATOM      6  C   UNL     1       4.892   5.440  16.790  0.00  0.00    +0.000 C 
ATOM      7  C   UNL     1       5.512   6.846  16.968  0.00  0.00    +0.000 C 
ATOM      8  C   UNL     1       7.057   6.719  17.001  0.00  0.00    +0.000 C 
ENDROOT
BRANCH   1  11
ATOM      9  N   UNL     1       2.881   5.655  20.500  0.00  0.00    +0.000 NA
ATOM     10  C   UNL     1       3.387   4.875  19.614  0.00  0.00    +0.000 C 
ATOM     11  N   UNL     1       4.749   5.085  19.218  0.00  0.00    +0.000 N 
ATOM     12  H   UNL     1       1.909   5.552  20.826  0.00  0.00    +0.000 HD
ATOM     13  H   UNL     1       5.311   5.727  19.795  0.00  0.00    +0.000 HD
BRANCH  10  14
ATOM     14  C   UNL     1       2.539   3.755  19.051  0.00  0.00    +0.000 C 
ATOM     15 CL   UNL     1       1.559   4.318  17.674  0.00  0.00    +0.000 Cl
ENDBRANCH  10  14
ENDBRANCH   1  11
TORSDOF 2
ENDMDL
