MODEL 1
REMARK VINA RESULT:      -7.4      0.000      0.000
REMARK  Name = 
REMARK  11 active torsions:
REMARK  status: ('A' for Active; 'I' for Inactive)
REMARK    1  A    between atoms: C_1  and  O_2
REMARK    2  A    between atoms: O_2  and  C_3
REMARK    3  A    between atoms: C_5  and  C_6
REMARK    4  A    between atoms: C_9  and  C_10
REMARK    5  A    between atoms: N_16  and  C_17
REMARK    6  A    between atoms: C_21  and  N_22
REMARK    7  A    between atoms: C_23  and  C_24
REMARK    8  A    between atoms: C_30  and  O_31
REMARK    9  A    between atoms: O_31  and  C_32
REMARK   10  A    between atoms: C_33  and  O_34
REMARK   11  A    between atoms: O_34  and  C_35
REMARK                            x       y       z     vdW  Elec       q    Type
REMARK                         _______ _______ _______ _____ _____    ______ ____
ROOT
ATOM      1  C   UNL     1       2.729   9.086  18.543  0.00  0.00    +0.000 C 
ATOM      2  C   UNL     1       1.740   9.980  18.376  0.00  0.00    +0.000 C 
ATOM      3  S   UNL     1       1.859  11.587  19.003  0.00  0.00    +0.000 S 
ATOM      4  C   UNL     1       0.064  11.537  19.432  0.00  0.00    +0.000 C 
ATOM      5  N   UNL     1      -0.552  10.643  18.458  0.00  0.00    +0.000 N 
ATOM      6  C   UNL     1       0.359   9.760  17.842  0.00  0.00    +0.000 C 
ATOM      7  O   UNL     1       0.143   8.941  16.959  0.00  0.00    +0.000 OA
ENDROOT
BRANCH   1  10
ATOM      8  C   UNL     1       3.753   5.619  17.421  0.00  0.00    +0.000 A 
ATOM      9  C   UNL     1       3.544   7.015  17.445  0.00  0.00    +0.000 A 
ATOM     10  C   UNL     1       2.706   7.617  18.388  0.00  0.00    +0.000 A 
ATOM     11  C   UNL     1       2.046   6.776  19.284  0.00  0.00    +0.000 A 
ATOM     12  C   UNL     1       2.173   5.380  19.238  0.00  0.00    +0.000 A 
ATOM     13  C   UNL     1       3.021   4.776  18.286  0.00  0.00    +0.000 A 
BRANCH   8  15
ATOM     14  C   UNL     1       5.365   6.011  15.730  0.00  0.00    +0.000 C 
ATOM     15  O   UNL     1       4.669   5.075  16.554  0.00  0.00    +0.000 OA
ENDBRANCH   8  15
BRANCH  12  16
ATOM     16  O   UNL     1       1.425   4.789  20.227  0.00  0.00    +0.000 OA
ATOM     17  C   UNL     1       2.062   4.258  21.376  0.00  0.00    +0.000 C 
ENDBRANCH  12  16
BRANCH  13  18
ATOM     18  O   UNL     1       3.054   3.411  18.311  0.00  0.00    +0.000 OA
ATOM     19  C   UNL     1       4.094   2.697  18.955  0.00  0.00    +0.000 C 
ENDBRANCH  13  18
ENDBRANCH   1  10
BRANCH   4  20
ATOM     20  C   UNL     1      -0.076  11.093  20.887  0.00  0.00    +0.000 A 
ATOM     21  C   UNL     1       0.442   9.848  21.283  0.00  0.00    +0.000 A 
ATOM     22  C   UNL     1       0.183   9.337  22.559  0.00  0.00    +0.000 A 
ATOM     23  C   UNL     1      -0.600  10.058  23.457  0.00  0.00    +0.000 A 
ATOM     24  C   UNL     1      -1.093  11.308  23.096  0.00  0.00    +0.000 A 
ATOM     25  C   UNL     1      -0.820  11.826  21.831  0.00  0.00    +0.000 A 
ENDBRANCH   4  20
BRANCH   5  26
ATOM     26  C   UNL     1      -1.966  10.690  18.182  0.00  0.00    +0.000 A 
ATOM     27  C   UNL     1      -2.562   9.788  17.291  0.00  0.00    +0.000 A 
ATOM     28  C   UNL     1      -3.926   9.841  16.999  0.00  0.00    +0.000 A 
ATOM     29  C   UNL     1      -4.735  10.808  17.583  0.00  0.00    +0.000 A 
ATOM     30  C   UNL     1      -4.193  11.725  18.478  0.00  0.00    +0.000 A 
ATOM     31  C   UNL     1      -2.817  11.647  18.783  0.00  0.00    +0.000 A 
BRANCH  30  32
ATOM     32  N   UNL     1      -4.954  12.767  19.062  0.00  0.00    +0.000 N 
ATOM     33  C   UNL     1      -5.819  12.657  20.139  0.00  0.00    +0.000 C 
ATOM     34  C   UNL     1      -6.612  13.912  20.401  0.00  0.00    +0.000 C 
ATOM     35  O   UNL     1      -5.967  11.677  20.864  0.00  0.00    +0.000 OA
ATOM     36  H   UNL     1      -4.839  13.689  18.661  0.00  0.00    +0.000 HD
ENDBRANCH  30  32
ENDBRANCH   5  26
TORSDOF 7
ENDMDL
MODEL 2
REMARK VINA RESULT:      -7.4      1.023      1.314
REMARK  Name = 
REMARK  11 active torsions:
REMARK  status: ('A' for Active; 'I' for Inactive)
REMARK    1  A    between atoms: C_1  and  O_2
REMARK    2  A    between atoms: O_2  and  C_3
REMARK    3  A    between atoms: C_5  and  C_6
REMARK    4  A    between atoms: C_9  and  C_10
REMARK    5  A    between atoms: N_16  and  C_17
REMARK    6  A    between atoms: C_21  and  N_22
REMARK    7  A    between atoms: C_23  and  C_24
REMARK    8  A    between atoms: C_30  and  O_31
REMARK    9  A    between atoms: O_31  and  C_32
REMARK   10  A    between atoms: C_33  and  O_34
REMARK   11  A    between atoms: O_34  and  C_35
REMARK                            x       y       z     vdW  Elec       q    Type
REMARK                         _______ _______ _______ _____ _____    ______ ____
ROOT
ATOM      1  C   UNL     1       2.529   8.958  18.896  0.00  0.00    +0.000 C 
ATOM      2  C   UNL     1       1.601   9.867  18.549  0.00  0.00    +0.000 C 
ATOM      3  S   UNL     1       1.647  11.484  19.159  0.00  0.00    +0.000 S 
ATOM      4  C   UNL     1      -0.195  11.475  19.281  0.00  0.00    +0.000 C 
ATOM      5  N   UNL     1      -0.658  10.573  18.232  0.00  0.00    +0.000 N 
ATOM      6  C   UNL     1       0.324   9.660  17.794  0.00  0.00    +0.000 C 
ATOM      7  O   UNL     1       0.243   8.827  16.902  0.00  0.00    +0.000 OA
ENDROOT
BRANCH   1  10
ATOM      8  C   UNL     1       3.452   5.482  17.718  0.00  0.00    +0.000 A 
ATOM      9  C   UNL     1       3.236   6.876  17.745  0.00  0.00    +0.000 A 
ATOM     10  C   UNL     1       2.500   7.487  18.765  0.00  0.00    +0.000 A 
ATOM     11  C   UNL     1       1.948   6.655  19.738  0.00  0.00    +0.000 A 
ATOM     12  C   UNL     1       2.080   5.259  19.698  0.00  0.00    +0.000 A 
ATOM     13  C   UNL     1       2.825   4.647  18.669  0.00  0.00    +0.000 A 
BRANCH   8  15
ATOM     14  C   UNL     1       5.657   4.860  17.113  0.00  0.00    +0.000 C 
ATOM     15  O   UNL     1       4.274   4.931  16.764  0.00  0.00    +0.000 OA
ENDBRANCH   8  15
BRANCH  12  16
ATOM     16  O   UNL     1       1.448   4.678  20.770  0.00  0.00    +0.000 OA
ATOM     17  C   UNL     1       2.176   3.846  21.658  0.00  0.00    +0.000 C 
ENDBRANCH  12  16
BRANCH  13  18
ATOM     18  O   UNL     1       2.871   3.282  18.709  0.00  0.00    +0.000 OA
ATOM     19  C   UNL     1       1.966   2.479  17.974  0.00  0.00    +0.000 C 
ENDBRANCH  13  18
ENDBRANCH   1  10
BRANCH   4  20
ATOM     20  C   UNL     1      -0.587  11.064  20.699  0.00  0.00    +0.000 A 
ATOM     21  C   UNL     1      -1.127  12.022  21.573  0.00  0.00    +0.000 A 
ATOM     22  C   UNL     1      -1.335  11.724  22.923  0.00  0.00    +0.000 A 
ATOM     23  C   UNL     1      -1.004  10.467  23.422  0.00  0.00    +0.000 A 
ATOM     24  C   UNL     1      -0.501   9.493  22.566  0.00  0.00    +0.000 A 
ATOM     25  C   UNL     1      -0.309   9.784  21.216  0.00  0.00    +0.000 A 
ENDBRANCH   4  20
BRANCH   5  26
ATOM     26  C   UNL     1      -2.003  10.639  17.721  0.00  0.00    +0.000 A 
ATOM     27  C   UNL     1      -2.290  10.325  16.386  0.00  0.00    +0.000 A 
ATOM     28  C   UNL     1      -3.586  10.410  15.876  0.00  0.00    +0.000 A 
ATOM     29  C   UNL     1      -4.638  10.823  16.686  0.00  0.00    +0.000 A 
ATOM     30  C   UNL     1      -4.407  11.141  18.021  0.00  0.00    +0.000 A 
ATOM     31  C   UNL     1      -3.095  11.030  18.531  0.00  0.00    +0.000 A 
BRANCH  30  32
ATOM     32  N   UNL     1      -5.426  11.620  18.881  0.00  0.00    +0.000 N 
ATOM     33  C   UNL     1      -6.563  10.936  19.278  0.00  0.00    +0.000 C 
ATOM     34  C   UNL     1      -7.536  11.789  20.051  0.00  0.00    +0.000 C 
ATOM     35  O   UNL     1      -6.815   9.751  19.076  0.00  0.00    +0.000 OA
ATOM     36  H   UNL     1      -5.299  12.551  19.256  0.00  0.00    +0.000 HD
ENDBRANCH  30  32
ENDBRANCH   5  26
TORSDOF 7
ENDMDL
MODEL 3
REMARK VINA RESULT:      -7.4      4.037      7.085
REMARK  Name = 
REMARK  11 active torsions:
REMARK  status: ('A' for Active; 'I' for Inactive)
REMARK    1  A    between atoms: C_1  and  O_2
REMARK    2  A    between atoms: O_2  and  C_3
REMARK    3  A    between atoms: C_5  and  C_6
REMARK    4  A    between atoms: C_9  and  C_10
REMARK    5  A    between atoms: N_16  and  C_17
REMARK    6  A    between atoms: C_21  and  N_22
REMARK    7  A    between atoms: C_23  and  C_24
REMARK    8  A    between atoms: C_30  and  O_31
REMARK    9  A    between atoms: O_31  and  C_32
REMARK   10  A    between atoms: C_33  and  O_34
REMARK   11  A    between atoms: O_34  and  C_35
REMARK                            x       y       z     vdW  Elec       q    Type
REMARK                         _______ _______ _______ _____ _____    ______ ____
ROOT
ATOM      1  C   UNL     1       1.412  13.222  21.263  0.00  0.00    +0.000 C 
ATOM      2  C   UNL     1       0.360  12.430  20.991  0.00  0.00    +0.000 C 
ATOM      3  S   UNL     1       0.089  10.958  21.856  0.00  0.00    +0.000 S 
ATOM      4  C   UNL     1      -0.485  10.162  20.292  0.00  0.00    +0.000 C 
ATOM      5  N   UNL     1      -1.058  11.235  19.488  0.00  0.00    +0.000 N 
ATOM      6  C   UNL     1      -0.611  12.521  19.855  0.00  0.00    +0.000 C 
ATOM      7  O   UNL     1      -0.953  13.603  19.397  0.00  0.00    +0.000 OA
ENDROOT
BRANCH   1  10
ATOM      8  C   UNL     1       3.445  14.954  18.582  0.00  0.00    +0.000 A 
ATOM      9  C   UNL     1       3.019  14.017  19.548  0.00  0.00    +0.000 A 
ATOM     10  C   UNL     1       2.001  14.313  20.459  0.00  0.00    +0.000 A 
ATOM     11  C   UNL     1       1.448  15.591  20.405  0.00  0.00    +0.000 A 
ATOM     12  C   UNL     1       1.902  16.570  19.508  0.00  0.00    +0.000 A 
ATOM     13  C   UNL     1       2.927  16.268  18.588  0.00  0.00    +0.000 A 
BRANCH   8  15
ATOM     14  C   UNL     1       5.732  14.848  17.969  0.00  0.00    +0.000 C 
ATOM     15  O   UNL     1       4.369  14.591  17.631  0.00  0.00    +0.000 OA
ENDBRANCH   8  15
BRANCH  12  16
ATOM     16  O   UNL     1       1.191  17.736  19.657  0.00  0.00    +0.000 OA
ATOM     17  C   UNL     1      -0.190  17.690  19.972  0.00  0.00    +0.000 C 
ENDBRANCH  12  16
BRANCH  13  18
ATOM     18  O   UNL     1       3.311  17.297  17.777  0.00  0.00    +0.000 OA
ATOM     19  C   UNL     1       2.709  17.522  16.515  0.00  0.00    +0.000 C 
ENDBRANCH  13  18
ENDBRANCH   1  10
BRANCH   4  20
ATOM     20  C   UNL     1       0.700   9.443  19.650  0.00  0.00    +0.000 A 
ATOM     21  C   UNL     1       1.177   9.874  18.401  0.00  0.00    +0.000 A 
ATOM     22  C   UNL     1       2.143   9.137  17.708  0.00  0.00    +0.000 A 
ATOM     23  C   UNL     1       2.644   7.956  18.250  0.00  0.00    +0.000 A 
ATOM     24  C   UNL     1       2.210   7.530  19.501  0.00  0.00    +0.000 A 
ATOM     25  C   UNL     1       1.260   8.274  20.200  0.00  0.00    +0.000 A 
ENDBRANCH   4  20
BRANCH   5  26
ATOM     26  C   UNL     1      -1.991  10.962  18.423  0.00  0.00    +0.000 A 
ATOM     27  C   UNL     1      -1.749   9.950  17.486  0.00  0.00    +0.000 A 
ATOM     28  C   UNL     1      -2.635   9.694  16.439  0.00  0.00    +0.000 A 
ATOM     29  C   UNL     1      -3.789  10.455  16.289  0.00  0.00    +0.000 A 
ATOM     30  C   UNL     1      -4.078  11.469  17.197  0.00  0.00    +0.000 A 
ATOM     31  C   UNL     1      -3.186  11.702  18.266  0.00  0.00    +0.000 A 
BRANCH  30  32
ATOM     32  N   UNL     1      -5.209  12.313  17.067  0.00  0.00    +0.000 N 
ATOM     33  C   UNL     1      -6.455  12.121  17.641  0.00  0.00    +0.000 C 
ATOM     34  C   UNL     1      -7.493  13.104  17.162  0.00  0.00    +0.000 C 
ATOM     35  O   UNL     1      -6.756  11.273  18.476  0.00  0.00    +0.000 OA
ATOM     36  H   UNL     1      -5.086  13.149  16.511  0.00  0.00    +0.000 HD
ENDBRANCH  30  32
ENDBRANCH   5  26
TORSDOF 7
ENDMDL
MODEL 4
REMARK VINA RESULT:      -7.2      4.208      8.305
REMARK  Name = 
REMARK  11 active torsions:
REMARK  status: ('A' for Active; 'I' for Inactive)
REMARK    1  A    between atoms: C_1  and  O_2
REMARK    2  A    between atoms: O_2  and  C_3
REMARK    3  A    between atoms: C_5  and  C_6
REMARK    4  A    between atoms: C_9  and  C_10
REMARK    5  A    between atoms: N_16  and  C_17
REMARK    6  A    between atoms: C_21  and  N_22
REMARK    7  A    between atoms: C_23  and  C_24
REMARK    8  A    between atoms: C_30  and  O_31
REMARK    9  A    between atoms: O_31  and  C_32
REMARK   10  A    between atoms: C_33  and  O_34
REMARK   11  A    between atoms: O_34  and  C_35
REMARK                            x       y       z     vdW  Elec       q    Type
REMARK                         _______ _______ _______ _____ _____    ______ ____
ROOT
ATOM      1  C   UNL     1       0.450  13.402  18.953  0.00  0.00    +0.000 C 
ATOM      2  C   UNL     1       0.401  12.112  18.576  0.00  0.00    +0.000 C 
ATOM      3  S   UNL     1      -1.096  11.252  18.485  0.00  0.00    +0.000 S 
ATOM      4  C   UNL     1      -0.252   9.744  19.134  0.00  0.00    +0.000 C 
ATOM      5  N   UNL     1       1.134   9.843  18.690  0.00  0.00    +0.000 N 
ATOM      6  C   UNL     1       1.533  11.155  18.364  0.00  0.00    +0.000 C 
ATOM      7  O   UNL     1       2.609  11.534  17.920  0.00  0.00    +0.000 OA
ENDROOT
BRANCH   1  10
ATOM      8  C   UNL     1       2.948  16.240  19.116  0.00  0.00    +0.000 A 
ATOM      9  C   UNL     1       2.027  15.289  18.626  0.00  0.00    +0.000 A 
ATOM     10  C   UNL     1       1.603  14.207  19.403  0.00  0.00    +0.000 A 
ATOM     11  C   UNL     1       2.160  14.079  20.676  0.00  0.00    +0.000 A 
ATOM     12  C   UNL     1       3.134  14.964  21.163  0.00  0.00    +0.000 A 
ATOM     13  C   UNL     1       3.557  16.055  20.376  0.00  0.00    +0.000 A 
BRANCH   8  15
ATOM     14  C   UNL     1       2.898  17.277  16.986  0.00  0.00    +0.000 C 
ATOM     15  O   UNL     1       3.256  17.350  18.367  0.00  0.00    +0.000 OA
ENDBRANCH   8  15
BRANCH  12  16
ATOM     16  O   UNL     1       3.512  14.618  22.437  0.00  0.00    +0.000 OA
ATOM     17  C   UNL     1       4.842  14.201  22.694  0.00  0.00    +0.000 C 
ENDBRANCH  12  16
BRANCH  13  18
ATOM     18  O   UNL     1       4.525  16.840  20.934  0.00  0.00    +0.000 OA
ATOM     19  C   UNL     1       4.216  18.037  21.624  0.00  0.00    +0.000 C 
ENDBRANCH  13  18
ENDBRANCH   1  10
BRANCH   4  20
ATOM     20  C   UNL     1      -0.438   9.697  20.649  0.00  0.00    +0.000 A 
ATOM     21  C   UNL     1      -0.695  10.886  21.352  0.00  0.00    +0.000 A 
ATOM     22  C   UNL     1      -0.699  10.905  22.750  0.00  0.00    +0.000 A 
ATOM     23  C   UNL     1      -0.444   9.740  23.468  0.00  0.00    +0.000 A 
ATOM     24  C   UNL     1      -0.221   8.545  22.791  0.00  0.00    +0.000 A 
ATOM     25  C   UNL     1      -0.234   8.521  21.397  0.00  0.00    +0.000 A 
ENDBRANCH   4  20
BRANCH   5  26
ATOM     26  C   UNL     1       1.984   8.682  18.609  0.00  0.00    +0.000 A 
ATOM     27  C   UNL     1       2.855   8.493  17.529  0.00  0.00    +0.000 A 
ATOM     28  C   UNL     1       3.665   7.360  17.430  0.00  0.00    +0.000 A 
ATOM     29  C   UNL     1       3.619   6.373  18.407  0.00  0.00    +0.000 A 
ATOM     30  C   UNL     1       2.773   6.515  19.504  0.00  0.00    +0.000 A 
ATOM     31  C   UNL     1       1.977   7.676  19.604  0.00  0.00    +0.000 A 
BRANCH  30  32
ATOM     32  N   UNL     1       2.641   5.519  20.503  0.00  0.00    +0.000 N 
ATOM     33  C   UNL     1       2.011   4.292  20.370  0.00  0.00    +0.000 C 
ATOM     34  C   UNL     1       1.887   3.540  21.671  0.00  0.00    +0.000 C 
ATOM     35  O   UNL     1       1.588   3.793  19.332  0.00  0.00    +0.000 OA
ATOM     36  H   UNL     1       3.066   5.720  21.399  0.00  0.00    +0.000 HD
ENDBRANCH  30  32
ENDBRANCH   5  26
TORSDOF 7
ENDMDL
MODEL 5
REMARK VINA RESULT:      -7.2      4.152      8.322
REMARK  Name = 
REMARK  11 active torsions:
REMARK  status: ('A' for Active; 'I' for Inactive)
REMARK    1  A    between atoms: C_1  and  O_2
REMARK    2  A    between atoms: O_2  and  C_3
REMARK    3  A    between atoms: C_5  and  C_6
REMARK    4  A    between atoms: C_9  and  C_10
REMARK    5  A    between atoms: N_16  and  C_17
REMARK    6  A    between atoms: C_21  and  N_22
REMARK    7  A    between atoms: C_23  and  C_24
REMARK    8  A    between atoms: C_30  and  O_31
REMARK    9  A    between atoms: O_31  and  C_32
REMARK   10  A    between atoms: C_33  and  O_34
REMARK   11  A    between atoms: O_34  and  C_35
REMARK                            x       y       z     vdW  Elec       q    Type
REMARK                         _______ _______ _______ _____ _____    ______ ____
ROOT
ATOM      1  C   UNL     1       0.496  13.524  18.966  0.00  0.00    +0.000 C 
ATOM      2  C   UNL     1       0.420  12.237  18.586  0.00  0.00    +0.000 C 
ATOM      3  S   UNL     1      -1.094  11.404  18.510  0.00  0.00    +0.000 S 
ATOM      4  C   UNL     1      -0.269   9.879  19.145  0.00  0.00    +0.000 C 
ATOM      5  N   UNL     1       1.113   9.954  18.686  0.00  0.00    +0.000 N 
ATOM      6  C   UNL     1       1.532  11.260  18.359  0.00  0.00    +0.000 C 
ATOM      7  O   UNL     1       2.610  11.621  17.904  0.00  0.00    +0.000 OA
ENDROOT
BRANCH   1  10
ATOM      8  C   UNL     1       3.642  14.444  20.858  0.00  0.00    +0.000 A 
ATOM      9  C   UNL     1       2.382  13.895  20.534  0.00  0.00    +0.000 A 
ATOM     10  C   UNL     1       1.668  14.308  19.406  0.00  0.00    +0.000 A 
ATOM     11  C   UNL     1       2.232  15.319  18.629  0.00  0.00    +0.000 A 
ATOM     12  C   UNL     1       3.446  15.937  18.965  0.00  0.00    +0.000 A 
ATOM     13  C   UNL     1       4.164  15.517  20.103  0.00  0.00    +0.000 A 
BRANCH   8  15
ATOM     14  C   UNL     1       4.476  14.789  23.049  0.00  0.00    +0.000 C 
ATOM     15  O   UNL     1       4.366  13.935  21.910  0.00  0.00    +0.000 OA
ENDBRANCH   8  15
BRANCH  12  16
ATOM     16  O   UNL     1       3.779  16.895  18.038  0.00  0.00    +0.000 OA
ATOM     17  C   UNL     1       2.917  17.151  16.942  0.00  0.00    +0.000 C 
ENDBRANCH  12  16
BRANCH  13  18
ATOM     18  O   UNL     1       5.320  16.200  20.353  0.00  0.00    +0.000 OA
ATOM     19  C   UNL     1       5.316  17.539  20.814  0.00  0.00    +0.000 C 
ENDBRANCH  13  18
ENDBRANCH   1  10
BRANCH   4  20
ATOM     20  C   UNL     1      -0.439   9.830  20.662  0.00  0.00    +0.000 A 
ATOM     21  C   UNL     1      -0.680  11.020  21.370  0.00  0.00    +0.000 A 
ATOM     22  C   UNL     1      -0.669  11.037  22.768  0.00  0.00    +0.000 A 
ATOM     23  C   UNL     1      -0.415   9.869  23.481  0.00  0.00    +0.000 A 
ATOM     24  C   UNL     1      -0.209   8.673  22.800  0.00  0.00    +0.000 A 
ATOM     25  C   UNL     1      -0.236   8.652  21.406  0.00  0.00    +0.000 A 
ENDBRANCH   4  20
BRANCH   5  26
ATOM     26  C   UNL     1       1.941   8.778  18.592  0.00  0.00    +0.000 A 
ATOM     27  C   UNL     1       2.791   8.573  17.498  0.00  0.00    +0.000 A 
ATOM     28  C   UNL     1       3.578   7.427  17.387  0.00  0.00    +0.000 A 
ATOM     29  C   UNL     1       3.531   6.441  18.366  0.00  0.00    +0.000 A 
ATOM     30  C   UNL     1       2.707   6.599  19.476  0.00  0.00    +0.000 A 
ATOM     31  C   UNL     1       1.933   7.774  19.589  0.00  0.00    +0.000 A 
BRANCH  30  32
ATOM     32  N   UNL     1       2.574   5.606  20.479  0.00  0.00    +0.000 N 
ATOM     33  C   UNL     1       1.959   4.372  20.345  0.00  0.00    +0.000 C 
ATOM     34  C   UNL     1       1.828   3.625  21.648  0.00  0.00    +0.000 C 
ATOM     35  O   UNL     1       1.553   3.863  19.304  0.00  0.00    +0.000 OA
ATOM     36  H   UNL     1       2.987   5.816  21.379  0.00  0.00    +0.000 HD
ENDBRANCH  30  32
ENDBRANCH   5  26
TORSDOF 7
ENDMDL
MODEL 6
REMARK VINA RESULT:      -7.1      4.247      8.231
REMARK  Name = 
REMARK  11 active torsions:
REMARK  status: ('A' for Active; 'I' for Inactive)
REMARK    1  A    between atoms: C_1  and  O_2
REMARK    2  A    between atoms: O_2  and  C_3
REMARK    3  A    between atoms: C_5  and  C_6
REMARK    4  A    between atoms: C_9  and  C_10
REMARK    5  A    between atoms: N_16  and  C_17
REMARK    6  A    between atoms: C_21  and  N_22
REMARK    7  A    between atoms: C_23  and  C_24
REMARK    8  A    between atoms: C_30  and  O_31
REMARK    9  A    between atoms: O_31  and  C_32
REMARK   10  A    between atoms: C_33  and  O_34
REMARK   11  A    between atoms: O_34  and  C_35
REMARK                            x       y       z     vdW  Elec       q    Type
REMARK                         _______ _______ _______ _____ _____    ______ ____
ROOT
ATOM      1  C   UNL     1       0.612  13.482  18.811  0.00  0.00    +0.000 C 
ATOM      2  C   UNL     1       0.501  12.178  18.501  0.00  0.00    +0.000 C 
ATOM      3  S   UNL     1      -1.025  11.366  18.544  0.00  0.00    +0.000 S 
ATOM      4  C   UNL     1      -0.189   9.862  19.214  0.00  0.00    +0.000 C 
ATOM      5  N   UNL     1       1.170   9.893  18.683  0.00  0.00    +0.000 N 
ATOM      6  C   UNL     1       1.588  11.175  18.269  0.00  0.00    +0.000 C 
ATOM      7  O   UNL     1       2.645  11.496  17.743  0.00  0.00    +0.000 OA
ENDROOT
BRANCH   1  10
ATOM      8  C   UNL     1       3.241  16.199  18.636  0.00  0.00    +0.000 A 
ATOM      9  C   UNL     1       2.261  15.253  18.263  0.00  0.00    +0.000 A 
ATOM     10  C   UNL     1       1.815  14.269  19.150  0.00  0.00    +0.000 A 
ATOM     11  C   UNL     1       2.409  14.230  20.411  0.00  0.00    +0.000 A 
ATOM     12  C   UNL     1       3.438  15.108  20.786  0.00  0.00    +0.000 A 
ATOM     13  C   UNL     1       3.883  16.101  19.889  0.00  0.00    +0.000 A 
BRANCH   8  15
ATOM     14  C   UNL     1       2.595  17.529  16.784  0.00  0.00    +0.000 C 
ATOM     15  O   UNL     1       3.573  17.220  17.778  0.00  0.00    +0.000 OA
ENDBRANCH   8  15
BRANCH  12  16
ATOM     16  O   UNL     1       3.843  14.862  22.075  0.00  0.00    +0.000 OA
ATOM     17  C   UNL     1       5.003  14.085  22.318  0.00  0.00    +0.000 C 
ENDBRANCH  12  16
BRANCH  13  18
ATOM     18  O   UNL     1       4.904  16.886  20.343  0.00  0.00    +0.000 OA
ATOM     19  C   UNL     1       6.237  16.717  19.897  0.00  0.00    +0.000 C 
ENDBRANCH  13  18
ENDBRANCH   1  10
BRANCH   4  20
ATOM     20  C   UNL     1      -0.281   9.893  20.739  0.00  0.00    +0.000 A 
ATOM     21  C   UNL     1      -0.260   8.687  21.458  0.00  0.00    +0.000 A 
ATOM     22  C   UNL     1      -0.515   8.667  22.833  0.00  0.00    +0.000 A 
ATOM     23  C   UNL     1      -0.797   9.850  23.510  0.00  0.00    +0.000 A 
ATOM     24  C   UNL     1      -0.788  11.060  22.823  0.00  0.00    +0.000 A 
ATOM     25  C   UNL     1      -0.518  11.083  21.455  0.00  0.00    +0.000 A 
ENDBRANCH   4  20
BRANCH   5  26
ATOM     26  C   UNL     1       1.977   8.702  18.609  0.00  0.00    +0.000 A 
ATOM     27  C   UNL     1       2.799   8.449  17.503  0.00  0.00    +0.000 A 
ATOM     28  C   UNL     1       3.566   7.287  17.411  0.00  0.00    +0.000 A 
ATOM     29  C   UNL     1       3.525   6.333  18.421  0.00  0.00    +0.000 A 
ATOM     30  C   UNL     1       2.728   6.538  19.544  0.00  0.00    +0.000 A 
ATOM     31  C   UNL     1       1.975   7.729  19.636  0.00  0.00    +0.000 A 
BRANCH  30  32
ATOM     32  N   UNL     1       2.602   5.580  20.580  0.00  0.00    +0.000 N 
ATOM     33  C   UNL     1       2.334   4.229  20.429  0.00  0.00    +0.000 C 
ATOM     34  C   UNL     1       2.085   3.519  21.735  0.00  0.00    +0.000 C 
ATOM     35  O   UNL     1       2.304   3.600  19.375  0.00  0.00    +0.000 OA
ATOM     36  H   UNL     1       2.739   5.916  21.524  0.00  0.00    +0.000 HD
ENDBRANCH  30  32
ENDBRANCH   5  26
TORSDOF 7
ENDMDL
MODEL 7
REMARK VINA RESULT:      -7.0      2.748      9.659
REMARK  Name = 
REMARK  11 active torsions:
REMARK  status: ('A' for Active; 'I' for Inactive)
REMARK    1  A    between atoms: C_1  and  O_2
REMARK    2  A    between atoms: O_2  and  C_3
REMARK    3  A    between atoms: C_5  and  C_6
REMARK    4  A    between atoms: C_9  and  C_10
REMARK    5  A    between atoms: N_16  and  C_17
REMARK    6  A    between atoms: C_21  and  N_22
REMARK    7  A    between atoms: C_23  and  C_24
REMARK    8  A    between atoms: C_30  and  O_31
REMARK    9  A    between atoms: O_31  and  C_32
REMARK   10  A    between atoms: C_33  and  O_34
REMARK   11  A    between atoms: O_34  and  C_35
REMARK                            x       y       z     vdW  Elec       q    Type
REMARK                         _______ _______ _______ _____ _____    ______ ____
ROOT
ATOM      1  C   UNL     1      -2.485  14.070  20.618  0.00  0.00    +0.000 C 
ATOM      2  C   UNL     1      -1.455  13.295  20.237  0.00  0.00    +0.000 C 
ATOM      3  S   UNL     1      -0.678  13.510  18.707  0.00  0.00    +0.000 S 
ATOM      4  C   UNL     1      -0.501  11.678  18.557  0.00  0.00    +0.000 C 
ATOM      5  N   UNL     1      -0.402  11.175  19.922  0.00  0.00    +0.000 N 
ATOM      6  C   UNL     1      -0.922  12.058  20.891  0.00  0.00    +0.000 C 
ATOM      7  O   UNL     1      -0.931  11.930  22.109  0.00  0.00    +0.000 OA
ENDROOT
BRANCH   1  10
ATOM      8  C   UNL     1      -4.555  14.735  23.716  0.00  0.00    +0.000 A 
ATOM      9  C   UNL     1      -3.490  14.727  22.789  0.00  0.00    +0.000 A 
ATOM     10  C   UNL     1      -3.475  13.858  21.694  0.00  0.00    +0.000 A 
ATOM     11  C   UNL     1      -4.539  12.965  21.573  0.00  0.00    +0.000 A 
ATOM     12  C   UNL     1      -5.574  12.896  22.518  0.00  0.00    +0.000 A 
ATOM     13  C   UNL     1      -5.587  13.775  23.621  0.00  0.00    +0.000 A 
BRANCH   8  15
ATOM     14  C   UNL     1      -4.508  17.035  24.281  0.00  0.00    +0.000 C 
ATOM     15  O   UNL     1      -4.591  15.677  24.715  0.00  0.00    +0.000 OA
ENDBRANCH   8  15
BRANCH  12  16
ATOM     16  O   UNL     1      -6.494  11.940  22.165  0.00  0.00    +0.000 OA
ATOM     17  C   UNL     1      -6.929  11.836  20.820  0.00  0.00    +0.000 C 
ENDBRANCH  12  16
BRANCH  13  18
ATOM     18  O   UNL     1      -6.625  13.609  24.493  0.00  0.00    +0.000 OA
ATOM     19  C   UNL     1      -7.916  14.125  24.229  0.00  0.00    +0.000 C 
ENDBRANCH  13  18
ENDBRANCH   1  10
BRANCH   4  20
ATOM     20  C   UNL     1      -1.688  11.139  17.760  0.00  0.00    +0.000 A 
ATOM     21  C   UNL     1      -1.505  10.039  16.906  0.00  0.00    +0.000 A 
ATOM     22  C   UNL     1      -2.521   9.629  16.037  0.00  0.00    +0.000 A 
ATOM     23  C   UNL     1      -3.733  10.313  16.005  0.00  0.00    +0.000 A 
ATOM     24  C   UNL     1      -3.947  11.384  16.867  0.00  0.00    +0.000 A 
ATOM     25  C   UNL     1      -2.941  11.782  17.746  0.00  0.00    +0.000 A 
ENDBRANCH   4  20
BRANCH   5  26
ATOM     26  C   UNL     1       0.179   9.889  20.211  0.00  0.00    +0.000 A 
ATOM     27  C   UNL     1      -0.074   9.232  21.422  0.00  0.00    +0.000 A 
ATOM     28  C   UNL     1       0.503   7.997  21.720  0.00  0.00    +0.000 A 
ATOM     29  C   UNL     1       1.363   7.384  20.817  0.00  0.00    +0.000 A 
ATOM     30  C   UNL     1       1.644   7.992  19.597  0.00  0.00    +0.000 A 
ATOM     31  C   UNL     1       1.036   9.230  19.297  0.00  0.00    +0.000 A 
BRANCH  30  32
ATOM     32  N   UNL     1       2.554   7.444  18.659  0.00  0.00    +0.000 N 
ATOM     33  C   UNL     1       3.372   6.342  18.847  0.00  0.00    +0.000 C 
ATOM     34  C   UNL     1       4.353   6.126  17.722  0.00  0.00    +0.000 C 
ATOM     35  O   UNL     1       3.348   5.563  19.795  0.00  0.00    +0.000 OA
ATOM     36  H   UNL     1       2.596   7.896  17.755  0.00  0.00    +0.000 HD
ENDBRANCH  30  32
ENDBRANCH   5  26
TORSDOF 7
ENDMDL
MODEL 8
REMARK VINA RESULT:      -6.9      3.445      9.350
REMARK  Name = 
REMARK  11 active torsions:
REMARK  status: ('A' for Active; 'I' for Inactive)
REMARK    1  A    between atoms: C_1  and  O_2
REMARK    2  A    between atoms: O_2  and  C_3
REMARK    3  A    between atoms: C_5  and  C_6
REMARK    4  A    between atoms: C_9  and  C_10
REMARK    5  A    between atoms: N_16  and  C_17
REMARK    6  A    between atoms: C_21  and  N_22
REMARK    7  A    between atoms: C_23  and  C_24
REMARK    8  A    between atoms: C_30  and  O_31
REMARK    9  A    between atoms: O_31  and  C_32
REMARK   10  A    between atoms: C_33  and  O_34
REMARK   11  A    between atoms: O_34  and  C_35
REMARK                            x       y       z     vdW  Elec       q    Type
REMARK                         _______ _______ _______ _____ _____    ______ ____
ROOT
ATOM      1  C   UNL     1      -0.582  14.376  20.312  0.00  0.00    +0.000 C 
ATOM      2  C   UNL     1       0.063  13.318  19.790  0.00  0.00    +0.000 C 
ATOM      3  S   UNL     1       0.249  13.124  18.082  0.00  0.00    +0.000 S 
ATOM      4  C   UNL     1      -0.005  11.306  18.276  0.00  0.00    +0.000 C 
ATOM      5  N   UNL     1       0.487  10.976  19.608  0.00  0.00    +0.000 N 
ATOM      6  C   UNL     1       0.543  12.081  20.483  0.00  0.00    +0.000 C 
ATOM      7  O   UNL     1       0.957  12.118  21.634  0.00  0.00    +0.000 OA
ENDROOT
BRANCH   1  10
ATOM      8  C   UNL     1      -0.858  15.592  23.885  0.00  0.00    +0.000 A 
ATOM      9  C   UNL     1      -0.325  15.154  22.654  0.00  0.00    +0.000 A 
ATOM     10  C   UNL     1      -1.128  14.570  21.671  0.00  0.00    +0.000 A 
ATOM     11  C   UNL     1      -2.479  14.397  21.970  0.00  0.00    +0.000 A 
ATOM     12  C   UNL     1      -3.025  14.752  23.213  0.00  0.00    +0.000 A 
ATOM     13  C   UNL     1      -2.212  15.343  24.202  0.00  0.00    +0.000 A 
BRANCH   8  15
ATOM     14  C   UNL     1       0.024  17.676  24.589  0.00  0.00    +0.000 C 
ATOM     15  O   UNL     1      -0.061  16.263  24.781  0.00  0.00    +0.000 OA
ENDBRANCH   8  15
BRANCH  12  16
ATOM     16  O   UNL     1      -4.372  14.482  23.250  0.00  0.00    +0.000 OA
ATOM     17  C   UNL     1      -4.830  13.215  23.690  0.00  0.00    +0.000 C 
ENDBRANCH  12  16
BRANCH  13  18
ATOM     18  O   UNL     1      -2.836  15.629  25.383  0.00  0.00    +0.000 OA
ATOM     19  C   UNL     1      -3.639  16.783  25.548  0.00  0.00    +0.000 C 
ENDBRANCH  13  18
ENDBRANCH   1  10
BRANCH   4  20
ATOM     20  C   UNL     1      -1.483  10.995  18.043  0.00  0.00    +0.000 A 
ATOM     21  C   UNL     1      -1.844  10.027  17.091  0.00  0.00    +0.000 A 
ATOM     22  C   UNL     1      -3.183   9.841  16.731  0.00  0.00    +0.000 A 
ATOM     23  C   UNL     1      -4.179  10.618  17.313  0.00  0.00    +0.000 A 
ATOM     24  C   UNL     1      -3.846  11.558  18.284  0.00  0.00    +0.000 A 
ATOM     25  C   UNL     1      -2.514  11.733  18.656  0.00  0.00    +0.000 A 
ENDBRANCH   4  20
BRANCH   5  26
ATOM     26  C   UNL     1       0.868   9.631  19.959  0.00  0.00    +0.000 A 
ATOM     27  C   UNL     1       0.435   9.041  21.153  0.00  0.00    +0.000 A 
ATOM     28  C   UNL     1       0.819   7.748  21.511  0.00  0.00    +0.000 A 
ATOM     29  C   UNL     1       1.659   7.007  20.689  0.00  0.00    +0.000 A 
ATOM     30  C   UNL     1       2.114   7.546  19.489  0.00  0.00    +0.000 A 
ATOM     31  C   UNL     1       1.700   8.846  19.126  0.00  0.00    +0.000 A 
BRANCH  30  32
ATOM     32  N   UNL     1       3.015   6.863  18.635  0.00  0.00    +0.000 N 
ATOM     33  C   UNL     1       2.806   5.639  18.020  0.00  0.00    +0.000 C 
ATOM     34  C   UNL     1       4.030   5.103  17.322  0.00  0.00    +0.000 C 
ATOM     35  O   UNL     1       1.756   5.004  17.987  0.00  0.00    +0.000 OA
ATOM     36  H   UNL     1       3.893   7.326  18.443  0.00  0.00    +0.000 HD
ENDBRANCH  30  32
ENDBRANCH   5  26
TORSDOF 7
ENDMDL
MODEL 9
REMARK VINA RESULT:      -6.7      3.595      9.677
REMARK  Name = 
REMARK  11 active torsions:
REMARK  status: ('A' for Active; 'I' for Inactive)
REMARK    1  A    between atoms: C_1  and  O_2
REMARK    2  A    between atoms: O_2  and  C_3
REMARK    3  A    between atoms: C_5  and  C_6
REMARK    4  A    between atoms: C_9  and  C_10
REMARK    5  A    between atoms: N_16  and  C_17
REMARK    6  A    between atoms: C_21  and  N_22
REMARK    7  A    between atoms: C_23  and  C_24
REMARK    8  A    between atoms: C_30  and  O_31
REMARK    9  A    between atoms: O_31  and  C_32
REMARK   10  A    between atoms: C_33  and  O_34
REMARK   11  A    between atoms: O_34  and  C_35
REMARK                            x       y       z     vdW  Elec       q    Type
REMARK                         _______ _______ _______ _____ _____    ______ ____
ROOT
ATOM      1  C   UNL     1      -1.274  15.132  20.100  0.00  0.00    +0.000 C 
ATOM      2  C   UNL     1      -0.584  14.005  19.853  0.00  0.00    +0.000 C 
ATOM      3  S   UNL     1      -0.191  13.521  18.240  0.00  0.00    +0.000 S 
ATOM      4  C   UNL     1      -0.492  11.761  18.710  0.00  0.00    +0.000 C 
ATOM      5  N   UNL     1      -0.172  11.670  20.130  0.00  0.00    +0.000 N 
ATOM      6  C   UNL     1      -0.208  12.909  20.802  0.00  0.00    +0.000 C 
ATOM      7  O   UNL     1       0.061  13.148  21.971  0.00  0.00    +0.000 OA
ENDROOT
BRANCH   1  10
ATOM      8  C   UNL     1      -3.802  15.129  22.917  0.00  0.00    +0.000 A 
ATOM      9  C   UNL     1      -3.204  14.959  21.649  0.00  0.00    +0.000 A 
ATOM     10  C   UNL     1      -1.980  15.552  21.328  0.00  0.00    +0.000 A 
ATOM     11  C   UNL     1      -1.386  16.356  22.300  0.00  0.00    +0.000 A 
ATOM     12  C   UNL     1      -1.990  16.606  23.541  0.00  0.00    +0.000 A 
ATOM     13  C   UNL     1      -3.225  16.005  23.862  0.00  0.00    +0.000 A 
BRANCH   8  15
ATOM     14  C   UNL     1      -4.750  13.193  23.900  0.00  0.00    +0.000 C 
ATOM     15  O   UNL     1      -4.948  14.441  23.236  0.00  0.00    +0.000 OA
ENDBRANCH   8  15
BRANCH  12  16
ATOM     16  O   UNL     1      -1.201  17.424  24.313  0.00  0.00    +0.000 OA
ATOM     17  C   UNL     1      -0.263  16.861  25.213  0.00  0.00    +0.000 C 
ENDBRANCH  12  16
BRANCH  13  18
ATOM     18  O   UNL     1      -3.737  16.332  25.086  0.00  0.00    +0.000 OA
ATOM     19  C   UNL     1      -4.626  17.421  25.260  0.00  0.00    +0.000 C 
ENDBRANCH  13  18
ENDBRANCH   1  10
BRANCH   4  20
ATOM     20  C   UNL     1      -1.933  11.403  18.354  0.00  0.00    +0.000 A 
ATOM     21  C   UNL     1      -2.185  10.540  17.274  0.00  0.00    +0.000 A 
ATOM     22  C   UNL     1      -3.488  10.328  16.815  0.00  0.00    +0.000 A 
ATOM     23  C   UNL     1      -4.560  10.975  17.423  0.00  0.00    +0.000 A 
ATOM     24  C   UNL     1      -4.336  11.807  18.516  0.00  0.00    +0.000 A 
ATOM     25  C   UNL     1      -3.038  12.006  18.986  0.00  0.00    +0.000 A 
ENDBRANCH   4  20
BRANCH   5  26
ATOM     26  C   UNL     1       0.145  10.408  20.751  0.00  0.00    +0.000 A 
ATOM     27  C   UNL     1      -0.395  10.054  21.994  0.00  0.00    +0.000 A 
ATOM     28  C   UNL     1      -0.075   8.845  22.614  0.00  0.00    +0.000 A 
ATOM     29  C   UNL     1       0.807   7.956  22.012  0.00  0.00    +0.000 A 
ATOM     30  C   UNL     1       1.368   8.258  20.774  0.00  0.00    +0.000 A 
ATOM     31  C   UNL     1       1.018   9.473  20.146  0.00  0.00    +0.000 A 
BRANCH  30  32
ATOM     32  N   UNL     1       2.314   7.418  20.136  0.00  0.00    +0.000 N 
ATOM     33  C   UNL     1       2.314   6.033  20.122  0.00  0.00    +0.000 C 
ATOM     34  C   UNL     1       3.557   5.440  19.508  0.00  0.00    +0.000 C 
ATOM     35  O   UNL     1       1.423   5.294  20.531  0.00  0.00    +0.000 OA
ATOM     36  H   UNL     1       3.055   7.880  19.625  0.00  0.00    +0.000 HD
ENDBRANCH  30  32
ENDBRANCH   5  26
TORSDOF 7
ENDMDL
