MODEL 1
REMARK VINA RESULT:      -7.2      0.000      0.000
REMARK  Name = 
REMARK  4 active torsions:
REMARK  status: ('A' for Active; 'I' for Inactive)
REMARK    1  A    between atoms: C_2  and  C_3
REMARK    2  A    between atoms: C_3  and  S_4
REMARK    3  A    between atoms: S_4  and  C_5
REMARK    4  A    between atoms: C_11  and  C_12
REMARK                            x       y       z     vdW  Elec       q    Type
REMARK                         _______ _______ _______ _____ _____    ______ ____
ROOT
ATOM      1  C   UNL     1       2.768   6.164  19.357  0.00  0.00    +0.000 A 
ATOM      2  N   UNL     1       1.936   6.430  20.351  0.00  0.00    +0.000 NA
ATOM      3  N   UNL     1       1.792   5.278  21.117  0.00  0.00    +0.000 NA
ATOM      4  C   UNL     1       2.543   4.380  20.545  0.00  0.00    +0.000 A 
ATOM      5  S   UNL     1       2.906   2.711  20.823  0.00  0.00    +0.000 S 
ATOM      6  C   UNL     1       3.998   2.757  19.430  0.00  0.00    +0.000 A 
ATOM      7  C   UNL     1       4.044   3.968  18.827  0.00  0.00    +0.000 A 
ATOM      8  N   UNL     1       3.205   4.873  19.459  0.00  0.00    +0.000 N 
ENDROOT
BRANCH   7   9
ATOM      9  C   UNL     1       4.926   4.243  17.699  0.00  0.00    +0.000 A 
ATOM     10  C   UNL     1       6.226   4.722  17.904  0.00  0.00    +0.000 A 
ATOM     11  C   UNL     1       7.046   5.015  16.810  0.00  0.00    +0.000 A 
ATOM     12  C   UNL     1       6.566   4.836  15.513  0.00  0.00    +0.000 A 
ATOM     13 CL   UNL     1       7.572   5.208  14.169  0.00  0.00    +0.000 Cl
ATOM     14  C   UNL     1       5.273   4.365  15.300  0.00  0.00    +0.000 A 
ATOM     15  C   UNL     1       4.453   4.067  16.391  0.00  0.00    +0.000 A 
ENDBRANCH   7   9
BRANCH   1  16
ATOM     16  S   UNL     1       3.175   7.225  18.056  0.00  0.00    +0.000 S 
BRANCH  16  17
ATOM     17  C   UNL     1       1.625   8.166  17.905  0.00  0.00    +0.000 C 
BRANCH  17  19
ATOM     18  O   UNL     1       2.593  10.313  17.330  0.00  0.00    +0.000 OA
ATOM     19  C   UNL     1       1.838   9.670  18.064  0.00  0.00    +0.000 C 
ATOM     20  N   UNL     1       1.113  10.298  19.069  0.00  0.00    +0.000 N 
ATOM     21  C   UNL     1       1.185  11.755  19.213  0.00  0.00    +0.000 C 
ATOM     22  C   UNL     1       1.508  12.136  20.661  0.00  0.00    +0.000 C 
ATOM     23  O   UNL     1       0.560  11.549  21.568  0.00  0.00    +0.000 OA
ATOM     24  C   UNL     1       0.583  10.116  21.469  0.00  0.00    +0.000 C 
ATOM     25  C   UNL     1       0.230   9.654  20.048  0.00  0.00    +0.000 C 
ENDBRANCH  17  19
ENDBRANCH  16  17
ENDBRANCH   1  16
TORSDOF 4
ENDMDL
MODEL 2
REMARK VINA RESULT:      -7.2      2.122      2.632
REMARK  Name = 
REMARK  4 active torsions:
REMARK  status: ('A' for Active; 'I' for Inactive)
REMARK    1  A    between atoms: C_2  and  C_3
REMARK    2  A    between atoms: C_3  and  S_4
REMARK    3  A    between atoms: S_4  and  C_5
REMARK    4  A    between atoms: C_11  and  C_12
REMARK                            x       y       z     vdW  Elec       q    Type
REMARK                         _______ _______ _______ _____ _____    ______ ____
ROOT
ATOM      1  C   UNL     1       1.976   5.222  19.958  0.00  0.00    +0.000 A 
ATOM      2  N   UNL     1       0.909   4.670  20.511  0.00  0.00    +0.000 NA
ATOM      3  N   UNL     1       0.862   3.334  20.126  0.00  0.00    +0.000 NA
ATOM      4  C   UNL     1       1.902   3.152  19.362  0.00  0.00    +0.000 A 
ATOM      5  S   UNL     1       2.560   1.829  18.461  0.00  0.00    +0.000 S 
ATOM      6  C   UNL     1       3.891   2.884  17.961  0.00  0.00    +0.000 A 
ATOM      7  C   UNL     1       3.796   4.138  18.459  0.00  0.00    +0.000 A 
ATOM      8  N   UNL     1       2.658   4.281  19.238  0.00  0.00    +0.000 N 
ENDROOT
BRANCH   7   9
ATOM      9  C   UNL     1       4.820   5.150  18.224  0.00  0.00    +0.000 A 
ATOM     10  C   UNL     1       4.653   6.121  17.229  0.00  0.00    +0.000 A 
ATOM     11  C   UNL     1       5.660   7.062  16.992  0.00  0.00    +0.000 A 
ATOM     12  C   UNL     1       6.834   7.028  17.743  0.00  0.00    +0.000 A 
ATOM     13 CL   UNL     1       8.077   8.178  17.442  0.00  0.00    +0.000 Cl
ATOM     14  C   UNL     1       7.010   6.062  18.731  0.00  0.00    +0.000 A 
ATOM     15  C   UNL     1       6.004   5.124  18.973  0.00  0.00    +0.000 A 
ENDBRANCH   7   9
BRANCH   1  16
ATOM     16  S   UNL     1       2.410   6.893  20.024  0.00  0.00    +0.000 S 
BRANCH  16  17
ATOM     17  C   UNL     1       1.007   7.557  20.974  0.00  0.00    +0.000 C 
BRANCH  17  19
ATOM     18  O   UNL     1       1.734   9.310  22.482  0.00  0.00    +0.000 OA
ATOM     19  C   UNL     1       1.226   9.008  21.400  0.00  0.00    +0.000 C 
ATOM     20  N   UNL     1       0.846   9.987  20.490  0.00  0.00    +0.000 N 
ATOM     21  C   UNL     1       1.122  11.396  20.785  0.00  0.00    +0.000 C 
ATOM     22  C   UNL     1      -0.145  12.238  20.615  0.00  0.00    +0.000 C 
ATOM     23  O   UNL     1      -0.707  12.059  19.304  0.00  0.00    +0.000 OA
ATOM     24  C   UNL     1      -1.054  10.683  19.084  0.00  0.00    +0.000 C 
ATOM     25  C   UNL     1       0.179   9.776  19.200  0.00  0.00    +0.000 C 
ENDBRANCH  17  19
ENDBRANCH  16  17
ENDBRANCH   1  16
TORSDOF 4
ENDMDL
MODEL 3
REMARK VINA RESULT:      -7.1      2.064      2.261
REMARK  Name = 
REMARK  4 active torsions:
REMARK  status: ('A' for Active; 'I' for Inactive)
REMARK    1  A    between atoms: C_2  and  C_3
REMARK    2  A    between atoms: C_3  and  S_4
REMARK    3  A    between atoms: S_4  and  C_5
REMARK    4  A    between atoms: C_11  and  C_12
REMARK                            x       y       z     vdW  Elec       q    Type
REMARK                         _______ _______ _______ _____ _____    ______ ____
ROOT
ATOM      1  C   UNL     1       2.076   5.283  19.739  0.00  0.00    +0.000 A 
ATOM      2  N   UNL     1       0.971   4.810  20.292  0.00  0.00    +0.000 NA
ATOM      3  N   UNL     1       0.909   3.444  20.040  0.00  0.00    +0.000 NA
ATOM      4  C   UNL     1       1.978   3.165  19.349  0.00  0.00    +0.000 A 
ATOM      5  S   UNL     1       2.644   1.745  18.616  0.00  0.00    +0.000 S 
ATOM      6  C   UNL     1       4.023   2.717  18.079  0.00  0.00    +0.000 A 
ATOM      7  C   UNL     1       3.936   4.017  18.445  0.00  0.00    +0.000 A 
ATOM      8  N   UNL     1       2.767   4.260  19.150  0.00  0.00    +0.000 N 
ENDROOT
BRANCH   7   9
ATOM      9  C   UNL     1       4.994   4.979  18.159  0.00  0.00    +0.000 A 
ATOM     10  C   UNL     1       6.125   5.067  18.979  0.00  0.00    +0.000 A 
ATOM     11  C   UNL     1       7.113   6.020  18.712  0.00  0.00    +0.000 A 
ATOM     12  C   UNL     1       6.967   6.888  17.630  0.00  0.00    +0.000 A 
ATOM     13 CL   UNL     1       8.177   8.067  17.309  0.00  0.00    +0.000 Cl
ATOM     14  C   UNL     1       5.842   6.810  16.812  0.00  0.00    +0.000 A 
ATOM     15  C   UNL     1       4.856   5.857  17.075  0.00  0.00    +0.000 A 
ENDBRANCH   7   9
BRANCH   1  16
ATOM     16  S   UNL     1       2.548   6.943  19.659  0.00  0.00    +0.000 S 
BRANCH  16  17
ATOM     17  C   UNL     1       1.330   7.682  20.790  0.00  0.00    +0.000 C 
BRANCH  17  19
ATOM     18  O   UNL     1       1.308   9.601  19.308  0.00  0.00    +0.000 OA
ATOM     19  C   UNL     1       0.862   9.060  20.323  0.00  0.00    +0.000 C 
ATOM     20  N   UNL     1      -0.121   9.676  21.089  0.00  0.00    +0.000 N 
ATOM     21  C   UNL     1      -0.693  10.950  20.645  0.00  0.00    +0.000 C 
ATOM     22  C   UNL     1      -0.652  11.980  21.776  0.00  0.00    +0.000 C 
ATOM     23  O   UNL     1      -1.304  11.475  22.953  0.00  0.00    +0.000 OA
ATOM     24  C   UNL     1      -0.659  10.278  23.417  0.00  0.00    +0.000 C 
ATOM     25  C   UNL     1      -0.694   9.180  22.345  0.00  0.00    +0.000 C 
ENDBRANCH  17  19
ENDBRANCH  16  17
ENDBRANCH   1  16
TORSDOF 4
ENDMDL
MODEL 4
REMARK VINA RESULT:      -7.1      1.662      1.802
REMARK  Name = 
REMARK  4 active torsions:
REMARK  status: ('A' for Active; 'I' for Inactive)
REMARK    1  A    between atoms: C_2  and  C_3
REMARK    2  A    between atoms: C_3  and  S_4
REMARK    3  A    between atoms: S_4  and  C_5
REMARK    4  A    between atoms: C_11  and  C_12
REMARK                            x       y       z     vdW  Elec       q    Type
REMARK                         _______ _______ _______ _____ _____    ______ ____
ROOT
ATOM      1  C   UNL     1       2.050   5.275  19.810  0.00  0.00    +0.000 A 
ATOM      2  N   UNL     1       0.958   4.767  20.357  0.00  0.00    +0.000 NA
ATOM      3  N   UNL     1       0.868   3.430  19.987  0.00  0.00    +0.000 NA
ATOM      4  C   UNL     1       1.910   3.202  19.238  0.00  0.00    +0.000 A 
ATOM      5  S   UNL     1       2.531   1.845  18.361  0.00  0.00    +0.000 S 
ATOM      6  C   UNL     1       3.905   2.846  17.864  0.00  0.00    +0.000 A 
ATOM      7  C   UNL     1       3.848   4.109  18.347  0.00  0.00    +0.000 A 
ATOM      8  N   UNL     1       2.707   4.301  19.110  0.00  0.00    +0.000 N 
ENDROOT
BRANCH   7   9
ATOM      9  C   UNL     1       4.909   5.081  18.111  0.00  0.00    +0.000 A 
ATOM     10  C   UNL     1       6.068   5.085  18.896  0.00  0.00    +0.000 A 
ATOM     11  C   UNL     1       7.060   6.046  18.681  0.00  0.00    +0.000 A 
ATOM     12  C   UNL     1       6.890   7.008  17.685  0.00  0.00    +0.000 A 
ATOM     13 CL   UNL     1       8.105   8.198  17.429  0.00  0.00    +0.000 Cl
ATOM     14  C   UNL     1       5.738   7.015  16.902  0.00  0.00    +0.000 A 
ATOM     15  C   UNL     1       4.749   6.053  17.113  0.00  0.00    +0.000 A 
ENDBRANCH   7   9
BRANCH   1  16
ATOM     16  S   UNL     1       2.542   6.931  19.861  0.00  0.00    +0.000 S 
BRANCH  16  17
ATOM     17  C   UNL     1       1.548   7.608  18.496  0.00  0.00    +0.000 C 
BRANCH  17  19
ATOM     18  O   UNL     1       2.355   9.663  17.493  0.00  0.00    +0.000 OA
ATOM     19  C   UNL     1       1.681   9.126  18.376  0.00  0.00    +0.000 C 
ATOM     20  N   UNL     1       0.977   9.887  19.300  0.00  0.00    +0.000 N 
ATOM     21  C   UNL     1       0.971  11.348  19.182  0.00  0.00    +0.000 C 
ATOM     22  C   UNL     1       1.351  11.996  20.517  0.00  0.00    +0.000 C 
ATOM     23  O   UNL     1       0.491  11.535  21.572  0.00  0.00    +0.000 OA
ATOM     24  C   UNL     1       0.593  10.110  21.724  0.00  0.00    +0.000 C 
ATOM     25  C   UNL     1       0.189   9.386  20.432  0.00  0.00    +0.000 C 
ENDBRANCH  17  19
ENDBRANCH  16  17
ENDBRANCH   1  16
TORSDOF 4
ENDMDL
MODEL 5
REMARK VINA RESULT:      -7.0      3.568      6.945
REMARK  Name = 
REMARK  4 active torsions:
REMARK  status: ('A' for Active; 'I' for Inactive)
REMARK    1  A    between atoms: C_2  and  C_3
REMARK    2  A    between atoms: C_3  and  S_4
REMARK    3  A    between atoms: S_4  and  C_5
REMARK    4  A    between atoms: C_11  and  C_12
REMARK                            x       y       z     vdW  Elec       q    Type
REMARK                         _______ _______ _______ _____ _____    ______ ____
ROOT
ATOM      1  C   UNL     1       4.649   4.114  19.339  0.00  0.00    +0.000 A 
ATOM      2  N   UNL     1       5.184   2.909  19.453  0.00  0.00    +0.000 NA
ATOM      3  N   UNL     1       4.278   2.092  20.121  0.00  0.00    +0.000 NA
ATOM      4  C   UNL     1       3.246   2.847  20.375  0.00  0.00    +0.000 A 
ATOM      5  S   UNL     1       1.729   2.639  21.182  0.00  0.00    +0.000 S 
ATOM      6  C   UNL     1       1.335   4.320  20.789  0.00  0.00    +0.000 A 
ATOM      7  C   UNL     1       2.315   4.952  20.103  0.00  0.00    +0.000 A 
ATOM      8  N   UNL     1       3.397   4.112  19.888  0.00  0.00    +0.000 N 
ENDROOT
BRANCH   7   9
ATOM      9  C   UNL     1       2.171   6.323  19.625  0.00  0.00    +0.000 A 
ATOM     10  C   UNL     1       1.819   7.356  20.501  0.00  0.00    +0.000 A 
ATOM     11  C   UNL     1       1.650   8.658  20.020  0.00  0.00    +0.000 A 
ATOM     12  C   UNL     1       1.827   8.925  18.663  0.00  0.00    +0.000 A 
ATOM     13 CL   UNL     1       1.607  10.524  18.070  0.00  0.00    +0.000 Cl
ATOM     14  C   UNL     1       2.173   7.902  17.783  0.00  0.00    +0.000 A 
ATOM     15  C   UNL     1       2.346   6.602  18.263  0.00  0.00    +0.000 A 
ENDBRANCH   7   9
BRANCH   1  16
ATOM     16  S   UNL     1       5.425   5.519  18.700  0.00  0.00    +0.000 S 
BRANCH  16  17
ATOM     17  C   UNL     1       5.139   5.270  16.921  0.00  0.00    +0.000 C 
BRANCH  17  19
ATOM     18  O   UNL     1       7.021   6.677  16.324  0.00  0.00    +0.000 OA
ATOM     19  C   UNL     1       6.344   5.676  16.074  0.00  0.00    +0.000 C 
ATOM     20  N   UNL     1       6.667   4.842  15.011  0.00  0.00    +0.000 N 
ATOM     21  C   UNL     1       7.871   5.110  14.219  0.00  0.00    +0.000 C 
ATOM     22  C   UNL     1       7.537   5.136  12.725  0.00  0.00    +0.000 C 
ATOM     23  O   UNL     1       6.886   3.918  12.326  0.00  0.00    +0.000 OA
ATOM     24  C   UNL     1       5.661   3.735  13.052  0.00  0.00    +0.000 C 
ATOM     25  C   UNL     1       5.920   3.660  14.564  0.00  0.00    +0.000 C 
ENDBRANCH  17  19
ENDBRANCH  16  17
ENDBRANCH   1  16
TORSDOF 4
ENDMDL
MODEL 6
REMARK VINA RESULT:      -7.0      0.402      1.045
REMARK  Name = 
REMARK  4 active torsions:
REMARK  status: ('A' for Active; 'I' for Inactive)
REMARK    1  A    between atoms: C_2  and  C_3
REMARK    2  A    between atoms: C_3  and  S_4
REMARK    3  A    between atoms: S_4  and  C_5
REMARK    4  A    between atoms: C_11  and  C_12
REMARK                            x       y       z     vdW  Elec       q    Type
REMARK                         _______ _______ _______ _____ _____    ______ ____
ROOT
ATOM      1  C   UNL     1       2.721   6.601  19.208  0.00  0.00    +0.000 A 
ATOM      2  N   UNL     1       1.907   6.906  20.205  0.00  0.00    +0.000 NA
ATOM      3  N   UNL     1       1.734   5.771  20.989  0.00  0.00    +0.000 NA
ATOM      4  C   UNL     1       2.452   4.842  20.424  0.00  0.00    +0.000 A 
ATOM      5  S   UNL     1       2.766   3.166  20.723  0.00  0.00    +0.000 S 
ATOM      6  C   UNL     1       3.846   3.158  19.320  0.00  0.00    +0.000 A 
ATOM      7  C   UNL     1       3.924   4.358  18.699  0.00  0.00    +0.000 A 
ATOM      8  N   UNL     1       3.119   5.297  19.325  0.00  0.00    +0.000 N 
ENDROOT
BRANCH   7   9
ATOM      9  C   UNL     1       4.804   4.590  17.560  0.00  0.00    +0.000 A 
ATOM     10  C   UNL     1       4.414   4.227  16.265  0.00  0.00    +0.000 A 
ATOM     11  C   UNL     1       5.284   4.423  15.189  0.00  0.00    +0.000 A 
ATOM     12  C   UNL     1       6.546   4.974  15.407  0.00  0.00    +0.000 A 
ATOM     13 CL   UNL     1       7.620   5.204  14.084  0.00  0.00    +0.000 Cl
ATOM     14  C   UNL     1       6.945   5.334  16.692  0.00  0.00    +0.000 A 
ATOM     15  C   UNL     1       6.075   5.143  17.768  0.00  0.00    +0.000 A 
ENDBRANCH   7   9
BRANCH   1  16
ATOM     16  S   UNL     1       3.148   7.629  17.887  0.00  0.00    +0.000 S 
BRANCH  16  17
ATOM     17  C   UNL     1       1.639   8.636  17.756  0.00  0.00    +0.000 C 
BRANCH  17  19
ATOM     18  O   UNL     1       2.742  10.776  17.467  0.00  0.00    +0.000 OA
ATOM     19  C   UNL     1       1.893  10.111  18.066  0.00  0.00    +0.000 C 
ATOM     20  N   UNL     1       1.096  10.686  19.048  0.00  0.00    +0.000 N 
ATOM     21  C   UNL     1       1.209  12.121  19.325  0.00  0.00    +0.000 C 
ATOM     22  C   UNL     1       1.401  12.365  20.824  0.00  0.00    +0.000 C 
ATOM     23  O   UNL     1       0.345  11.750  21.581  0.00  0.00    +0.000 OA
ATOM     24  C   UNL     1       0.323  10.331  21.361  0.00  0.00    +0.000 C 
ATOM     25  C   UNL     1       0.095  10.005  19.878  0.00  0.00    +0.000 C 
ENDBRANCH  17  19
ENDBRANCH  16  17
ENDBRANCH   1  16
TORSDOF 4
ENDMDL
MODEL 7
REMARK VINA RESULT:      -6.8      2.118      2.487
REMARK  Name = 
REMARK  4 active torsions:
REMARK  status: ('A' for Active; 'I' for Inactive)
REMARK    1  A    between atoms: C_2  and  C_3
REMARK    2  A    between atoms: C_3  and  S_4
REMARK    3  A    between atoms: S_4  and  C_5
REMARK    4  A    between atoms: C_11  and  C_12
REMARK                            x       y       z     vdW  Elec       q    Type
REMARK                         _______ _______ _______ _____ _____    ______ ____
ROOT
ATOM      1  C   UNL     1       2.107   5.003  19.933  0.00  0.00    +0.000 A 
ATOM      2  N   UNL     1       1.048   4.435  20.487  0.00  0.00    +0.000 NA
ATOM      3  N   UNL     1       0.964   3.126  20.023  0.00  0.00    +0.000 NA
ATOM      4  C   UNL     1       1.975   2.975  19.214  0.00  0.00    +0.000 A 
ATOM      5  S   UNL     1       2.579   1.700  18.212  0.00  0.00    +0.000 S 
ATOM      6  C   UNL     1       3.912   2.761  17.733  0.00  0.00    +0.000 A 
ATOM      7  C   UNL     1       3.856   3.984  18.310  0.00  0.00    +0.000 A 
ATOM      8  N   UNL     1       2.747   4.097  19.134  0.00  0.00    +0.000 N 
ENDROOT
BRANCH   7   9
ATOM      9  C   UNL     1       4.889   4.992  18.101  0.00  0.00    +0.000 A 
ATOM     10  C   UNL     1       4.801   5.903  17.042  0.00  0.00    +0.000 A 
ATOM     11  C   UNL     1       5.818   6.840  16.835  0.00  0.00    +0.000 A 
ATOM     12  C   UNL     1       6.926   6.861  17.682  0.00  0.00    +0.000 A 
ATOM     13 CL   UNL     1       8.182   8.005  17.419  0.00  0.00    +0.000 Cl
ATOM     14  C   UNL     1       7.025   5.955  18.735  0.00  0.00    +0.000 A 
ATOM     15  C   UNL     1       6.008   5.021  18.946  0.00  0.00    +0.000 A 
ENDBRANCH   7   9
BRANCH   1  16
ATOM     16  S   UNL     1       2.572   6.660  20.086  0.00  0.00    +0.000 S 
BRANCH  16  17
ATOM     17  C   UNL     1       1.061   7.357  20.819  0.00  0.00    +0.000 C 
BRANCH  17  19
ATOM     18  O   UNL     1       1.285   9.238  19.305  0.00  0.00    +0.000 OA
ATOM     19  C   UNL     1       0.778   8.778  20.331  0.00  0.00    +0.000 C 
ATOM     20  N   UNL     1      -0.108   9.531  21.091  0.00  0.00    +0.000 N 
ATOM     21  C   UNL     1      -0.509  10.863  20.628  0.00  0.00    +0.000 C 
ATOM     22  C   UNL     1      -0.322  11.897  21.742  0.00  0.00    +0.000 C 
ATOM     23  O   UNL     1      -1.028  11.502  22.930  0.00  0.00    +0.000 OA
ATOM     24  C   UNL     1      -0.546  10.238  23.411  0.00  0.00    +0.000 C 
ATOM     25  C   UNL     1      -0.735   9.136  22.358  0.00  0.00    +0.000 C 
ENDBRANCH  17  19
ENDBRANCH  16  17
ENDBRANCH   1  16
TORSDOF 4
ENDMDL
MODEL 8
REMARK VINA RESULT:      -6.8      1.143      1.302
REMARK  Name = 
REMARK  4 active torsions:
REMARK  status: ('A' for Active; 'I' for Inactive)
REMARK    1  A    between atoms: C_2  and  C_3
REMARK    2  A    between atoms: C_3  and  S_4
REMARK    3  A    between atoms: S_4  and  C_5
REMARK    4  A    between atoms: C_11  and  C_12
REMARK                            x       y       z     vdW  Elec       q    Type
REMARK                         _______ _______ _______ _____ _____    ______ ____
ROOT
ATOM      1  C   UNL     1       2.028   4.752  19.449  0.00  0.00    +0.000 A 
ATOM      2  N   UNL     1       1.079   4.744  20.371  0.00  0.00    +0.000 NA
ATOM      3  N   UNL     1       1.364   3.731  21.281  0.00  0.00    +0.000 NA
ATOM      4  C   UNL     1       2.468   3.182  20.860  0.00  0.00    +0.000 A 
ATOM      5  S   UNL     1       3.471   1.867  21.372  0.00  0.00    +0.000 S 
ATOM      6  C   UNL     1       4.559   2.223  20.021  0.00  0.00    +0.000 A 
ATOM      7  C   UNL     1       4.146   3.264  19.262  0.00  0.00    +0.000 A 
ATOM      8  N   UNL     1       2.954   3.788  19.739  0.00  0.00    +0.000 N 
ENDROOT
BRANCH   7   9
ATOM      9  C   UNL     1       4.926   3.765  18.136  0.00  0.00    +0.000 A 
ATOM     10  C   UNL     1       6.066   4.550  18.345  0.00  0.00    +0.000 A 
ATOM     11  C   UNL     1       6.782   5.052  17.254  0.00  0.00    +0.000 A 
ATOM     12  C   UNL     1       6.355   4.774  15.955  0.00  0.00    +0.000 A 
ATOM     13 CL   UNL     1       7.230   5.402  14.614  0.00  0.00    +0.000 Cl
ATOM     14  C   UNL     1       5.219   3.998  15.739  0.00  0.00    +0.000 A 
ATOM     15  C   UNL     1       4.505   3.492  16.827  0.00  0.00    +0.000 A 
ENDBRANCH   7   9
BRANCH   1  16
ATOM     16  S   UNL     1       2.064   5.736  18.031  0.00  0.00    +0.000 S 
BRANCH  16  17
ATOM     17  C   UNL     1       2.934   7.200  18.671  0.00  0.00    +0.000 C 
BRANCH  17  19
ATOM     18  O   UNL     1       2.101   9.132  17.467  0.00  0.00    +0.000 OA
ATOM     19  C   UNL     1       2.115   8.480  18.514  0.00  0.00    +0.000 C 
ATOM     20  N   UNL     1       1.355   8.870  19.610  0.00  0.00    +0.000 N 
ATOM     21  C   UNL     1       0.463  10.028  19.498  0.00  0.00    +0.000 C 
ATOM     22  C   UNL     1       0.705  11.006  20.650  0.00  0.00    +0.000 C 
ATOM     23  O   UNL     1       0.575  10.344  21.920  0.00  0.00    +0.000 OA
ATOM     24  C   UNL     1       1.528   9.275  22.035  0.00  0.00    +0.000 C 
ATOM     25  C   UNL     1       1.323   8.229  20.930  0.00  0.00    +0.000 C 
ENDBRANCH  17  19
ENDBRANCH  16  17
ENDBRANCH   1  16
TORSDOF 4
ENDMDL
MODEL 9
REMARK VINA RESULT:      -6.8      1.018      1.479
REMARK  Name = 
REMARK  4 active torsions:
REMARK  status: ('A' for Active; 'I' for Inactive)
REMARK    1  A    between atoms: C_2  and  C_3
REMARK    2  A    between atoms: C_3  and  S_4
REMARK    3  A    between atoms: S_4  and  C_5
REMARK    4  A    between atoms: C_11  and  C_12
REMARK                            x       y       z     vdW  Elec       q    Type
REMARK                         _______ _______ _______ _____ _____    ______ ____
ROOT
ATOM      1  C   UNL     1       2.601   5.561  19.676  0.00  0.00    +0.000 A 
ATOM      2  N   UNL     1       1.783   5.662  20.711  0.00  0.00    +0.000 NA
ATOM      3  N   UNL     1       1.833   4.467  21.422  0.00  0.00    +0.000 NA
ATOM      4  C   UNL     1       2.677   3.711  20.779  0.00  0.00    +0.000 A 
ATOM      5  S   UNL     1       3.281   2.099  20.958  0.00  0.00    +0.000 S 
ATOM      6  C   UNL     1       4.294   2.362  19.531  0.00  0.00    +0.000 A 
ATOM      7  C   UNL     1       4.146   3.593  18.989  0.00  0.00    +0.000 A 
ATOM      8  N   UNL     1       3.217   4.341  19.696  0.00  0.00    +0.000 N 
ENDROOT
BRANCH   7   9
ATOM      9  C   UNL     1       4.932   4.041  17.845  0.00  0.00    +0.000 A 
ATOM     10  C   UNL     1       4.441   3.911  16.541  0.00  0.00    +0.000 A 
ATOM     11  C   UNL     1       5.222   4.313  15.453  0.00  0.00    +0.000 A 
ATOM     12  C   UNL     1       6.497   4.836  15.669  0.00  0.00    +0.000 A 
ATOM     13 CL   UNL     1       7.462   5.318  14.330  0.00  0.00    +0.000 Cl
ATOM     14  C   UNL     1       6.996   4.964  16.963  0.00  0.00    +0.000 A 
ATOM     15  C   UNL     1       6.215   4.567  18.051  0.00  0.00    +0.000 A 
ENDBRANCH   7   9
BRANCH   1  16
ATOM     16  S   UNL     1       2.800   6.726  18.416  0.00  0.00    +0.000 S 
BRANCH  16  17
ATOM     17  C   UNL     1       2.313   8.243  19.295  0.00  0.00    +0.000 C 
BRANCH  17  19
ATOM     18  O   UNL     1       1.789   9.429  17.246  0.00  0.00    +0.000 OA
ATOM     19  C   UNL     1       1.490   9.186  18.418  0.00  0.00    +0.000 C 
ATOM     20  N   UNL     1       0.358   9.745  18.998  0.00  0.00    +0.000 N 
ATOM     21  C   UNL     1      -0.537  10.576  18.187  0.00  0.00    +0.000 C 
ATOM     22  C   UNL     1      -0.810  11.911  18.884  0.00  0.00    +0.000 C 
ATOM     23  O   UNL     1      -1.321  11.701  20.211  0.00  0.00    +0.000 OA
ATOM     24  C   UNL     1      -0.378  10.967  21.008  0.00  0.00    +0.000 C 
ATOM     25  C   UNL     1      -0.082   9.593  20.390  0.00  0.00    +0.000 C 
ENDBRANCH  17  19
ENDBRANCH  16  17
ENDBRANCH   1  16
TORSDOF 4
ENDMDL
