MODEL 1
REMARK VINA RESULT:      -9.4      0.000      0.000
REMARK  Name = 
REMARK  1 active torsions:
REMARK  status: ('A' for Active; 'I' for Inactive)
REMARK    1  A    between atoms: N_11  and  N_12
REMARK                            x       y       z     vdW  Elec       q    Type
REMARK                         _______ _______ _______ _____ _____    ______ ____
ROOT
ATOM      1  N   UNL     1       8.715   9.161  18.679  0.00  0.00    +0.000 NA
ATOM      2  C   UNL     1       8.152   8.048  18.359  0.00  0.00    +0.000 C 
ATOM      3  C   UNL     1       7.018   7.811  17.395  0.00  0.00    +0.000 C 
ATOM      4  C   UNL     1       6.569   6.465  17.887  0.00  0.00    +0.000 C 
ATOM      5  C   UNL     1       5.316   5.990  17.882  0.00  0.00    +0.000 C 
ATOM      6  C   UNL     1       4.212   6.653  17.089  0.00  0.00    +0.000 C 
ATOM      7  O   UNL     1       4.283   7.645  16.385  0.00  0.00    +0.000 OA
ATOM      8  N   UNL     1       3.094   5.866  17.300  0.00  0.00    +0.000 N 
ATOM      9  C   UNL     1       3.375   4.803  18.151  0.00  0.00    +0.000 A 
ATOM     10  C   UNL     1       2.483   3.844  18.586  0.00  0.00    +0.000 A 
ATOM     11  C   UNL     1       2.951   2.895  19.495  0.00  0.00    +0.000 A 
ATOM     12  C   UNL     1       4.273   2.948  19.964  0.00  0.00    +0.000 A 
ATOM     13  C   UNL     1       5.157   3.931  19.508  0.00  0.00    +0.000 A 
ATOM     14  C   UNL     1       4.713   4.838  18.562  0.00  0.00    +0.000 A 
ATOM     15  C   UNL     1       7.739   5.859  18.569  0.00  0.00    +0.000 C 
ATOM     16  O   UNL     1       7.962   4.678  18.748  0.00  0.00    +0.000 OA
ATOM     17  N   UNL     1       8.563   6.879  18.896  0.00  0.00    +0.000 N 
ATOM     18  H   UNL     1       2.196   6.078  16.892  0.00  0.00    +0.000 HD
ATOM     19  H   UNL     1       9.379   6.768  19.473  0.00  0.00    +0.000 HD
ENDROOT
BRANCH   1  30
ATOM     20  O   UNL     1       7.173  12.715  16.795  0.00  0.00    +0.000 OA
ATOM     21  C   UNL     1       8.228  12.603  17.380  0.00  0.00    +0.000 C 
ATOM     22  N   UNL     1       9.216  13.548  17.538  0.00  0.00    +0.000 N 
ATOM     23  C   UNL     1      10.261  13.048  18.309  0.00  0.00    +0.000 A 
ATOM     24  C   UNL     1      11.412  13.720  18.662  0.00  0.00    +0.000 A 
ATOM     25  C   UNL     1      12.333  13.038  19.463  0.00  0.00    +0.000 A 
ATOM     26  C   UNL     1      12.081  11.725  19.902  0.00  0.00    +0.000 A 
ATOM     27  C   UNL     1      10.909  11.058  19.529  0.00  0.00    +0.000 A 
ATOM     28  C   UNL     1      10.020  11.735  18.715  0.00  0.00    +0.000 A 
ATOM     29  C   UNL     1       8.747  11.350  18.101  0.00  0.00    +0.000 C 
ATOM     30  N   UNL     1       8.103  10.231  18.044  0.00  0.00    +0.000 NA
ATOM     31  H   UNL     1       9.148  14.476  17.151  0.00  0.00    +0.000 HD
ENDBRANCH   1  30
TORSDOF 1
ENDMDL
MODEL 2
REMARK VINA RESULT:      -8.7      6.091      9.114
REMARK  Name = 
REMARK  1 active torsions:
REMARK  status: ('A' for Active; 'I' for Inactive)
REMARK    1  A    between atoms: N_11  and  N_12
REMARK                            x       y       z     vdW  Elec       q    Type
REMARK                         _______ _______ _______ _____ _____    ______ ____
ROOT
ATOM      1  N   UNL     1       2.004   7.704  18.089  0.00  0.00    +0.000 NA
ATOM      2  C   UNL     1       1.737   8.794  18.720  0.00  0.00    +0.000 C 
ATOM      3  C   UNL     1       1.641   9.020  20.207  0.00  0.00    +0.000 C 
ATOM      4  C   UNL     1       0.838  10.289  20.200  0.00  0.00    +0.000 C 
ATOM      5  C   UNL     1      -0.060  10.671  21.118  0.00  0.00    +0.000 C 
ATOM      6  C   UNL     1      -0.166   9.991  22.465  0.00  0.00    +0.000 C 
ATOM      7  O   UNL     1       0.497   9.063  22.893  0.00  0.00    +0.000 OA
ATOM      8  N   UNL     1      -1.162  10.677  23.138  0.00  0.00    +0.000 N 
ATOM      9  C   UNL     1      -1.699  11.690  22.352  0.00  0.00    +0.000 A 
ATOM     10  C   UNL     1      -2.722  12.546  22.708  0.00  0.00    +0.000 A 
ATOM     11  C   UNL     1      -3.163  13.456  21.746  0.00  0.00    +0.000 A 
ATOM     12  C   UNL     1      -2.598  13.464  20.460  0.00  0.00    +0.000 A 
ATOM     13  C   UNL     1      -1.564  12.584  20.126  0.00  0.00    +0.000 A 
ATOM     14  C   UNL     1      -1.084  11.722  21.096  0.00  0.00    +0.000 A 
ATOM     15  C   UNL     1       1.075  10.925  18.881  0.00  0.00    +0.000 C 
ATOM     16  O   UNL     1       0.973  12.103  18.598  0.00  0.00    +0.000 OA
ATOM     17  N   UNL     1       1.504   9.946  18.055  0.00  0.00    +0.000 N 
ATOM     18  H   UNL     1      -1.454  10.431  24.072  0.00  0.00    +0.000 HD
ATOM     19  H   UNL     1       1.629  10.072  17.065  0.00  0.00    +0.000 HD
ENDROOT
BRANCH   1  30
ATOM     20  O   UNL     1       2.873   4.332  20.625  0.00  0.00    +0.000 OA
ATOM     21  C   UNL     1       3.544   4.738  19.702  0.00  0.00    +0.000 C 
ATOM     22  N   UNL     1       4.766   4.273  19.271  0.00  0.00    +0.000 N 
ATOM     23  C   UNL     1       5.197   4.977  18.151  0.00  0.00    +0.000 A 
ATOM     24  C   UNL     1       6.375   4.778  17.463  0.00  0.00    +0.000 A 
ATOM     25  C   UNL     1       6.610   5.586  16.346  0.00  0.00    +0.000 A 
ATOM     26  C   UNL     1       5.669   6.551  15.937  0.00  0.00    +0.000 A 
ATOM     27  C   UNL     1       4.483   6.741  16.652  0.00  0.00    +0.000 A 
ATOM     28  C   UNL     1       4.275   5.953  17.769  0.00  0.00    +0.000 A 
ATOM     29  C   UNL     1       3.201   5.904  18.763  0.00  0.00    +0.000 C 
ATOM     30  N   UNL     1       2.161   6.643  18.968  0.00  0.00    +0.000 NA
ATOM     31  H   UNL     1       5.245   3.507  19.718  0.00  0.00    +0.000 HD
ENDBRANCH   1  30
TORSDOF 1
ENDMDL
MODEL 3
REMARK VINA RESULT:      -8.6      5.648     10.055
REMARK  Name = 
REMARK  1 active torsions:
REMARK  status: ('A' for Active; 'I' for Inactive)
REMARK    1  A    between atoms: N_11  and  N_12
REMARK                            x       y       z     vdW  Elec       q    Type
REMARK                         _______ _______ _______ _____ _____    ______ ____
ROOT
ATOM      1  N   UNL     1       1.854   7.444  20.297  0.00  0.00    +0.000 NA
ATOM      2  C   UNL     1       1.244   8.572  20.176  0.00  0.00    +0.000 C 
ATOM      3  C   UNL     1       1.402   9.615  19.101  0.00  0.00    +0.000 C 
ATOM      4  C   UNL     1       0.824  10.794  19.830  0.00  0.00    +0.000 C 
ATOM      5  C   UNL     1       1.193  12.075  19.698  0.00  0.00    +0.000 C 
ATOM      6  C   UNL     1       2.060  12.543  18.551  0.00  0.00    +0.000 C 
ATOM      7  O   UNL     1       2.522  11.881  17.639  0.00  0.00    +0.000 OA
ATOM      8  N   UNL     1       2.192  13.909  18.732  0.00  0.00    +0.000 N 
ATOM      9  C   UNL     1       1.522  14.335  19.873  0.00  0.00    +0.000 A 
ATOM     10  C   UNL     1       1.470  15.628  20.356  0.00  0.00    +0.000 A 
ATOM     11  C   UNL     1       0.796  15.837  21.560  0.00  0.00    +0.000 A 
ATOM     12  C   UNL     1       0.227  14.758  22.256  0.00  0.00    +0.000 A 
ATOM     13  C   UNL     1       0.296  13.459  21.744  0.00  0.00    +0.000 A 
ATOM     14  C   UNL     1       0.911  13.256  20.522  0.00  0.00    +0.000 A 
ATOM     15  C   UNL     1      -0.076  10.240  20.872  0.00  0.00    +0.000 C 
ATOM     16  O   UNL     1      -1.025  10.787  21.399  0.00  0.00    +0.000 OA
ATOM     17  N   UNL     1       0.316   8.962  21.076  0.00  0.00    +0.000 N 
ATOM     18  H   UNL     1       2.733  14.489  18.109  0.00  0.00    +0.000 HD
ATOM     19  H   UNL     1      -0.046   8.384  21.814  0.00  0.00    +0.000 HD
ENDROOT
BRANCH   1  30
ATOM     20  O   UNL     1       4.617   6.507  17.127  0.00  0.00    +0.000 OA
ATOM     21  C   UNL     1       3.817   5.756  17.638  0.00  0.00    +0.000 C 
ATOM     22  N   UNL     1       3.545   4.449  17.303  0.00  0.00    +0.000 N 
ATOM     23  C   UNL     1       2.585   3.908  18.153  0.00  0.00    +0.000 A 
ATOM     24  C   UNL     1       2.076   2.628  18.104  0.00  0.00    +0.000 A 
ATOM     25  C   UNL     1       1.127   2.276  19.069  0.00  0.00    +0.000 A 
ATOM     26  C   UNL     1       0.725   3.194  20.059  0.00  0.00    +0.000 A 
ATOM     27  C   UNL     1       1.249   4.490  20.089  0.00  0.00    +0.000 A 
ATOM     28  C   UNL     1       2.167   4.831  19.113  0.00  0.00    +0.000 A 
ATOM     29  C   UNL     1       2.874   6.077  18.808  0.00  0.00    +0.000 C 
ATOM     30  N   UNL     1       2.792   7.273  19.290  0.00  0.00    +0.000 NA
ATOM     31  H   UNL     1       4.015   3.971  16.549  0.00  0.00    +0.000 HD
ENDBRANCH   1  30
TORSDOF 1
ENDMDL
MODEL 4
REMARK VINA RESULT:      -8.4      6.752     10.308
REMARK  Name = 
REMARK  1 active torsions:
REMARK  status: ('A' for Active; 'I' for Inactive)
REMARK    1  A    between atoms: N_11  and  N_12
REMARK                            x       y       z     vdW  Elec       q    Type
REMARK                         _______ _______ _______ _____ _____    ______ ____
ROOT
ATOM      1  N   UNL     1       1.963   6.784  19.488  0.00  0.00    +0.000 NA
ATOM      2  C   UNL     1       1.703   8.000  19.826  0.00  0.00    +0.000 C 
ATOM      3  C   UNL     1       1.496   8.567  21.206  0.00  0.00    +0.000 C 
ATOM      4  C   UNL     1       0.765   9.826  20.835  0.00  0.00    +0.000 C 
ATOM      5  C   UNL     1      -0.185  10.440  21.553  0.00  0.00    +0.000 C 
ATOM      6  C   UNL     1      -0.439  10.095  23.004  0.00  0.00    +0.000 C 
ATOM      7  O   UNL     1       0.136   9.271  23.693  0.00  0.00    +0.000 OA
ATOM      8  N   UNL     1      -1.449  10.951  23.406  0.00  0.00    +0.000 N 
ATOM      9  C   UNL     1      -1.864  11.770  22.363  0.00  0.00    +0.000 A 
ATOM     10  C   UNL     1      -2.866  12.719  22.417  0.00  0.00    +0.000 A 
ATOM     11  C   UNL     1      -3.176  13.394  21.236  0.00  0.00    +0.000 A 
ATOM     12  C   UNL     1      -2.507  13.085  20.040  0.00  0.00    +0.000 A 
ATOM     13  C   UNL     1      -1.496  12.118  20.014  0.00  0.00    +0.000 A 
ATOM     14  C   UNL     1      -1.146  11.489  21.196  0.00  0.00    +0.000 A 
ATOM     15  C   UNL     1       1.144  10.130  19.433  0.00  0.00    +0.000 C 
ATOM     16  O   UNL     1       1.129  11.212  18.880  0.00  0.00    +0.000 OA
ATOM     17  N   UNL     1       1.588   8.972  18.896  0.00  0.00    +0.000 N 
ATOM     18  H   UNL     1      -1.830  10.939  24.340  0.00  0.00    +0.000 HD
ATOM     19  H   UNL     1       1.802   8.861  17.920  0.00  0.00    +0.000 HD
ENDROOT
BRANCH   1  30
ATOM     20  O   UNL     1       2.179   3.883  22.666  0.00  0.00    +0.000 OA
ATOM     21  C   UNL     1       2.386   3.687  21.489  0.00  0.00    +0.000 C 
ATOM     22  N   UNL     1       2.797   2.523  20.882  0.00  0.00    +0.000 N 
ATOM     23  C   UNL     1       2.886   2.687  19.502  0.00  0.00    +0.000 A 
ATOM     24  C   UNL     1       3.268   1.730  18.587  0.00  0.00    +0.000 A 
ATOM     25  C   UNL     1       3.271   2.098  17.237  0.00  0.00    +0.000 A 
ATOM     26  C   UNL     1       2.882   3.390  16.836  0.00  0.00    +0.000 A 
ATOM     27  C   UNL     1       2.503   4.349  17.781  0.00  0.00    +0.000 A 
ATOM     28  C   UNL     1       2.529   3.979  19.113  0.00  0.00    +0.000 A 
ATOM     29  C   UNL     1       2.251   4.711  20.351  0.00  0.00    +0.000 C 
ATOM     30  N   UNL     1       1.990   5.952  20.597  0.00  0.00    +0.000 NA
ATOM     31  H   UNL     1       2.979   1.675  21.396  0.00  0.00    +0.000 HD
ENDBRANCH   1  30
TORSDOF 1
ENDMDL
MODEL 5
REMARK VINA RESULT:      -8.3      6.795     10.426
REMARK  Name = 
REMARK  1 active torsions:
REMARK  status: ('A' for Active; 'I' for Inactive)
REMARK    1  A    between atoms: N_11  and  N_12
REMARK                            x       y       z     vdW  Elec       q    Type
REMARK                         _______ _______ _______ _____ _____    ______ ____
ROOT
ATOM      1  N   UNL     1       1.615   7.844  21.170  0.00  0.00    +0.000 NA
ATOM      2  C   UNL     1       0.731   8.775  21.272  0.00  0.00    +0.000 C 
ATOM      3  C   UNL     1       0.287   9.767  20.229  0.00  0.00    +0.000 C 
ATOM      4  C   UNL     1      -0.324  10.799  21.133  0.00  0.00    +0.000 C 
ATOM      5  C   UNL     1      -0.351  12.124  20.931  0.00  0.00    +0.000 C 
ATOM      6  C   UNL     1      -0.019  12.734  19.587  0.00  0.00    +0.000 C 
ATOM      7  O   UNL     1       0.299  12.163  18.559  0.00  0.00    +0.000 OA
ATOM      8  N   UNL     1      -0.192  14.096  19.758  0.00  0.00    +0.000 N 
ATOM      9  C   UNL     1      -0.571  14.400  21.060  0.00  0.00    +0.000 A 
ATOM     10  C   UNL     1      -0.802  15.661  21.572  0.00  0.00    +0.000 A 
ATOM     11  C   UNL     1      -1.112  15.757  22.929  0.00  0.00    +0.000 A 
ATOM     12  C   UNL     1      -1.150  14.608  23.735  0.00  0.00    +0.000 A 
ATOM     13  C   UNL     1      -0.910  13.342  23.191  0.00  0.00    +0.000 A 
ATOM     14  C   UNL     1      -0.662  13.238  21.833  0.00  0.00    +0.000 A 
ATOM     15  C   UNL     1      -0.696  10.092  22.383  0.00  0.00    +0.000 C 
ATOM     16  O   UNL     1      -1.548  10.410  23.189  0.00  0.00    +0.000 OA
ATOM     17  N   UNL     1       0.051   8.966  22.423  0.00  0.00    +0.000 N 
ATOM     18  H   UNL     1      -0.030  14.760  19.015  0.00  0.00    +0.000 HD
ATOM     19  H   UNL     1       0.088   8.355  23.220  0.00  0.00    +0.000 HD
ENDROOT
BRANCH   1  30
ATOM     20  O   UNL     1       3.423   7.468  17.277  0.00  0.00    +0.000 OA
ATOM     21  C   UNL     1       3.006   6.570  17.973  0.00  0.00    +0.000 C 
ATOM     22  N   UNL     1       2.947   5.226  17.681  0.00  0.00    +0.000 N 
ATOM     23  C   UNL     1       2.437   4.506  18.757  0.00  0.00    +0.000 A 
ATOM     24  C   UNL     1       2.239   3.143  18.810  0.00  0.00    +0.000 A 
ATOM     25  C   UNL     1       1.732   2.613  20.000  0.00  0.00    +0.000 A 
ATOM     26  C   UNL     1       1.453   3.443  21.103  0.00  0.00    +0.000 A 
ATOM     27  C   UNL     1       1.656   4.825  21.028  0.00  0.00    +0.000 A 
ATOM     28  C   UNL     1       2.134   5.337  19.836  0.00  0.00    +0.000 A 
ATOM     29  C   UNL     1       2.416   6.702  19.386  0.00  0.00    +0.000 C 
ATOM     30  N   UNL     1       2.217   7.862  19.921  0.00  0.00    +0.000 NA
ATOM     31  H   UNL     1       3.261   4.847  16.801  0.00  0.00    +0.000 HD
ENDBRANCH   1  30
TORSDOF 1
ENDMDL
MODEL 6
REMARK VINA RESULT:      -8.1      9.759     11.158
REMARK  Name = 
REMARK  1 active torsions:
REMARK  status: ('A' for Active; 'I' for Inactive)
REMARK    1  A    between atoms: N_11  and  N_12
REMARK                            x       y       z     vdW  Elec       q    Type
REMARK                         _______ _______ _______ _____ _____    ______ ____
ROOT
ATOM      1  N   UNL     1      -3.148  12.000  22.994  0.00  0.00    +0.000 NA
ATOM      2  C   UNL     1      -1.973  11.677  22.577  0.00  0.00    +0.000 C 
ATOM      3  C   UNL     1      -1.263  12.126  21.326  0.00  0.00    +0.000 C 
ATOM      4  C   UNL     1      -0.244  11.027  21.227  0.00  0.00    +0.000 C 
ATOM      5  C   UNL     1       0.266  10.509  20.102  0.00  0.00    +0.000 C 
ATOM      6  C   UNL     1       0.093  11.185  18.760  0.00  0.00    +0.000 C 
ATOM      7  O   UNL     1      -0.491  12.225  18.512  0.00  0.00    +0.000 OA
ATOM      8  N   UNL     1       0.778  10.385  17.862  0.00  0.00    +0.000 N 
ATOM      9  C   UNL     1       1.338   9.280  18.492  0.00  0.00    +0.000 A 
ATOM     10  C   UNL     1       2.064   8.274  17.888  0.00  0.00    +0.000 A 
ATOM     11  C   UNL     1       2.485   7.213  18.691  0.00  0.00    +0.000 A 
ATOM     12  C   UNL     1       2.144   7.170  20.053  0.00  0.00    +0.000 A 
ATOM     13  C   UNL     1       1.406   8.203  20.640  0.00  0.00    +0.000 A 
ATOM     14  C   UNL     1       1.039   9.285  19.860  0.00  0.00    +0.000 A 
ATOM     15  C   UNL     1      -0.078  10.488  22.599  0.00  0.00    +0.000 C 
ATOM     16  O   UNL     1       0.887   9.906  23.055  0.00  0.00    +0.000 OA
ATOM     17  N   UNL     1      -1.189  10.836  23.285  0.00  0.00    +0.000 N 
ATOM     18  H   UNL     1       0.827  10.595  16.877  0.00  0.00    +0.000 HD
ATOM     19  H   UNL     1      -1.397  10.500  24.210  0.00  0.00    +0.000 HD
ENDROOT
BRANCH   1  30
ATOM     20  O   UNL     1      -5.014  14.923  20.437  0.00  0.00    +0.000 OA
ATOM     21  C   UNL     1      -4.456  15.132  21.491  0.00  0.00    +0.000 C 
ATOM     22  N   UNL     1      -4.224  16.342  22.104  0.00  0.00    +0.000 N 
ATOM     23  C   UNL     1      -3.586  16.164  23.328  0.00  0.00    +0.000 A 
ATOM     24  C   UNL     1      -3.202  17.157  24.203  0.00  0.00    +0.000 A 
ATOM     25  C   UNL     1      -2.588  16.760  25.396  0.00  0.00    +0.000 A 
ATOM     26  C   UNL     1      -2.389  15.398  25.691  0.00  0.00    +0.000 A 
ATOM     27  C   UNL     1      -2.781  14.405  24.788  0.00  0.00    +0.000 A 
ATOM     28  C   UNL     1      -3.363  14.813  23.602  0.00  0.00    +0.000 A 
ATOM     29  C   UNL     1      -3.843  14.080  22.429  0.00  0.00    +0.000 C 
ATOM     30  N   UNL     1      -3.787  12.834  22.089  0.00  0.00    +0.000 NA
ATOM     31  H   UNL     1      -4.511  17.220  21.701  0.00  0.00    +0.000 HD
ENDBRANCH   1  30
TORSDOF 1
ENDMDL
MODEL 7
REMARK VINA RESULT:      -7.8      8.178      9.836
REMARK  Name = 
REMARK  1 active torsions:
REMARK  status: ('A' for Active; 'I' for Inactive)
REMARK    1  A    between atoms: N_11  and  N_12
REMARK                            x       y       z     vdW  Elec       q    Type
REMARK                         _______ _______ _______ _____ _____    ______ ____
ROOT
ATOM      1  N   UNL     1      -0.234  14.549  22.067  0.00  0.00    +0.000 NA
ATOM      2  C   UNL     1      -0.943  13.617  21.530  0.00  0.00    +0.000 C 
ATOM      3  C   UNL     1      -0.504  12.253  21.066  0.00  0.00    +0.000 C 
ATOM      4  C   UNL     1      -1.643  11.944  20.137  0.00  0.00    +0.000 C 
ATOM      5  C   UNL     1      -1.582  11.220  19.011  0.00  0.00    +0.000 C 
ATOM      6  C   UNL     1      -0.386  10.354  18.680  0.00  0.00    +0.000 C 
ATOM      7  O   UNL     1       0.628  10.192  19.335  0.00  0.00    +0.000 OA
ATOM      8  N   UNL     1      -0.704   9.745  17.480  0.00  0.00    +0.000 N 
ATOM      9  C   UNL     1      -1.950  10.151  17.019  0.00  0.00    +0.000 A 
ATOM     10  C   UNL     1      -2.558   9.755  15.844  0.00  0.00    +0.000 A 
ATOM     11  C   UNL     1      -3.789  10.332  15.530  0.00  0.00    +0.000 A 
ATOM     12  C   UNL     1      -4.357  11.303  16.371  0.00  0.00    +0.000 A 
ATOM     13  C   UNL     1      -3.719  11.688  17.555  0.00  0.00    +0.000 A 
ATOM     14  C   UNL     1      -2.528  11.073  17.899  0.00  0.00    +0.000 A 
ATOM     15  C   UNL     1      -2.788  12.769  20.593  0.00  0.00    +0.000 C 
ATOM     16  O   UNL     1      -3.972  12.556  20.416  0.00  0.00    +0.000 OA
ATOM     17  N   UNL     1      -2.266  13.782  21.319  0.00  0.00    +0.000 N 
ATOM     18  H   UNL     1      -0.076   9.108  17.012  0.00  0.00    +0.000 HD
ATOM     19  H   UNL     1      -2.808  14.560  21.653  0.00  0.00    +0.000 HD
ENDROOT
BRANCH   1  30
ATOM     20  O   UNL     1       3.984  13.678  21.981  0.00  0.00    +0.000 OA
ATOM     21  C   UNL     1       3.379  14.409  21.229  0.00  0.00    +0.000 C 
ATOM     22  N   UNL     1       3.882  15.184  20.210  0.00  0.00    +0.000 N 
ATOM     23  C   UNL     1       2.860  15.856  19.546  0.00  0.00    +0.000 A 
ATOM     24  C   UNL     1       3.004  16.717  18.480  0.00  0.00    +0.000 A 
ATOM     25  C   UNL     1       1.840  17.275  17.943  0.00  0.00    +0.000 A 
ATOM     26  C   UNL     1       0.573  16.953  18.466  0.00  0.00    +0.000 A 
ATOM     27  C   UNL     1       0.448  16.080  19.552  0.00  0.00    +0.000 A 
ATOM     28  C   UNL     1       1.609  15.556  20.088  0.00  0.00    +0.000 A 
ATOM     29  C   UNL     1       1.865  14.671  21.227  0.00  0.00    +0.000 C 
ATOM     30  N   UNL     1       1.100  14.180  22.146  0.00  0.00    +0.000 NA
ATOM     31  H   UNL     1       4.865  15.219  19.987  0.00  0.00    +0.000 HD
ENDBRANCH   1  30
TORSDOF 1
ENDMDL
MODEL 8
REMARK VINA RESULT:      -7.7     10.545     12.142
REMARK  Name = 
REMARK  1 active torsions:
REMARK  status: ('A' for Active; 'I' for Inactive)
REMARK    1  A    between atoms: N_11  and  N_12
REMARK                            x       y       z     vdW  Elec       q    Type
REMARK                         _______ _______ _______ _____ _____    ______ ____
ROOT
ATOM      1  N   UNL     1      -4.176  12.532  22.561  0.00  0.00    +0.000 NA
ATOM      2  C   UNL     1      -2.951  12.266  22.267  0.00  0.00    +0.000 C 
ATOM      3  C   UNL     1      -2.179  12.641  21.029  0.00  0.00    +0.000 C 
ATOM      4  C   UNL     1      -1.076  11.626  21.124  0.00  0.00    +0.000 C 
ATOM      5  C   UNL     1      -0.439  11.039  20.101  0.00  0.00    +0.000 C 
ATOM      6  C   UNL     1      -0.555  11.557  18.684  0.00  0.00    +0.000 C 
ATOM      7  O   UNL     1      -1.192  12.514  18.283  0.00  0.00    +0.000 OA
ATOM      8  N   UNL     1       0.259  10.729  17.931  0.00  0.00    +0.000 N 
ATOM      9  C   UNL     1       0.847   9.745  18.716  0.00  0.00    +0.000 A 
ATOM     10  C   UNL     1       1.693   8.745  18.278  0.00  0.00    +0.000 A 
ATOM     11  C   UNL     1       2.125   7.811  19.220  0.00  0.00    +0.000 A 
ATOM     12  C   UNL     1       1.681   7.880  20.550  0.00  0.00    +0.000 A 
ATOM     13  C   UNL     1       0.823   8.903  20.967  0.00  0.00    +0.000 A 
ATOM     14  C   UNL     1       0.439   9.865  20.050  0.00  0.00    +0.000 A 
ATOM     15  C   UNL     1      -0.980  11.246  22.555  0.00  0.00    +0.000 C 
ATOM     16  O   UNL     1      -0.014  10.796  23.139  0.00  0.00    +0.000 OA
ATOM     17  N   UNL     1      -2.165  11.570  23.117  0.00  0.00    +0.000 N 
ATOM     18  H   UNL     1       0.370  10.840  16.934  0.00  0.00    +0.000 HD
ATOM     19  H   UNL     1      -2.421  11.314  24.055  0.00  0.00    +0.000 HD
ENDROOT
BRANCH   1  30
ATOM     20  O   UNL     1      -6.062  15.008  19.583  0.00  0.00    +0.000 OA
ATOM     21  C   UNL     1      -5.644  15.363  20.663  0.00  0.00    +0.000 C 
ATOM     22  N   UNL     1      -5.609  16.637  21.183  0.00  0.00    +0.000 N 
ATOM     23  C   UNL     1      -5.088  16.630  22.474  0.00  0.00    +0.000 A 
ATOM     24  C   UNL     1      -4.907  17.727  23.289  0.00  0.00    +0.000 A 
ATOM     25  C   UNL     1      -4.384  17.499  24.566  0.00  0.00    +0.000 A 
ATOM     26  C   UNL     1      -4.073  16.197  25.001  0.00  0.00    +0.000 A 
ATOM     27  C   UNL     1      -4.260  15.097  24.157  0.00  0.00    +0.000 A 
ATOM     28  C   UNL     1      -4.753  15.340  22.889  0.00  0.00    +0.000 A 
ATOM     29  C   UNL     1      -5.026  14.466  21.746  0.00  0.00    +0.000 C 
ATOM     30  N   UNL     1      -4.801  13.212  21.527  0.00  0.00    +0.000 NA
ATOM     31  H   UNL     1      -5.944  17.441  20.677  0.00  0.00    +0.000 HD
ENDBRANCH   1  30
TORSDOF 1
ENDMDL
MODEL 9
REMARK VINA RESULT:      -7.7     10.284     12.028
REMARK  Name = 
REMARK  1 active torsions:
REMARK  status: ('A' for Active; 'I' for Inactive)
REMARK    1  A    between atoms: N_11  and  N_12
REMARK                            x       y       z     vdW  Elec       q    Type
REMARK                         _______ _______ _______ _____ _____    ______ ____
ROOT
ATOM      1  N   UNL     1      -1.874  14.777  21.082  0.00  0.00    +0.000 NA
ATOM      2  C   UNL     1      -1.780  13.544  20.722  0.00  0.00    +0.000 C 
ATOM      3  C   UNL     1      -1.562  12.328  21.584  0.00  0.00    +0.000 C 
ATOM      4  C   UNL     1      -1.063  11.380  20.531  0.00  0.00    +0.000 C 
ATOM      5  C   UNL     1      -0.169  10.397  20.700  0.00  0.00    +0.000 C 
ATOM      6  C   UNL     1       0.240   9.916  22.075  0.00  0.00    +0.000 C 
ATOM      7  O   UNL     1      -0.148  10.315  23.158  0.00  0.00    +0.000 OA
ATOM      8  N   UNL     1       1.134   8.885  21.844  0.00  0.00    +0.000 N 
ATOM      9  C   UNL     1       1.341   8.688  20.484  0.00  0.00    +0.000 A 
ATOM     10  C   UNL     1       2.187   7.759  19.911  0.00  0.00    +0.000 A 
ATOM     11  C   UNL     1       2.301   7.766  18.520  0.00  0.00    +0.000 A 
ATOM     12  C   UNL     1       1.602   8.711  17.752  0.00  0.00    +0.000 A 
ATOM     13  C   UNL     1       0.753   9.642  18.358  0.00  0.00    +0.000 A 
ATOM     14  C   UNL     1       0.591   9.598  19.732  0.00  0.00    +0.000 A 
ATOM     15  C   UNL     1      -1.586  11.882  19.237  0.00  0.00    +0.000 C 
ATOM     16  O   UNL     1      -1.778  11.247  18.219  0.00  0.00    +0.000 OA
ATOM     17  N   UNL     1      -1.885  13.187  19.424  0.00  0.00    +0.000 N 
ATOM     18  H   UNL     1       1.580   8.376  22.593  0.00  0.00    +0.000 HD
ATOM     19  H   UNL     1      -2.149  13.807  18.678  0.00  0.00    +0.000 HD
ENDROOT
BRANCH   1  30
ATOM     20  O   UNL     1      -1.738  15.251  25.362  0.00  0.00    +0.000 OA
ATOM     21  C   UNL     1      -2.717  15.327  24.654  0.00  0.00    +0.000 C 
ATOM     22  N   UNL     1      -4.026  15.520  25.034  0.00  0.00    +0.000 N 
ATOM     23  C   UNL     1      -4.860  15.590  23.921  0.00  0.00    +0.000 A 
ATOM     24  C   UNL     1      -6.226  15.773  23.933  0.00  0.00    +0.000 A 
ATOM     25  C   UNL     1      -6.876  15.834  22.696  0.00  0.00    +0.000 A 
ATOM     26  C   UNL     1      -6.155  15.728  21.492  0.00  0.00    +0.000 A 
ATOM     27  C   UNL     1      -4.770  15.537  21.501  0.00  0.00    +0.000 A 
ATOM     28  C   UNL     1      -4.144  15.453  22.731  0.00  0.00    +0.000 A 
ATOM     29  C   UNL     1      -2.753  15.216  23.122  0.00  0.00    +0.000 C 
ATOM     30  N   UNL     1      -1.692  14.914  22.450  0.00  0.00    +0.000 NA
ATOM     31  H   UNL     1      -4.305  15.616  25.998  0.00  0.00    +0.000 HD
ENDBRANCH   1  30
TORSDOF 1
ENDMDL
