MODEL 1
REMARK VINA RESULT:      -8.1      0.000      0.000
REMARK  Name = 
REMARK  7 active torsions:
REMARK  status: ('A' for Active; 'I' for Inactive)
REMARK    1  A    between atoms: C_2  and  C_5
REMARK    2  A    between atoms: N_3  and  O_4
REMARK    3  A    between atoms: C_8  and  C_9
REMARK    4  A    between atoms: C_9  and  N_10
REMARK    5  A    between atoms: C_11  and  C_13
REMARK    6  A    between atoms: C_15  and  C_16
REMARK    7  A    between atoms: C_22  and  C_23
REMARK                            x       y       z     vdW  Elec       q    Type
REMARK                         _______ _______ _______ _____ _____    ______ ____
ROOT
ATOM      1  N   UNL     1       5.456   6.090  18.391  0.00  0.00    +0.000 N 
ATOM      2  C   UNL     1       4.859   5.111  19.169  0.00  0.00    +0.000 C 
ATOM      3  O   UNL     1       5.340   4.004  19.372  0.00  0.00    +0.000 OA
ATOM      4  H   UNL     1       4.898   6.926  18.248  0.00  0.00    +0.000 HD
ENDROOT
BRANCH   2   5
ATOM      5  C   UNL     1       3.561   5.569  19.708  0.00  0.00    +0.000 A 
ATOM      6  N   UNL     1       3.210   6.925  19.529  0.00  0.00    +0.000 NA
ATOM      7  C   UNL     1       1.996   7.150  19.989  0.00  0.00    +0.000 A 
ATOM      8  S   UNL     1       1.236   5.807  20.723  0.00  0.00    +0.000 S 
ATOM      9  C   UNL     1       2.596   4.823  20.371  0.00  0.00    +0.000 A 
BRANCH   7  10
ATOM     10  C   UNL     1       1.320   8.421  19.905  0.00  0.00    +0.000 A 
ATOM     11  N   UNL     1       1.419   9.220  18.857  0.00  0.00    +0.000 NA
ATOM     12  C   UNL     1       0.656  10.351  19.052  0.00  0.00    +0.000 A 
ATOM     13  C   UNL     1      -0.040  10.400  20.240  0.00  0.00    +0.000 A 
ATOM     14  S   UNL     1       0.304   8.999  21.169  0.00  0.00    +0.000 S 
ENDBRANCH   7  10
BRANCH   9  15
ATOM     15  C   UNL     1       2.676   3.335  20.748  0.00  0.00    +0.000 C 
ATOM     16  C   UNL     1       1.471   2.655  21.379  0.00  0.00    +0.000 C 
ATOM     17  C   UNL     1       1.828   2.342  19.968  0.00  0.00    +0.000 C 
ENDBRANCH   9  15
ENDBRANCH   2   5
BRANCH   1  18
ATOM     18  C   UNL     1       6.646   5.915  17.608  0.00  0.00    +0.000 C 
ATOM     19  C   UNL     1       7.975   5.706  18.301  0.00  0.00    +0.000 C 
ATOM     20  C   UNL     1       7.692   7.021  17.652  0.00  0.00    +0.000 C 
BRANCH  18  24
ATOM     21  C   UNL     1       5.889   3.990  13.767  0.00  0.00    +0.000 A 
ATOM     22  C   UNL     1       4.869   4.099  14.713  0.00  0.00    +0.000 A 
ATOM     23  C   UNL     1       5.116   4.735  15.935  0.00  0.00    +0.000 A 
ATOM     24  C   UNL     1       6.375   5.292  16.241  0.00  0.00    +0.000 A 
ATOM     25  C   UNL     1       7.372   5.203  15.255  0.00  0.00    +0.000 A 
ATOM     26  C   UNL     1       7.138   4.563  14.032  0.00  0.00    +0.000 A 
BRANCH  21  28
ATOM     27  O   UNL     1       4.617   3.506  11.824  0.00  0.00    +0.000 OA
ATOM     28  C   UNL     1       5.616   3.271  12.496  0.00  0.00    +0.000 C 
ATOM     29  N   UNL     1       6.522   2.289  12.154  0.00  0.00    +0.000 N 
ATOM     30  H   UNL     1       7.112   1.840  12.846  0.00  0.00    +0.000 HD
BRANCH  29  31
ATOM     31  O   UNL     1       6.162   1.498  11.037  0.00  0.00    +0.000 OA
ATOM     32  H   UNL     1       5.263   1.831  10.826  0.00  0.00    +0.000 HD
ENDBRANCH  29  31
ENDBRANCH  21  28
ENDBRANCH  18  24
ENDBRANCH   1  18
TORSDOF 7
ENDMDL
MODEL 2
REMARK VINA RESULT:      -8.1      0.969      1.432
REMARK  Name = 
REMARK  7 active torsions:
REMARK  status: ('A' for Active; 'I' for Inactive)
REMARK    1  A    between atoms: C_2  and  C_5
REMARK    2  A    between atoms: N_3  and  O_4
REMARK    3  A    between atoms: C_8  and  C_9
REMARK    4  A    between atoms: C_9  and  N_10
REMARK    5  A    between atoms: C_11  and  C_13
REMARK    6  A    between atoms: C_15  and  C_16
REMARK    7  A    between atoms: C_22  and  C_23
REMARK                            x       y       z     vdW  Elec       q    Type
REMARK                         _______ _______ _______ _____ _____    ______ ____
ROOT
ATOM      1  N   UNL     1       5.315   5.978  18.217  0.00  0.00    +0.000 N 
ATOM      2  C   UNL     1       4.914   4.971  19.081  0.00  0.00    +0.000 C 
ATOM      3  O   UNL     1       5.589   3.987  19.354  0.00  0.00    +0.000 OA
ATOM      4  H   UNL     1       4.614   6.687  18.026  0.00  0.00    +0.000 HD
ENDROOT
BRANCH   2   5
ATOM      5  C   UNL     1       3.561   5.230  19.617  0.00  0.00    +0.000 A 
ATOM      6  N   UNL     1       3.198   6.568  19.885  0.00  0.00    +0.000 NA
ATOM      7  C   UNL     1       1.941   6.635  20.275  0.00  0.00    +0.000 A 
ATOM      8  S   UNL     1       1.146   5.130  20.422  0.00  0.00    +0.000 S 
ATOM      9  C   UNL     1       2.554   4.312  19.885  0.00  0.00    +0.000 A 
BRANCH   7  10
ATOM     10  C   UNL     1       1.249   7.865  20.571  0.00  0.00    +0.000 A 
ATOM     11  N   UNL     1       0.577   8.060  21.692  0.00  0.00    +0.000 NA
ATOM     12  C   UNL     1       0.036   9.328  21.704  0.00  0.00    +0.000 A 
ATOM     13  C   UNL     1       0.316  10.102  20.599  0.00  0.00    +0.000 A 
ATOM     14  S   UNL     1       1.255   9.199  19.483  0.00  0.00    +0.000 S 
ENDBRANCH   7  10
BRANCH   9  15
ATOM     15  C   UNL     1       2.631   2.785  19.730  0.00  0.00    +0.000 C 
ATOM     16  C   UNL     1       1.422   2.021  19.215  0.00  0.00    +0.000 C 
ATOM     17  C   UNL     1       2.605   2.195  18.329  0.00  0.00    +0.000 C 
ENDBRANCH   9  15
ENDBRANCH   2   5
BRANCH   1  18
ATOM     18  C   UNL     1       6.509   5.958  17.419  0.00  0.00    +0.000 C 
ATOM     19  C   UNL     1       7.861   6.062  18.091  0.00  0.00    +0.000 C 
ATOM     20  C   UNL     1       7.330   7.238  17.341  0.00  0.00    +0.000 C 
BRANCH  18  24
ATOM     21  C   UNL     1       5.990   3.862  13.629  0.00  0.00    +0.000 A 
ATOM     22  C   UNL     1       7.152   4.594  13.876  0.00  0.00    +0.000 A 
ATOM     23  C   UNL     1       7.318   5.247  15.102  0.00  0.00    +0.000 A 
ATOM     24  C   UNL     1       6.344   5.177  16.118  0.00  0.00    +0.000 A 
ATOM     25  C   UNL     1       5.202   4.402  15.859  0.00  0.00    +0.000 A 
ATOM     26  C   UNL     1       5.022   3.749  14.633  0.00  0.00    +0.000 A 
BRANCH  21  28
ATOM     27  O   UNL     1       4.816   3.407  11.619  0.00  0.00    +0.000 OA
ATOM     28  C   UNL     1       5.816   3.215  12.303  0.00  0.00    +0.000 C 
ATOM     29  N   UNL     1       6.816   2.346  11.922  0.00  0.00    +0.000 N 
ATOM     30  H   UNL     1       7.429   1.904  12.599  0.00  0.00    +0.000 HD
BRANCH  29  31
ATOM     31  O   UNL     1       6.559   1.609  10.742  0.00  0.00    +0.000 OA
ATOM     32  H   UNL     1       6.959   2.177  10.048  0.00  0.00    +0.000 HD
ENDBRANCH  29  31
ENDBRANCH  21  28
ENDBRANCH  18  24
ENDBRANCH   1  18
TORSDOF 7
ENDMDL
MODEL 3
REMARK VINA RESULT:      -7.5      0.827      1.085
REMARK  Name = 
REMARK  7 active torsions:
REMARK  status: ('A' for Active; 'I' for Inactive)
REMARK    1  A    between atoms: C_2  and  C_5
REMARK    2  A    between atoms: N_3  and  O_4
REMARK    3  A    between atoms: C_8  and  C_9
REMARK    4  A    between atoms: C_9  and  N_10
REMARK    5  A    between atoms: C_11  and  C_13
REMARK    6  A    between atoms: C_15  and  C_16
REMARK    7  A    between atoms: C_22  and  C_23
REMARK                            x       y       z     vdW  Elec       q    Type
REMARK                         _______ _______ _______ _____ _____    ______ ____
ROOT
ATOM      1  N   UNL     1       5.363   6.304  18.555  0.00  0.00    +0.000 N 
ATOM      2  C   UNL     1       4.656   5.243  19.099  0.00  0.00    +0.000 C 
ATOM      3  O   UNL     1       5.017   4.074  19.046  0.00  0.00    +0.000 OA
ATOM      4  H   UNL     1       4.897   7.204  18.607  0.00  0.00    +0.000 HD
ENDROOT
BRANCH   2   5
ATOM      5  C   UNL     1       3.404   5.702  19.737  0.00  0.00    +0.000 A 
ATOM      6  N   UNL     1       3.070   7.070  19.635  0.00  0.00    +0.000 NA
ATOM      7  C   UNL     1       1.893   7.298  20.181  0.00  0.00    +0.000 A 
ATOM      8  S   UNL     1       1.152   5.940  20.905  0.00  0.00    +0.000 S 
ATOM      9  C   UNL     1       2.467   4.946  20.429  0.00  0.00    +0.000 A 
BRANCH   7  10
ATOM     10  C   UNL     1       1.240   8.584  20.191  0.00  0.00    +0.000 A 
ATOM     11  N   UNL     1       1.199   9.377  19.135  0.00  0.00    +0.000 NA
ATOM     12  C   UNL     1       0.498  10.526  19.434  0.00  0.00    +0.000 A 
ATOM     13  C   UNL     1      -0.012  10.593  20.713  0.00  0.00    +0.000 A 
ATOM     14  S   UNL     1       0.437   9.188  21.589  0.00  0.00    +0.000 S 
ENDBRANCH   7  10
BRANCH   9  15
ATOM     15  C   UNL     1       2.539   3.443  20.740  0.00  0.00    +0.000 C 
ATOM     16  C   UNL     1       1.348   2.752  21.385  0.00  0.00    +0.000 C 
ATOM     17  C   UNL     1       1.651   2.495  19.950  0.00  0.00    +0.000 C 
ENDBRANCH   9  15
ENDBRANCH   2   5
BRANCH   1  18
ATOM     18  C   UNL     1       6.541   6.185  17.743  0.00  0.00    +0.000 C 
ATOM     19  C   UNL     1       7.903   6.129  18.402  0.00  0.00    +0.000 C 
ATOM     20  C   UNL     1       7.489   7.376  17.693  0.00  0.00    +0.000 C 
BRANCH  18  24
ATOM     21  C   UNL     1       5.940   4.195  13.909  0.00  0.00    +0.000 A 
ATOM     22  C   UNL     1       6.842   3.674  14.838  0.00  0.00    +0.000 A 
ATOM     23  C   UNL     1       7.014   4.309  16.073  0.00  0.00    +0.000 A 
ATOM     24  C   UNL     1       6.285   5.464  16.422  0.00  0.00    +0.000 A 
ATOM     25  C   UNL     1       5.356   5.944  15.484  0.00  0.00    +0.000 A 
ATOM     26  C   UNL     1       5.180   5.321  14.242  0.00  0.00    +0.000 A 
BRANCH  21  28
ATOM     27  O   UNL     1       6.789   3.255  11.902  0.00  0.00    +0.000 OA
ATOM     28  C   UNL     1       5.808   3.530  12.586  0.00  0.00    +0.000 C 
ATOM     29  N   UNL     1       4.519   3.298  12.156  0.00  0.00    +0.000 N 
ATOM     30  H   UNL     1       3.731   3.832  12.510  0.00  0.00    +0.000 HD
BRANCH  29  31
ATOM     31  O   UNL     1       4.402   2.823  10.828  0.00  0.00    +0.000 OA
ATOM     32  H   UNL     1       4.867   1.960  10.872  0.00  0.00    +0.000 HD
ENDBRANCH  29  31
ENDBRANCH  21  28
ENDBRANCH  18  24
ENDBRANCH   1  18
TORSDOF 7
ENDMDL
MODEL 4
REMARK VINA RESULT:      -7.5      1.456      1.805
REMARK  Name = 
REMARK  7 active torsions:
REMARK  status: ('A' for Active; 'I' for Inactive)
REMARK    1  A    between atoms: C_2  and  C_5
REMARK    2  A    between atoms: N_3  and  O_4
REMARK    3  A    between atoms: C_8  and  C_9
REMARK    4  A    between atoms: C_9  and  N_10
REMARK    5  A    between atoms: C_11  and  C_13
REMARK    6  A    between atoms: C_15  and  C_16
REMARK    7  A    between atoms: C_22  and  C_23
REMARK                            x       y       z     vdW  Elec       q    Type
REMARK                         _______ _______ _______ _____ _____    ______ ____
ROOT
ATOM      1  N   UNL     1       5.158   5.857  18.319  0.00  0.00    +0.000 N 
ATOM      2  C   UNL     1       4.044   6.580  17.924  0.00  0.00    +0.000 C 
ATOM      3  O   UNL     1       3.942   7.159  16.850  0.00  0.00    +0.000 OA
ATOM      4  H   UNL     1       5.128   5.504  19.270  0.00  0.00    +0.000 HD
ENDROOT
BRANCH   2   5
ATOM      5  C   UNL     1       3.002   6.577  18.973  0.00  0.00    +0.000 A 
ATOM      6  N   UNL     1       2.557   7.822  19.470  0.00  0.00    +0.000 NA
ATOM      7  C   UNL     1       1.575   7.649  20.331  0.00  0.00    +0.000 A 
ATOM      8  S   UNL     1       1.175   6.021  20.659  0.00  0.00    +0.000 S 
ATOM      9  C   UNL     1       2.362   5.485  19.543  0.00  0.00    +0.000 A 
BRANCH   7  10
ATOM     10  C   UNL     1       0.864   8.725  20.977  0.00  0.00    +0.000 A 
ATOM     11  N   UNL     1       0.660   8.771  22.281  0.00  0.00    +0.000 NA
ATOM     12  C   UNL     1      -0.031   9.918  22.611  0.00  0.00    +0.000 A 
ATOM     13  C   UNL     1      -0.331  10.753  21.557  0.00  0.00    +0.000 A 
ATOM     14  S   UNL     1       0.232  10.060  20.092  0.00  0.00    +0.000 S 
ENDBRANCH   7  10
BRANCH   9  15
ATOM     15  C   UNL     1       2.626   4.000  19.247  0.00  0.00    +0.000 C 
ATOM     16  C   UNL     1       1.501   2.991  19.406  0.00  0.00    +0.000 C 
ATOM     17  C   UNL     1       1.952   3.369  18.039  0.00  0.00    +0.000 C 
ENDBRANCH   9  15
ENDBRANCH   2   5
BRANCH   1  18
ATOM     18  C   UNL     1       6.397   5.785  17.598  0.00  0.00    +0.000 C 
ATOM     19  C   UNL     1       7.708   5.791  18.355  0.00  0.00    +0.000 C 
ATOM     20  C   UNL     1       7.295   7.015  17.607  0.00  0.00    +0.000 C 
BRANCH  18  24
ATOM     21  C   UNL     1       5.960   3.804  13.736  0.00  0.00    +0.000 A 
ATOM     22  C   UNL     1       6.987   4.727  13.942  0.00  0.00    +0.000 A 
ATOM     23  C   UNL     1       7.131   5.343  15.189  0.00  0.00    +0.000 A 
ATOM     24  C   UNL     1       6.271   5.047  16.267  0.00  0.00    +0.000 A 
ATOM     25  C   UNL     1       5.271   4.086  16.045  0.00  0.00    +0.000 A 
ATOM     26  C   UNL     1       5.113   3.468  14.798  0.00  0.00    +0.000 A 
BRANCH  21  28
ATOM     27  O   UNL     1       4.754   3.303  11.755  0.00  0.00    +0.000 OA
ATOM     28  C   UNL     1       5.799   3.197  12.389  0.00  0.00    +0.000 C 
ATOM     29  N   UNL     1       6.871   2.462  11.928  0.00  0.00    +0.000 N 
ATOM     30  H   UNL     1       7.558   2.063  12.559  0.00  0.00    +0.000 HD
BRANCH  29  31
ATOM     31  O   UNL     1       6.643   1.750  10.727  0.00  0.00    +0.000 OA
ATOM     32  H   UNL     1       5.950   1.108  10.992  0.00  0.00    +0.000 HD
ENDBRANCH  29  31
ENDBRANCH  21  28
ENDBRANCH  18  24
ENDBRANCH   1  18
TORSDOF 7
ENDMDL
MODEL 5
REMARK VINA RESULT:      -7.2      5.116      8.608
REMARK  Name = 
REMARK  7 active torsions:
REMARK  status: ('A' for Active; 'I' for Inactive)
REMARK    1  A    between atoms: C_2  and  C_5
REMARK    2  A    between atoms: N_3  and  O_4
REMARK    3  A    between atoms: C_8  and  C_9
REMARK    4  A    between atoms: C_9  and  N_10
REMARK    5  A    between atoms: C_11  and  C_13
REMARK    6  A    between atoms: C_15  and  C_16
REMARK    7  A    between atoms: C_22  and  C_23
REMARK                            x       y       z     vdW  Elec       q    Type
REMARK                         _______ _______ _______ _____ _____    ______ ____
ROOT
ATOM      1  N   UNL     1      -1.152  10.736  19.820  0.00  0.00    +0.000 N 
ATOM      2  C   UNL     1      -1.527  11.652  18.850  0.00  0.00    +0.000 C 
ATOM      3  O   UNL     1      -0.745  12.374  18.245  0.00  0.00    +0.000 OA
ATOM      4  H   UNL     1      -1.921  10.268  20.292  0.00  0.00    +0.000 HD
ENDROOT
BRANCH   2   5
ATOM      5  C   UNL     1      -2.991  11.656  18.651  0.00  0.00    +0.000 A 
ATOM      6  N   UNL     1      -3.781  12.404  19.552  0.00  0.00    +0.000 NA
ATOM      7  C   UNL     1      -5.047  12.372  19.190  0.00  0.00    +0.000 A 
ATOM      8  S   UNL     1      -5.388  11.404  17.823  0.00  0.00    +0.000 S 
ATOM      9  C   UNL     1      -3.724  11.022  17.657  0.00  0.00    +0.000 A 
BRANCH   7  10
ATOM     10  C   UNL     1      -6.103  13.083  19.868  0.00  0.00    +0.000 A 
ATOM     11  N   UNL     1      -7.058  12.473  20.547  0.00  0.00    +0.000 NA
ATOM     12  C   UNL     1      -7.914  13.405  21.098  0.00  0.00    +0.000 A 
ATOM     13  C   UNL     1      -7.592  14.722  20.853  0.00  0.00    +0.000 A 
ATOM     14  S   UNL     1      -6.194  14.802  19.862  0.00  0.00    +0.000 S 
ENDBRANCH   7  10
BRANCH   9  15
ATOM     15  C   UNL     1      -3.178  10.114  16.543  0.00  0.00    +0.000 C 
ATOM     16  C   UNL     1      -3.931  10.005  15.227  0.00  0.00    +0.000 C 
ATOM     17  C   UNL     1      -2.650  10.761  15.273  0.00  0.00    +0.000 C 
ENDBRANCH   9  15
ENDBRANCH   2   5
BRANCH   1  18
ATOM     18  C   UNL     1       0.173  10.588  20.352  0.00  0.00    +0.000 C 
ATOM     19  C   UNL     1       0.444  10.939  21.800  0.00  0.00    +0.000 C 
ATOM     20  C   UNL     1       0.931  11.854  20.727  0.00  0.00    +0.000 C 
BRANCH  18  24
ATOM     21  C   UNL     1       2.607   7.527  18.421  0.00  0.00    +0.000 A 
ATOM     22  C   UNL     1       2.201   7.370  19.746  0.00  0.00    +0.000 A 
ATOM     23  C   UNL     1       1.404   8.348  20.351  0.00  0.00    +0.000 A 
ATOM     24  C   UNL     1       0.979   9.496  19.653  0.00  0.00    +0.000 A 
ATOM     25  C   UNL     1       1.370   9.610  18.308  0.00  0.00    +0.000 A 
ATOM     26  C   UNL     1       2.173   8.640  17.694  0.00  0.00    +0.000 A 
BRANCH  21  28
ATOM     27  O   UNL     1       4.386   6.797  17.031  0.00  0.00    +0.000 OA
ATOM     28  C   UNL     1       3.491   6.497  17.813  0.00  0.00    +0.000 C 
ATOM     29  N   UNL     1       3.201   5.189  18.138  0.00  0.00    +0.000 N 
ATOM     30  H   UNL     1       2.281   4.907  18.460  0.00  0.00    +0.000 HD
BRANCH  29  31
ATOM     31  O   UNL     1       3.936   4.213  17.424  0.00  0.00    +0.000 OA
ATOM     32  H   UNL     1       3.767   4.465  16.490  0.00  0.00    +0.000 HD
ENDBRANCH  29  31
ENDBRANCH  21  28
ENDBRANCH  18  24
ENDBRANCH   1  18
TORSDOF 7
ENDMDL
MODEL 6
REMARK VINA RESULT:      -7.0      4.566      8.707
REMARK  Name = 
REMARK  7 active torsions:
REMARK  status: ('A' for Active; 'I' for Inactive)
REMARK    1  A    between atoms: C_2  and  C_5
REMARK    2  A    between atoms: N_3  and  O_4
REMARK    3  A    between atoms: C_8  and  C_9
REMARK    4  A    between atoms: C_9  and  N_10
REMARK    5  A    between atoms: C_11  and  C_13
REMARK    6  A    between atoms: C_15  and  C_16
REMARK    7  A    between atoms: C_22  and  C_23
REMARK                            x       y       z     vdW  Elec       q    Type
REMARK                         _______ _______ _______ _____ _____    ______ ____
ROOT
ATOM      1  N   UNL     1       1.730   8.952  18.274  0.00  0.00    +0.000 N 
ATOM      2  C   UNL     1       1.924   8.051  19.310  0.00  0.00    +0.000 C 
ATOM      3  O   UNL     1       1.628   8.268  20.477  0.00  0.00    +0.000 OA
ATOM      4  H   UNL     1       2.102   8.662  17.375  0.00  0.00    +0.000 HD
ENDROOT
BRANCH   2   5
ATOM      5  C   UNL     1       2.548   6.802  18.825  0.00  0.00    +0.000 A 
ATOM      6  N   UNL     1       3.444   6.887  17.736  0.00  0.00    +0.000 NA
ATOM      7  C   UNL     1       3.973   5.707  17.483  0.00  0.00    +0.000 A 
ATOM      8  S   UNL     1       3.394   4.427  18.456  0.00  0.00    +0.000 S 
ATOM      9  C   UNL     1       2.388   5.515  19.320  0.00  0.00    +0.000 A 
BRANCH   7  10
ATOM     10  C   UNL     1       4.969   5.466  16.468  0.00  0.00    +0.000 A 
ATOM     11  N   UNL     1       5.518   6.435  15.757  0.00  0.00    +0.000 NA
ATOM     12  C   UNL     1       6.443   5.910  14.879  0.00  0.00    +0.000 A 
ATOM     13  C   UNL     1       6.610   4.543  14.941  0.00  0.00    +0.000 A 
ATOM     14  S   UNL     1       5.541   3.883  16.110  0.00  0.00    +0.000 S 
ENDBRANCH   7  10
BRANCH   9  15
ATOM     15  C   UNL     1       1.473   5.075  20.474  0.00  0.00    +0.000 C 
ATOM     16  C   UNL     1       0.895   3.669  20.480  0.00  0.00    +0.000 C 
ATOM     17  C   UNL     1       1.980   4.015  21.440  0.00  0.00    +0.000 C 
ENDBRANCH   9  15
ENDBRANCH   2   5
BRANCH   1  18
ATOM     18  C   UNL     1       1.282  10.308  18.429  0.00  0.00    +0.000 C 
ATOM     19  C   UNL     1       2.185  11.448  18.008  0.00  0.00    +0.000 C 
ATOM     20  C   UNL     1       1.990  11.174  19.462  0.00  0.00    +0.000 C 
BRANCH  18  24
ATOM     21  C   UNL     1      -3.038  10.801  18.081  0.00  0.00    +0.000 A 
ATOM     22  C   UNL     1      -2.366   9.884  17.271  0.00  0.00    +0.000 A 
ATOM     23  C   UNL     1      -0.983   9.718  17.404  0.00  0.00    +0.000 A 
ATOM     24  C   UNL     1      -0.236  10.447  18.351  0.00  0.00    +0.000 A 
ATOM     25  C   UNL     1      -0.942  11.334  19.180  0.00  0.00    +0.000 A 
ATOM     26  C   UNL     1      -2.326  11.512  19.052  0.00  0.00    +0.000 A 
BRANCH  21  28
ATOM     27  O   UNL     1      -5.317  10.196  18.343  0.00  0.00    +0.000 OA
ATOM     28  C   UNL     1      -4.499  10.992  17.891  0.00  0.00    +0.000 C 
ATOM     29  N   UNL     1      -4.870  12.080  17.130  0.00  0.00    +0.000 N 
ATOM     30  H   UNL     1      -4.236  12.510  16.465  0.00  0.00    +0.000 HD
BRANCH  29  31
ATOM     31  O   UNL     1      -6.247  12.155  16.815  0.00  0.00    +0.000 OA
ATOM     32  H   UNL     1      -6.244  12.051  15.839  0.00  0.00    +0.000 HD
ENDBRANCH  29  31
ENDBRANCH  21  28
ENDBRANCH  18  24
ENDBRANCH   1  18
TORSDOF 7
ENDMDL
MODEL 7
REMARK VINA RESULT:      -7.0      5.045      8.535
REMARK  Name = 
REMARK  7 active torsions:
REMARK  status: ('A' for Active; 'I' for Inactive)
REMARK    1  A    between atoms: C_2  and  C_5
REMARK    2  A    between atoms: N_3  and  O_4
REMARK    3  A    between atoms: C_8  and  C_9
REMARK    4  A    between atoms: C_9  and  N_10
REMARK    5  A    between atoms: C_11  and  C_13
REMARK    6  A    between atoms: C_15  and  C_16
REMARK    7  A    between atoms: C_22  and  C_23
REMARK                            x       y       z     vdW  Elec       q    Type
REMARK                         _______ _______ _______ _____ _____    ______ ____
ROOT
ATOM      1  N   UNL     1      -0.806  10.961  19.341  0.00  0.00    +0.000 N 
ATOM      2  C   UNL     1      -1.480  11.898  18.574  0.00  0.00    +0.000 C 
ATOM      3  O   UNL     1      -0.938  12.814  17.969  0.00  0.00    +0.000 OA
ATOM      4  H   UNL     1      -1.399  10.312  19.849  0.00  0.00    +0.000 HD
ENDROOT
BRANCH   2   5
ATOM      5  C   UNL     1      -2.939  11.659  18.594  0.00  0.00    +0.000 A 
ATOM      6  N   UNL     1      -3.697  12.271  19.616  0.00  0.00    +0.000 NA
ATOM      7  C   UNL     1      -4.981  12.029  19.445  0.00  0.00    +0.000 A 
ATOM      8  S   UNL     1      -5.358  11.011  18.125  0.00  0.00    +0.000 S 
ATOM      9  C   UNL     1      -3.698  10.908  17.707  0.00  0.00    +0.000 A 
BRANCH   7  10
ATOM     10  C   UNL     1      -6.025  12.559  20.286  0.00  0.00    +0.000 A 
ATOM     11  N   UNL     1      -6.674  11.827  21.174  0.00  0.00    +0.000 NA
ATOM     12  C   UNL     1      -7.601  12.602  21.838  0.00  0.00    +0.000 A 
ATOM     13  C   UNL     1      -7.639  13.929  21.468  0.00  0.00    +0.000 A 
ATOM     14  S   UNL     1      -6.505  14.211  20.212  0.00  0.00    +0.000 S 
ENDBRANCH   7  10
BRANCH   9  15
ATOM     15  C   UNL     1      -3.183  10.097  16.507  0.00  0.00    +0.000 C 
ATOM     16  C   UNL     1      -4.013  10.029  15.235  0.00  0.00    +0.000 C 
ATOM     17  C   UNL     1      -2.768  10.845  15.250  0.00  0.00    +0.000 C 
ENDBRANCH   9  15
ENDBRANCH   2   5
BRANCH   1  18
ATOM     18  C   UNL     1       0.597  10.996  19.647  0.00  0.00    +0.000 C 
ATOM     19  C   UNL     1       1.097  11.878  20.771  0.00  0.00    +0.000 C 
ATOM     20  C   UNL     1       1.352  12.286  19.358  0.00  0.00    +0.000 C 
BRANCH  18  24
ATOM     21  C   UNL     1       2.517   7.225  18.587  0.00  0.00    +0.000 A 
ATOM     22  C   UNL     1       2.375   8.235  17.635  0.00  0.00    +0.000 A 
ATOM     23  C   UNL     1       1.775   9.448  17.989  0.00  0.00    +0.000 A 
ATOM     24  C   UNL     1       1.316   9.695  19.299  0.00  0.00    +0.000 A 
ATOM     25  C   UNL     1       1.507   8.677  20.247  0.00  0.00    +0.000 A 
ATOM     26  C   UNL     1       2.100   7.456  19.903  0.00  0.00    +0.000 A 
BRANCH  21  28
ATOM     27  O   UNL     1       4.331   5.772  18.111  0.00  0.00    +0.000 OA
ATOM     28  C   UNL     1       3.116   5.929  18.176  0.00  0.00    +0.000 C 
ATOM     29  N   UNL     1       2.224   4.940  17.820  0.00  0.00    +0.000 N 
ATOM     30  H   UNL     1       1.280   5.154  17.516  0.00  0.00    +0.000 HD
BRANCH  29  31
ATOM     31  O   UNL     1       2.804   3.773  17.269  0.00  0.00    +0.000 OA
ATOM     32  H   UNL     1       2.042   3.155  17.238  0.00  0.00    +0.000 HD
ENDBRANCH  29  31
ENDBRANCH  21  28
ENDBRANCH  18  24
ENDBRANCH   1  18
TORSDOF 7
ENDMDL
MODEL 8
REMARK VINA RESULT:      -7.0      1.587      2.080
REMARK  Name = 
REMARK  7 active torsions:
REMARK  status: ('A' for Active; 'I' for Inactive)
REMARK    1  A    between atoms: C_2  and  C_5
REMARK    2  A    between atoms: N_3  and  O_4
REMARK    3  A    between atoms: C_8  and  C_9
REMARK    4  A    between atoms: C_9  and  N_10
REMARK    5  A    between atoms: C_11  and  C_13
REMARK    6  A    between atoms: C_15  and  C_16
REMARK    7  A    between atoms: C_22  and  C_23
REMARK                            x       y       z     vdW  Elec       q    Type
REMARK                         _______ _______ _______ _____ _____    ______ ____
ROOT
ATOM      1  N   UNL     1       5.199   6.298  18.090  0.00  0.00    +0.000 N 
ATOM      2  C   UNL     1       4.262   7.028  17.376  0.00  0.00    +0.000 C 
ATOM      3  O   UNL     1       4.340   7.265  16.177  0.00  0.00    +0.000 OA
ATOM      4  H   UNL     1       5.040   6.256  19.092  0.00  0.00    +0.000 HD
ENDROOT
BRANCH   2   5
ATOM      5  C   UNL     1       3.167   7.498  18.250  0.00  0.00    +0.000 A 
ATOM      6  N   UNL     1       2.569   8.742  17.954  0.00  0.00    +0.000 NA
ATOM      7  C   UNL     1       1.561   8.975  18.771  0.00  0.00    +0.000 A 
ATOM      8  S   UNL     1       1.312   7.786  19.973  0.00  0.00    +0.000 S 
ATOM      9  C   UNL     1       2.610   6.856  19.348  0.00  0.00    +0.000 A 
BRANCH   7  10
ATOM     10  C   UNL     1       0.708  10.134  18.695  0.00  0.00    +0.000 A 
ATOM     11  N   UNL     1      -0.510  10.098  18.185  0.00  0.00    +0.000 NA
ATOM     12  C   UNL     1      -1.092  11.346  18.260  0.00  0.00    +0.000 A 
ATOM     13  C   UNL     1      -0.321  12.325  18.849  0.00  0.00    +0.000 A 
ATOM     14  S   UNL     1       1.205  11.673  19.287  0.00  0.00    +0.000 S 
ENDBRANCH   7  10
BRANCH   9  15
ATOM     15  C   UNL     1       3.042   5.508  19.948  0.00  0.00    +0.000 C 
ATOM     16  C   UNL     1       2.065   4.720  20.805  0.00  0.00    +0.000 C 
ATOM     17  C   UNL     1       2.383   4.239  19.432  0.00  0.00    +0.000 C 
ENDBRANCH   9  15
ENDBRANCH   2   5
BRANCH   1  18
ATOM     18  C   UNL     1       6.452   5.826  17.571  0.00  0.00    +0.000 C 
ATOM     19  C   UNL     1       7.583   5.501  18.523  0.00  0.00    +0.000 C 
ATOM     20  C   UNL     1       7.661   6.742  17.698  0.00  0.00    +0.000 C 
BRANCH  18  24
ATOM     21  C   UNL     1       5.944   3.799  13.742  0.00  0.00    +0.000 A 
ATOM     22  C   UNL     1       6.899   4.807  13.884  0.00  0.00    +0.000 A 
ATOM     23  C   UNL     1       7.068   5.438  15.121  0.00  0.00    +0.000 A 
ATOM     24  C   UNL     1       6.306   5.074  16.250  0.00  0.00    +0.000 A 
ATOM     25  C   UNL     1       5.380   4.031  16.090  0.00  0.00    +0.000 A 
ATOM     26  C   UNL     1       5.197   3.396  14.854  0.00  0.00    +0.000 A 
BRANCH  21  28
ATOM     27  O   UNL     1       4.710   3.316  11.774  0.00  0.00    +0.000 OA
ATOM     28  C   UNL     1       5.751   3.174  12.407  0.00  0.00    +0.000 C 
ATOM     29  N   UNL     1       6.787   2.384  11.958  0.00  0.00    +0.000 N 
ATOM     30  H   UNL     1       7.459   1.967  12.594  0.00  0.00    +0.000 HD
BRANCH  29  31
ATOM     31  O   UNL     1       6.524   1.661  10.770  0.00  0.00    +0.000 OA
ATOM     32  H   UNL     1       7.422   1.379  10.493  0.00  0.00    +0.000 HD
ENDBRANCH  29  31
ENDBRANCH  21  28
ENDBRANCH  18  24
ENDBRANCH   1  18
TORSDOF 7
ENDMDL
MODEL 9
REMARK VINA RESULT:      -7.0      5.101      9.102
REMARK  Name = 
REMARK  7 active torsions:
REMARK  status: ('A' for Active; 'I' for Inactive)
REMARK    1  A    between atoms: C_2  and  C_5
REMARK    2  A    between atoms: N_3  and  O_4
REMARK    3  A    between atoms: C_8  and  C_9
REMARK    4  A    between atoms: C_9  and  N_10
REMARK    5  A    between atoms: C_11  and  C_13
REMARK    6  A    between atoms: C_15  and  C_16
REMARK    7  A    between atoms: C_22  and  C_23
REMARK                            x       y       z     vdW  Elec       q    Type
REMARK                         _______ _______ _______ _____ _____    ______ ____
ROOT
ATOM      1  N   UNL     1       0.977  11.861  18.602  0.00  0.00    +0.000 N 
ATOM      2  C   UNL     1       1.501  12.566  19.674  0.00  0.00    +0.000 C 
ATOM      3  O   UNL     1       1.455  12.187  20.837  0.00  0.00    +0.000 OA
ATOM      4  H   UNL     1       1.018  12.341  17.708  0.00  0.00    +0.000 HD
ENDROOT
BRANCH   2   5
ATOM      5  C   UNL     1       2.107  13.841  19.235  0.00  0.00    +0.000 A 
ATOM      6  N   UNL     1       3.515  13.940  19.235  0.00  0.00    +0.000 NA
ATOM      7  C   UNL     1       3.894  15.102  18.741  0.00  0.00    +0.000 A 
ATOM      8  S   UNL     1       2.622  16.163  18.323  0.00  0.00    +0.000 S 
ATOM      9  C   UNL     1       1.464  14.987  18.787  0.00  0.00    +0.000 A 
BRANCH   7  10
ATOM     10  C   UNL     1       5.269  15.492  18.552  0.00  0.00    +0.000 A 
ATOM     11  N   UNL     1       6.153  14.732  17.928  0.00  0.00    +0.000 NA
ATOM     12  C   UNL     1       7.376  15.368  17.885  0.00  0.00    +0.000 A 
ATOM     13  C   UNL     1       7.413  16.621  18.458  0.00  0.00    +0.000 A 
ATOM     14  S   UNL     1       5.874  17.003  19.113  0.00  0.00    +0.000 S 
ENDBRANCH   7  10
BRANCH   9  15
ATOM     15  C   UNL     1      -0.053  15.217  18.689  0.00  0.00    +0.000 C 
ATOM     16  C   UNL     1      -0.879  15.330  19.961  0.00  0.00    +0.000 C 
ATOM     17  C   UNL     1      -0.615  16.552  19.152  0.00  0.00    +0.000 C 
ENDBRANCH   9  15
ENDBRANCH   2   5
BRANCH   1  18
ATOM     18  C   UNL     1       0.196  10.660  18.702  0.00  0.00    +0.000 C 
ATOM     19  C   UNL     1      -1.116  10.555  17.954  0.00  0.00    +0.000 C 
ATOM     20  C   UNL     1      -1.137  10.742  19.435  0.00  0.00    +0.000 C 
BRANCH  18  24
ATOM     21  C   UNL     1       2.498   7.022  19.400  0.00  0.00    +0.000 A 
ATOM     22  C   UNL     1       2.496   7.623  18.140  0.00  0.00    +0.000 A 
ATOM     23  C   UNL     1       1.770   8.800  17.931  0.00  0.00    +0.000 A 
ATOM     24  C   UNL     1       1.042   9.418  18.968  0.00  0.00    +0.000 A 
ATOM     25  C   UNL     1       1.093   8.814  20.235  0.00  0.00    +0.000 A 
ATOM     26  C   UNL     1       1.811   7.631  20.455  0.00  0.00    +0.000 A 
BRANCH  21  28
ATOM     27  O   UNL     1       2.817   4.857  20.318  0.00  0.00    +0.000 OA
ATOM     28  C   UNL     1       3.239   5.747  19.586  0.00  0.00    +0.000 C 
ATOM     29  N   UNL     1       4.451   5.655  18.936  0.00  0.00    +0.000 N 
ATOM     30  H   UNL     1       4.971   6.479  18.650  0.00  0.00    +0.000 HD
BRANCH  29  31
ATOM     31  O   UNL     1       5.224   4.513  19.256  0.00  0.00    +0.000 OA
ATOM     32  H   UNL     1       5.452   4.672  20.197  0.00  0.00    +0.000 HD
ENDBRANCH  29  31
ENDBRANCH  21  28
ENDBRANCH  18  24
ENDBRANCH   1  18
TORSDOF 7
ENDMDL
