MODEL 1
REMARK VINA RESULT:      -6.9      0.000      0.000
REMARK  Name = 
REMARK  8 active torsions:
REMARK  status: ('A' for Active; 'I' for Inactive)
REMARK    1  A    between atoms: C_1  and  C_2
REMARK    2  A    between atoms: C_2  and  C_3
REMARK    3  A    between atoms: C_3  and  N_4
REMARK    4  A    between atoms: C_6  and  C_7
REMARK    5  A    between atoms: C_7  and  N_8
REMARK    6  A    between atoms: C_10  and  C_11
REMARK    7  A    between atoms: C_14  and  C_15
REMARK    8  A    between atoms: C_14  and  C_16
REMARK                            x       y       z     vdW  Elec       q    Type
REMARK                         _______ _______ _______ _____ _____    ______ ____
ROOT
ATOM      1  C   UNL     1       4.477   3.694  17.598  0.00  0.00    +0.000 C 
ENDROOT
BRANCH   1   2
ATOM      2  N   UNL     1       3.707   4.198  18.743  0.00  0.00    +0.000 NA
ATOM      3  C   UNL     1       3.183   3.107  19.599  0.00  0.00    +0.000 C 
ATOM      4  C   UNL     1       2.633   3.663  20.922  0.00  0.00    +0.000 C 
ATOM      5  C   UNL     1       2.044   2.537  21.761  0.00  0.00    +0.000 C 
ATOM      6  O   UNL     1       1.610   4.639  20.683  0.00  0.00    +0.000 OA
ATOM      7  C   UNL     1       2.124   5.700  19.863  0.00  0.00    +0.000 C 
ATOM      8  C   UNL     1       2.622   5.187  18.471  0.00  0.00    +0.000 C 
ATOM      9  C   UNL     1       3.123   6.415  17.685  0.00  0.00    +0.000 C 
ATOM     10  C   UNL     1       1.414   4.601  17.699  0.00  0.00    +0.000 C 
ENDBRANCH   1   2
BRANCH   1  13
ATOM     11  N   UNL     1       7.334   5.973  17.786  0.00  0.00    +0.000 N 
ATOM     12  C   UNL     1       6.502   5.096  18.421  0.00  0.00    +0.000 A 
ATOM     13  C   UNL     1       5.716   4.529  17.437  0.00  0.00    +0.000 A 
ATOM     14  C   UNL     1       6.307   4.991  16.234  0.00  0.00    +0.000 A 
ATOM     15  N   UNL     1       7.319   5.836  16.451  0.00  0.00    +0.000 NA
BRANCH  11  16
ATOM     16  C   UNL     1       8.074   7.056  18.413  0.00  0.00    +0.000 C 
BRANCH  16  18
ATOM     17  C   UNL     1       8.617   9.558  18.426  0.00  0.00    +0.000 C 
ATOM     18  C   UNL     1       7.947   8.403  17.691  0.00  0.00    +0.000 C 
ENDBRANCH  16  18
ENDBRANCH  11  16
ENDBRANCH   1  13
TORSDOF 4
ENDMDL
MODEL 2
REMARK VINA RESULT:      -6.8      2.345      4.478
REMARK  Name = 
REMARK  8 active torsions:
REMARK  status: ('A' for Active; 'I' for Inactive)
REMARK    1  A    between atoms: C_1  and  C_2
REMARK    2  A    between atoms: C_2  and  C_3
REMARK    3  A    between atoms: C_3  and  N_4
REMARK    4  A    between atoms: C_6  and  C_7
REMARK    5  A    between atoms: C_7  and  N_8
REMARK    6  A    between atoms: C_10  and  C_11
REMARK    7  A    between atoms: C_14  and  C_15
REMARK    8  A    between atoms: C_14  and  C_16
REMARK                            x       y       z     vdW  Elec       q    Type
REMARK                         _______ _______ _______ _____ _____    ______ ____
ROOT
ATOM      1  C   UNL     1       5.575   3.911  17.468  0.00  0.00    +0.000 C 
ENDROOT
BRANCH   1   2
ATOM      2  N   UNL     1       4.173   4.313  17.635  0.00  0.00    +0.000 NA
ATOM      3  C   UNL     1       4.036   5.700  18.139  0.00  0.00    +0.000 C 
ATOM      4  C   UNL     1       2.580   6.181  18.034  0.00  0.00    +0.000 C 
ATOM      5  C   UNL     1       2.446   7.583  18.613  0.00  0.00    +0.000 C 
ATOM      6  O   UNL     1       1.697   5.305  18.750  0.00  0.00    +0.000 OA
ATOM      7  C   UNL     1       1.824   3.964  18.252  0.00  0.00    +0.000 C 
ATOM      8  C   UNL     1       3.277   3.406  18.414  0.00  0.00    +0.000 C 
ATOM      9  C   UNL     1       3.274   1.965  17.868  0.00  0.00    +0.000 C 
ATOM     10  C   UNL     1       3.614   3.331  19.924  0.00  0.00    +0.000 C 
ENDBRANCH   1   2
BRANCH   1  13
ATOM     11  N   UNL     1       6.490   4.533  13.979  0.00  0.00    +0.000 N 
ATOM     12  C   UNL     1       5.556   4.101  14.878  0.00  0.00    +0.000 A 
ATOM     13  C   UNL     1       6.065   4.389  16.130  0.00  0.00    +0.000 A 
ATOM     14  C   UNL     1       7.211   5.174  15.849  0.00  0.00    +0.000 A 
ATOM     15  N   UNL     1       7.442   5.296  14.539  0.00  0.00    +0.000 NA
BRANCH  11  16
ATOM     16  C   UNL     1       6.583   4.131  12.585  0.00  0.00    +0.000 C 
BRANCH  16  18
ATOM     17  C   UNL     1       4.450   3.278  11.455  0.00  0.00    +0.000 C 
ATOM     18  C   UNL     1       5.718   2.919  12.221  0.00  0.00    +0.000 C 
ENDBRANCH  16  18
ENDBRANCH  11  16
ENDBRANCH   1  13
TORSDOF 4
ENDMDL
MODEL 3
REMARK VINA RESULT:      -6.7      2.324      4.011
REMARK  Name = 
REMARK  8 active torsions:
REMARK  status: ('A' for Active; 'I' for Inactive)
REMARK    1  A    between atoms: C_1  and  C_2
REMARK    2  A    between atoms: C_2  and  C_3
REMARK    3  A    between atoms: C_3  and  N_4
REMARK    4  A    between atoms: C_6  and  C_7
REMARK    5  A    between atoms: C_7  and  N_8
REMARK    6  A    between atoms: C_10  and  C_11
REMARK    7  A    between atoms: C_14  and  C_15
REMARK    8  A    between atoms: C_14  and  C_16
REMARK                            x       y       z     vdW  Elec       q    Type
REMARK                         _______ _______ _______ _____ _____    ______ ____
ROOT
ATOM      1  C   UNL     1       5.231   4.193  18.243  0.00  0.00    +0.000 C 
ENDROOT
BRANCH   1   2
ATOM      2  N   UNL     1       3.813   4.230  18.620  0.00  0.00    +0.000 NA
ATOM      3  C   UNL     1       3.505   5.325  19.571  0.00  0.00    +0.000 C 
ATOM      4  C   UNL     1       1.987   5.510  19.722  0.00  0.00    +0.000 C 
ATOM      5  C   UNL     1       1.690   6.596  20.747  0.00  0.00    +0.000 C 
ATOM      6  O   UNL     1       1.361   4.293  20.151  0.00  0.00    +0.000 OA
ATOM      7  C   UNL     1       1.652   3.236  19.222  0.00  0.00    +0.000 C 
ATOM      8  C   UNL     1       3.186   2.961  19.098  0.00  0.00    +0.000 C 
ATOM      9  C   UNL     1       3.361   1.801  18.097  0.00  0.00    +0.000 C 
ATOM     10  C   UNL     1       3.715   2.475  20.471  0.00  0.00    +0.000 C 
ENDBRANCH   1   2
BRANCH   1  13
ATOM     11  N   UNL     1       5.967   4.792  14.708  0.00  0.00    +0.000 N 
ATOM     12  C   UNL     1       5.695   3.898  15.705  0.00  0.00    +0.000 A 
ATOM     13  C   UNL     1       5.371   4.650  16.818  0.00  0.00    +0.000 A 
ATOM     14  C   UNL     1       5.284   5.971  16.312  0.00  0.00    +0.000 A 
ATOM     15  N   UNL     1       5.605   6.047  15.017  0.00  0.00    +0.000 NA
BRANCH  11  16
ATOM     16  C   UNL     1       6.695   4.509  13.483  0.00  0.00    +0.000 C 
BRANCH  16  18
ATOM     17  C   UNL     1       4.878   3.528  11.968  0.00  0.00    +0.000 C 
ATOM     18  C   UNL     1       6.183   3.283  12.717  0.00  0.00    +0.000 C 
ENDBRANCH  16  18
ENDBRANCH  11  16
ENDBRANCH   1  13
TORSDOF 4
ENDMDL
MODEL 4
REMARK VINA RESULT:      -6.4      2.140      3.830
REMARK  Name = 
REMARK  8 active torsions:
REMARK  status: ('A' for Active; 'I' for Inactive)
REMARK    1  A    between atoms: C_1  and  C_2
REMARK    2  A    between atoms: C_2  and  C_3
REMARK    3  A    between atoms: C_3  and  N_4
REMARK    4  A    between atoms: C_6  and  C_7
REMARK    5  A    between atoms: C_7  and  N_8
REMARK    6  A    between atoms: C_10  and  C_11
REMARK    7  A    between atoms: C_14  and  C_15
REMARK    8  A    between atoms: C_14  and  C_16
REMARK                            x       y       z     vdW  Elec       q    Type
REMARK                         _______ _______ _______ _____ _____    ______ ____
ROOT
ATOM      1  C   UNL     1       5.226   3.967  19.064  0.00  0.00    +0.000 C 
ENDROOT
BRANCH   1   2
ATOM      2  N   UNL     1       3.781   4.214  19.143  0.00  0.00    +0.000 NA
ATOM      3  C   UNL     1       3.453   5.417  19.945  0.00  0.00    +0.000 C 
ATOM      4  C   UNL     1       1.976   5.804  19.776  0.00  0.00    +0.000 C 
ATOM      5  C   UNL     1       1.642   7.003  20.653  0.00  0.00    +0.000 C 
ATOM      6  O   UNL     1       1.115   4.716  20.142  0.00  0.00    +0.000 OA
ATOM      7  C   UNL     1       1.427   3.555  19.356  0.00  0.00    +0.000 C 
ATOM      8  C   UNL     1       2.903   3.079  19.561  0.00  0.00    +0.000 C 
ATOM      9  C   UNL     1       3.103   1.825  18.688  0.00  0.00    +0.000 C 
ATOM     10  C   UNL     1       3.085   2.652  21.038  0.00  0.00    +0.000 C 
ENDBRANCH   1   2
BRANCH   1  13
ATOM     11  N   UNL     1       5.872   4.590  15.515  0.00  0.00    +0.000 N 
ATOM     12  C   UNL     1       4.972   4.530  16.541  0.00  0.00    +0.000 A 
ATOM     13  C   UNL     1       5.712   4.347  17.693  0.00  0.00    +0.000 A 
ATOM     14  C   UNL     1       7.050   4.518  17.258  0.00  0.00    +0.000 A 
ATOM     15  N   UNL     1       7.140   4.709  15.938  0.00  0.00    +0.000 NA
BRANCH  11  16
ATOM     16  C   UNL     1       5.573   4.408  14.105  0.00  0.00    +0.000 C 
BRANCH  16  18
ATOM     17  C   UNL     1       6.466   3.226  12.016  0.00  0.00    +0.000 C 
ATOM     18  C   UNL     1       6.795   4.068  13.243  0.00  0.00    +0.000 C 
ENDBRANCH  16  18
ENDBRANCH  11  16
ENDBRANCH   1  13
TORSDOF 4
ENDMDL
MODEL 5
REMARK VINA RESULT:      -6.4      2.396      6.271
REMARK  Name = 
REMARK  8 active torsions:
REMARK  status: ('A' for Active; 'I' for Inactive)
REMARK    1  A    between atoms: C_1  and  C_2
REMARK    2  A    between atoms: C_2  and  C_3
REMARK    3  A    between atoms: C_3  and  N_4
REMARK    4  A    between atoms: C_6  and  C_7
REMARK    5  A    between atoms: C_7  and  N_8
REMARK    6  A    between atoms: C_10  and  C_11
REMARK    7  A    between atoms: C_14  and  C_15
REMARK    8  A    between atoms: C_14  and  C_16
REMARK                            x       y       z     vdW  Elec       q    Type
REMARK                         _______ _______ _______ _____ _____    ______ ____
ROOT
ATOM      1  C   UNL     1       3.547   6.413  17.597  0.00  0.00    +0.000 C 
ENDROOT
BRANCH   1   2
ATOM      2  N   UNL     1       4.987   6.148  17.491  0.00  0.00    +0.000 NA
ATOM      3  C   UNL     1       5.795   7.391  17.486  0.00  0.00    +0.000 C 
ATOM      4  C   UNL     1       7.290   7.076  17.658  0.00  0.00    +0.000 C 
ATOM      5  C   UNL     1       8.108   8.358  17.588  0.00  0.00    +0.000 C 
ATOM      6  O   UNL     1       7.747   6.185  16.631  0.00  0.00    +0.000 OA
ATOM      7  C   UNL     1       6.970   4.977  16.646  0.00  0.00    +0.000 C 
ATOM      8  C   UNL     1       5.450   5.246  16.394  0.00  0.00    +0.000 C 
ATOM      9  C   UNL     1       4.737   3.880  16.411  0.00  0.00    +0.000 C 
ATOM     10  C   UNL     1       5.281   5.841  14.974  0.00  0.00    +0.000 C 
ENDBRANCH   1   2
BRANCH   1  13
ATOM     11  N   UNL     1       2.566   4.781  20.723  0.00  0.00    +0.000 N 
ATOM     12  C   UNL     1       3.465   4.892  19.701  0.00  0.00    +0.000 A 
ATOM     13  C   UNL     1       3.071   5.988  18.958  0.00  0.00    +0.000 A 
ATOM     14  C   UNL     1       2.048   6.573  19.746  0.00  0.00    +0.000 A 
ATOM     15  N   UNL     1       1.773   5.858  20.842  0.00  0.00    +0.000 NA
BRANCH  11  16
ATOM     16  C   UNL     1       2.341   3.599  21.539  0.00  0.00    +0.000 C 
BRANCH  16  18
ATOM     17  C   UNL     1       0.933   2.543  19.678  0.00  0.00    +0.000 C 
ATOM     18  C   UNL     1       1.076   2.815  21.172  0.00  0.00    +0.000 C 
ENDBRANCH  16  18
ENDBRANCH  11  16
ENDBRANCH   1  13
TORSDOF 4
ENDMDL
MODEL 6
REMARK VINA RESULT:      -6.4      3.206      5.772
REMARK  Name = 
REMARK  8 active torsions:
REMARK  status: ('A' for Active; 'I' for Inactive)
REMARK    1  A    between atoms: C_1  and  C_2
REMARK    2  A    between atoms: C_2  and  C_3
REMARK    3  A    between atoms: C_3  and  N_4
REMARK    4  A    between atoms: C_6  and  C_7
REMARK    5  A    between atoms: C_7  and  N_8
REMARK    6  A    between atoms: C_10  and  C_11
REMARK    7  A    between atoms: C_14  and  C_15
REMARK    8  A    between atoms: C_14  and  C_16
REMARK                            x       y       z     vdW  Elec       q    Type
REMARK                         _______ _______ _______ _____ _____    ______ ____
ROOT
ATOM      1  C   UNL     1       3.269   6.909  17.506  0.00  0.00    +0.000 C 
ENDROOT
BRANCH   1   2
ATOM      2  N   UNL     1       4.074   5.951  18.274  0.00  0.00    +0.000 NA
ATOM      3  C   UNL     1       5.526   6.235  18.192  0.00  0.00    +0.000 C 
ATOM      4  C   UNL     1       6.308   5.401  19.219  0.00  0.00    +0.000 C 
ATOM      5  C   UNL     1       7.802   5.659  19.079  0.00  0.00    +0.000 C 
ATOM      6  O   UNL     1       6.067   3.999  19.033  0.00  0.00    +0.000 OA
ATOM      7  C   UNL     1       4.660   3.725  19.124  0.00  0.00    +0.000 C 
ATOM      8  C   UNL     1       3.834   4.495  18.041  0.00  0.00    +0.000 C 
ATOM      9  C   UNL     1       2.356   4.101  18.231  0.00  0.00    +0.000 C 
ATOM     10  C   UNL     1       4.272   4.000  16.640  0.00  0.00    +0.000 C 
ENDBRANCH   1   2
BRANCH   1  13
ATOM     11  N   UNL     1       1.282   8.501  20.135  0.00  0.00    +0.000 N 
ATOM     12  C   UNL     1       2.193   7.546  19.782  0.00  0.00    +0.000 A 
ATOM     13  C   UNL     1       2.515   7.791  18.461  0.00  0.00    +0.000 A 
ATOM     14  C   UNL     1       1.892   9.036  18.193  0.00  0.00    +0.000 A 
ATOM     15  N   UNL     1       1.178   9.486  19.229  0.00  0.00    +0.000 NA
BRANCH  11  16
ATOM     16  C   UNL     1       0.387   8.447  21.279  0.00  0.00    +0.000 C 
BRANCH  16  18
ATOM     17  C   UNL     1      -0.512   9.960  23.139  0.00  0.00    +0.000 C 
ATOM     18  C   UNL     1       0.713   9.464  22.379  0.00  0.00    +0.000 C 
ENDBRANCH  16  18
ENDBRANCH  11  16
ENDBRANCH   1  13
TORSDOF 4
ENDMDL
MODEL 7
REMARK VINA RESULT:      -6.3      2.558      4.406
REMARK  Name = 
REMARK  8 active torsions:
REMARK  status: ('A' for Active; 'I' for Inactive)
REMARK    1  A    between atoms: C_1  and  C_2
REMARK    2  A    between atoms: C_2  and  C_3
REMARK    3  A    between atoms: C_3  and  N_4
REMARK    4  A    between atoms: C_6  and  C_7
REMARK    5  A    between atoms: C_7  and  N_8
REMARK    6  A    between atoms: C_10  and  C_11
REMARK    7  A    between atoms: C_14  and  C_15
REMARK    8  A    between atoms: C_14  and  C_16
REMARK                            x       y       z     vdW  Elec       q    Type
REMARK                         _______ _______ _______ _____ _____    ______ ____
ROOT
ATOM      1  C   UNL     1       4.465   5.715  16.787  0.00  0.00    +0.000 C 
ENDROOT
BRANCH   1   2
ATOM      2  N   UNL     1       4.340   4.536  17.653  0.00  0.00    +0.000 NA
ATOM      3  C   UNL     1       3.025   3.866  17.513  0.00  0.00    +0.000 C 
ATOM      4  C   UNL     1       3.030   2.496  18.209  0.00  0.00    +0.000 C 
ATOM      5  C   UNL     1       1.655   1.850  18.109  0.00  0.00    +0.000 C 
ATOM      6  O   UNL     1       3.374   2.626  19.596  0.00  0.00    +0.000 OA
ATOM      7  C   UNL     1       4.653   3.265  19.728  0.00  0.00    +0.000 C 
ATOM      8  C   UNL     1       4.667   4.699  19.101  0.00  0.00    +0.000 C 
ATOM      9  C   UNL     1       6.077   5.280  19.327  0.00  0.00    +0.000 C 
ATOM     10  C   UNL     1       3.666   5.589  19.879  0.00  0.00    +0.000 C 
ENDBRANCH   1   2
BRANCH   1  13
ATOM     11  N   UNL     1       6.526   4.605  13.973  0.00  0.00    +0.000 N 
ATOM     12  C   UNL     1       5.291   4.946  14.448  0.00  0.00    +0.000 A 
ATOM     13  C   UNL     1       5.491   5.434  15.725  0.00  0.00    +0.000 A 
ATOM     14  C   UNL     1       6.901   5.528  15.827  0.00  0.00    +0.000 A 
ATOM     15  N   UNL     1       7.527   5.062  14.742  0.00  0.00    +0.000 NA
BRANCH  11  16
ATOM     16  C   UNL     1       6.796   3.726  12.847  0.00  0.00    +0.000 C 
BRANCH  16  18
ATOM     17  C   UNL     1       5.736   1.894  11.405  0.00  0.00    +0.000 C 
ATOM     18  C   UNL     1       5.539   3.221  12.130  0.00  0.00    +0.000 C 
ENDBRANCH  16  18
ENDBRANCH  11  16
ENDBRANCH   1  13
TORSDOF 4
ENDMDL
MODEL 8
REMARK VINA RESULT:      -6.2      1.209      2.340
REMARK  Name = 
REMARK  8 active torsions:
REMARK  status: ('A' for Active; 'I' for Inactive)
REMARK    1  A    between atoms: C_1  and  C_2
REMARK    2  A    between atoms: C_2  and  C_3
REMARK    3  A    between atoms: C_3  and  N_4
REMARK    4  A    between atoms: C_6  and  C_7
REMARK    5  A    between atoms: C_7  and  N_8
REMARK    6  A    between atoms: C_10  and  C_11
REMARK    7  A    between atoms: C_14  and  C_15
REMARK    8  A    between atoms: C_14  and  C_16
REMARK                            x       y       z     vdW  Elec       q    Type
REMARK                         _______ _______ _______ _____ _____    ______ ____
ROOT
ATOM      1  C   UNL     1       5.682   4.018  18.583  0.00  0.00    +0.000 C 
ENDROOT
BRANCH   1   2
ATOM      2  N   UNL     1       4.253   4.354  18.557  0.00  0.00    +0.000 NA
ATOM      3  C   UNL     1       3.928   5.523  19.410  0.00  0.00    +0.000 C 
ATOM      4  C   UNL     1       2.497   6.017  19.144  0.00  0.00    +0.000 C 
ATOM      5  C   UNL     1       2.161   7.176  20.072  0.00  0.00    +0.000 C 
ATOM      6  O   UNL     1       1.543   4.968  19.358  0.00  0.00    +0.000 OA
ATOM      7  C   UNL     1       1.854   3.842  18.522  0.00  0.00    +0.000 C 
ATOM      8  C   UNL     1       3.274   3.257  18.818  0.00  0.00    +0.000 C 
ATOM      9  C   UNL     1       3.474   2.050  17.879  0.00  0.00    +0.000 C 
ATOM     10  C   UNL     1       3.297   2.723  20.272  0.00  0.00    +0.000 C 
ENDBRANCH   1   2
BRANCH   1  13
ATOM     11  N   UNL     1       7.732   7.005  18.065  0.00  0.00    +0.000 N 
ATOM     12  C   UNL     1       7.537   5.830  18.733  0.00  0.00    +0.000 A 
ATOM     13  C   UNL     1       6.472   5.206  18.111  0.00  0.00    +0.000 A 
ATOM     14  C   UNL     1       6.245   6.004  16.962  0.00  0.00    +0.000 A 
ATOM     15  N   UNL     1       7.044   7.075  16.915  0.00  0.00    +0.000 NA
BRANCH  11  16
ATOM     16  C   UNL     1       8.475   8.154  18.557  0.00  0.00    +0.000 C 
BRANCH  16  18
ATOM     17  C   UNL     1       9.024  10.639  18.271  0.00  0.00    +0.000 C 
ATOM     18  C   UNL     1       8.153   9.467  17.834  0.00  0.00    +0.000 C 
ENDBRANCH  16  18
ENDBRANCH  11  16
ENDBRANCH   1  13
TORSDOF 4
ENDMDL
MODEL 9
REMARK VINA RESULT:      -6.2      2.190      5.978
REMARK  Name = 
REMARK  8 active torsions:
REMARK  status: ('A' for Active; 'I' for Inactive)
REMARK    1  A    between atoms: C_1  and  C_2
REMARK    2  A    between atoms: C_2  and  C_3
REMARK    3  A    between atoms: C_3  and  N_4
REMARK    4  A    between atoms: C_6  and  C_7
REMARK    5  A    between atoms: C_7  and  N_8
REMARK    6  A    between atoms: C_10  and  C_11
REMARK    7  A    between atoms: C_14  and  C_15
REMARK    8  A    between atoms: C_14  and  C_16
REMARK                            x       y       z     vdW  Elec       q    Type
REMARK                         _______ _______ _______ _____ _____    ______ ____
ROOT
ATOM      1  C   UNL     1       3.506   6.363  17.268  0.00  0.00    +0.000 C 
ENDROOT
BRANCH   1   2
ATOM      2  N   UNL     1       4.926   6.032  17.441  0.00  0.00    +0.000 NA
ATOM      3  C   UNL     1       5.795   7.233  17.430  0.00  0.00    +0.000 C 
ATOM      4  C   UNL     1       7.219   6.885  17.890  0.00  0.00    +0.000 C 
ATOM      5  C   UNL     1       8.112   8.115  17.814  0.00  0.00    +0.000 C 
ATOM      6  O   UNL     1       7.787   5.856  17.067  0.00  0.00    +0.000 OA
ATOM      7  C   UNL     1       6.949   4.689  17.088  0.00  0.00    +0.000 C 
ATOM      8  C   UNL     1       5.509   4.983  16.551  0.00  0.00    +0.000 C 
ATOM      9  C   UNL     1       4.724   3.658  16.604  0.00  0.00    +0.000 C 
ATOM     10  C   UNL     1       5.612   5.404  15.064  0.00  0.00    +0.000 C 
ENDBRANCH   1   2
BRANCH   1  13
ATOM     11  N   UNL     1       2.068   4.589  20.128  0.00  0.00    +0.000 N 
ATOM     12  C   UNL     1       2.816   5.632  19.663  0.00  0.00    +0.000 A 
ATOM     13  C   UNL     1       2.700   5.607  18.286  0.00  0.00    +0.000 A 
ATOM     14  C   UNL     1       1.696   4.632  18.057  0.00  0.00    +0.000 A 
ATOM     15  N   UNL     1       1.283   4.045  19.184  0.00  0.00    +0.000 NA
BRANCH  11  16
ATOM     16  C   UNL     1       2.166   3.988  21.448  0.00  0.00    +0.000 C 
BRANCH  16  18
ATOM     17  C   UNL     1       3.928   2.323  20.625  0.00  0.00    +0.000 C 
ATOM     18  C   UNL     1       2.659   2.537  21.442  0.00  0.00    +0.000 C 
ENDBRANCH  16  18
ENDBRANCH  11  16
ENDBRANCH   1  13
TORSDOF 4
ENDMDL
