MODEL 1
REMARK VINA RESULT:      -7.7      0.000      0.000
REMARK  Name = 
REMARK  5 active torsions:
REMARK  status: ('A' for Active; 'I' for Inactive)
REMARK    1  A    between atoms: C_2  and  C_19
REMARK    2  A    between atoms: N_3  and  C_4
REMARK    3  A    between atoms: C_7  and  O_8
REMARK    4  A    between atoms: O_8  and  C_9
REMARK    5  A    between atoms: C_26  and  O_27
REMARK                            x       y       z     vdW  Elec       q    Type
REMARK                         _______ _______ _______ _____ _____    ______ ____
ROOT
ATOM      1  C   UNL     1       1.260   9.487  18.069  0.00  0.00    +0.000 A 
ATOM      2  C   UNL     1       1.922  10.632  18.508  0.00  0.00    +0.000 A 
ATOM      3  C   UNL     1       1.199  11.747  18.919  0.00  0.00    +0.000 A 
ATOM      4  C   UNL     1      -0.199  11.753  18.871  0.00  0.00    +0.000 A 
ATOM      5  C   UNL     1      -0.859  10.656  18.296  0.00  0.00    +0.000 A 
ATOM      6 BR   UNL     1      -2.709  10.598  17.850  0.00  0.00    +0.000 Br
ATOM      7  C   UNL     1      -0.129   9.514  17.938  0.00  0.00    +0.000 A 
ENDROOT
BRANCH   1  10
ATOM      8  O   UNL     1       2.250   7.374  19.825  0.00  0.00    +0.000 OA
ATOM      9  C   UNL     1       2.390   7.351  18.609  0.00  0.00    +0.000 C 
ATOM     10  N   UNL     1       1.929   8.300  17.728  0.00  0.00    +0.000 N 
ATOM     11  H   UNL     1       2.021   8.085  16.739  0.00  0.00    +0.000 HD
BRANCH   9  12
ATOM     12  C   UNL     1       3.088   6.168  18.015  0.00  0.00    +0.000 A 
ATOM     13  C   UNL     1       4.240   6.443  17.251  0.00  0.00    +0.000 A 
ATOM     14  C   UNL     1       4.930   5.409  16.631  0.00  0.00    +0.000 A 
ATOM     15 CL   UNL     1       6.333   5.762  15.699  0.00  0.00    +0.000 Cl
ATOM     16  C   UNL     1       4.494   4.093  16.750  0.00  0.00    +0.000 A 
ATOM     17  C   UNL     1       3.359   3.818  17.510  0.00  0.00    +0.000 A 
ATOM     18 CL   UNL     1       2.818   2.185  17.648  0.00  0.00    +0.000 Cl
ATOM     19  C   UNL     1       2.657   4.846  18.150  0.00  0.00    +0.000 A 
BRANCH  19  20
ATOM     20  O   UNL     1       1.548   4.545  18.906  0.00  0.00    +0.000 OA
ATOM     21  H   UNL     1       1.858   4.093  19.717  0.00  0.00    +0.000 HD
ENDBRANCH  19  20
ENDBRANCH   9  12
ENDBRANCH   1  10
BRANCH   4  22
ATOM     22  O   UNL     1      -0.736  12.927  19.346  0.00  0.00    +0.000 OA
BRANCH  22  23
ATOM     23  C   UNL     1      -1.355  12.972  20.569  0.00  0.00    +0.000 A 
ATOM     24  C   UNL     1      -0.726  12.754  21.796  0.00  0.00    +0.000 A 
ATOM     25  C   UNL     1      -1.503  12.554  22.938  0.00  0.00    +0.000 A 
ATOM     26  C   UNL     1      -2.890  12.682  22.863  0.00  0.00    +0.000 A 
ATOM     27 CL   UNL     1      -3.855  12.328  24.242  0.00  0.00    +0.000 Cl
ATOM     28  C   UNL     1      -3.502  13.064  21.671  0.00  0.00    +0.000 A 
ATOM     29  C   UNL     1      -2.730  13.215  20.522  0.00  0.00    +0.000 A 
ENDBRANCH  22  23
ENDBRANCH   4  22
TORSDOF 5
ENDMDL
MODEL 2
REMARK VINA RESULT:      -7.6      0.831      1.992
REMARK  Name = 
REMARK  5 active torsions:
REMARK  status: ('A' for Active; 'I' for Inactive)
REMARK    1  A    between atoms: C_2  and  C_19
REMARK    2  A    between atoms: N_3  and  C_4
REMARK    3  A    between atoms: C_7  and  O_8
REMARK    4  A    between atoms: O_8  and  C_9
REMARK    5  A    between atoms: C_26  and  O_27
REMARK                            x       y       z     vdW  Elec       q    Type
REMARK                         _______ _______ _______ _____ _____    ______ ____
ROOT
ATOM      1  C   UNL     1       1.506   9.422  17.984  0.00  0.00    +0.000 A 
ATOM      2  C   UNL     1       2.153  10.596  18.365  0.00  0.00    +0.000 A 
ATOM      3  C   UNL     1       1.417  11.695  18.797  0.00  0.00    +0.000 A 
ATOM      4  C   UNL     1       0.019  11.654  18.830  0.00  0.00    +0.000 A 
ATOM      5  C   UNL     1      -0.634  10.524  18.313  0.00  0.00    +0.000 A 
ATOM      6 BR   UNL     1      -2.504  10.397  17.975  0.00  0.00    +0.000 Br
ATOM      7  C   UNL     1       0.113   9.400  17.933  0.00  0.00    +0.000 A 
ENDROOT
BRANCH   1  10
ATOM      8  O   UNL     1       2.312   7.181  19.675  0.00  0.00    +0.000 OA
ATOM      9  C   UNL     1       2.564   7.238  18.479  0.00  0.00    +0.000 C 
ATOM     10  N   UNL     1       2.195   8.251  17.626  0.00  0.00    +0.000 N 
ATOM     11  H   UNL     1       2.377   8.102  16.638  0.00  0.00    +0.000 HD
BRANCH   9  12
ATOM     12  C   UNL     1       3.306   6.089  17.872  0.00  0.00    +0.000 A 
ATOM     13  C   UNL     1       2.677   4.830  17.946  0.00  0.00    +0.000 A 
ATOM     14  C   UNL     1       3.311   3.701  17.442  0.00  0.00    +0.000 A 
ATOM     15 CL   UNL     1       2.530   2.171  17.544  0.00  0.00    +0.000 Cl
ATOM     16  C   UNL     1       4.572   3.796  16.862  0.00  0.00    +0.000 A 
ATOM     17  C   UNL     1       5.193   5.040  16.782  0.00  0.00    +0.000 A 
ATOM     18 CL   UNL     1       6.761   5.150  16.069  0.00  0.00    +0.000 Cl
ATOM     19  C   UNL     1       4.566   6.189  17.276  0.00  0.00    +0.000 A 
BRANCH  19  20
ATOM     20  O   UNL     1       5.196   7.408  17.171  0.00  0.00    +0.000 OA
ATOM     21  H   UNL     1       4.501   8.094  17.116  0.00  0.00    +0.000 HD
ENDBRANCH  19  20
ENDBRANCH   9  12
ENDBRANCH   1  10
BRANCH   4  22
ATOM     22  O   UNL     1      -0.530  12.818  19.314  0.00  0.00    +0.000 OA
BRANCH  22  23
ATOM     23  C   UNL     1      -1.138  12.850  20.543  0.00  0.00    +0.000 A 
ATOM     24  C   UNL     1      -0.593  12.338  21.722  0.00  0.00    +0.000 A 
ATOM     25  C   UNL     1      -1.411  12.180  22.842  0.00  0.00    +0.000 A 
ATOM     26  C   UNL     1      -2.729  12.635  22.806  0.00  0.00    +0.000 A 
ATOM     27 CL   UNL     1      -3.768  12.342  24.145  0.00  0.00    +0.000 Cl
ATOM     28  C   UNL     1      -3.220  13.296  21.683  0.00  0.00    +0.000 A 
ATOM     29  C   UNL     1      -2.418  13.409  20.550  0.00  0.00    +0.000 A 
ENDBRANCH  22  23
ENDBRANCH   4  22
TORSDOF 5
ENDMDL
MODEL 3
REMARK VINA RESULT:      -7.6      1.066      1.073
REMARK  Name = 
REMARK  5 active torsions:
REMARK  status: ('A' for Active; 'I' for Inactive)
REMARK    1  A    between atoms: C_2  and  C_19
REMARK    2  A    between atoms: N_3  and  C_4
REMARK    3  A    between atoms: C_7  and  O_8
REMARK    4  A    between atoms: O_8  and  C_9
REMARK    5  A    between atoms: C_26  and  O_27
REMARK                            x       y       z     vdW  Elec       q    Type
REMARK                         _______ _______ _______ _____ _____    ______ ____
ROOT
ATOM      1  C   UNL     1       0.964   9.802  18.434  0.00  0.00    +0.000 A 
ATOM      2  C   UNL     1       1.412  11.015  18.952  0.00  0.00    +0.000 A 
ATOM      3  C   UNL     1       0.508  12.031  19.244  0.00  0.00    +0.000 A 
ATOM      4  C   UNL     1      -0.859  11.867  18.998  0.00  0.00    +0.000 A 
ATOM      5  C   UNL     1      -1.292  10.702  18.347  0.00  0.00    +0.000 A 
ATOM      6 BR   UNL     1      -3.040  10.422  17.643  0.00  0.00    +0.000 Br
ATOM      7  C   UNL     1      -0.385   9.660  18.107  0.00  0.00    +0.000 A 
ENDROOT
BRANCH   1  10
ATOM      8  O   UNL     1       1.839   7.737  20.304  0.00  0.00    +0.000 OA
ATOM      9  C   UNL     1       2.205   7.778  19.137  0.00  0.00    +0.000 C 
ATOM     10  N   UNL     1       1.814   8.708  18.203  0.00  0.00    +0.000 N 
ATOM     11  H   UNL     1       2.113   8.544  17.246  0.00  0.00    +0.000 HD
BRANCH   9  12
ATOM     12  C   UNL     1       3.132   6.702  18.663  0.00  0.00    +0.000 A 
ATOM     13  C   UNL     1       3.743   6.912  17.412  0.00  0.00    +0.000 A 
ATOM     14  C   UNL     1       4.589   5.948  16.877  0.00  0.00    +0.000 A 
ATOM     15 CL   UNL     1       5.325   6.219  15.345  0.00  0.00    +0.000 Cl
ATOM     16  C   UNL     1       4.840   4.764  17.564  0.00  0.00    +0.000 A 
ATOM     17  C   UNL     1       4.242   4.558  18.805  0.00  0.00    +0.000 A 
ATOM     18 CL   UNL     1       4.551   3.085  19.649  0.00  0.00    +0.000 Cl
ATOM     19  C   UNL     1       3.395   5.522  19.363  0.00  0.00    +0.000 A 
BRANCH  19  20
ATOM     20  O   UNL     1       2.828   5.298  20.598  0.00  0.00    +0.000 OA
ATOM     21  H   UNL     1       2.013   5.836  20.648  0.00  0.00    +0.000 HD
ENDBRANCH  19  20
ENDBRANCH   9  12
ENDBRANCH   1  10
BRANCH   4  22
ATOM     22  O   UNL     1      -1.598  12.963  19.381  0.00  0.00    +0.000 OA
BRANCH  22  23
ATOM     23  C   UNL     1      -2.150  13.035  20.634  0.00  0.00    +0.000 A 
ATOM     24  C   UNL     1      -1.428  13.142  21.824  0.00  0.00    +0.000 A 
ATOM     25  C   UNL     1      -2.080  12.931  23.040  0.00  0.00    +0.000 A 
ATOM     26  C   UNL     1      -3.459  12.725  23.061  0.00  0.00    +0.000 A 
ATOM     27 CL   UNL     1      -4.244  12.356  24.545  0.00  0.00    +0.000 Cl
ATOM     28  C   UNL     1      -4.201  12.786  21.883  0.00  0.00    +0.000 A 
ATOM     29  C   UNL     1      -3.544  12.947  20.667  0.00  0.00    +0.000 A 
ENDBRANCH  22  23
ENDBRANCH   4  22
TORSDOF 5
ENDMDL
MODEL 4
REMARK VINA RESULT:      -7.6      0.866      2.216
REMARK  Name = 
REMARK  5 active torsions:
REMARK  status: ('A' for Active; 'I' for Inactive)
REMARK    1  A    between atoms: C_2  and  C_19
REMARK    2  A    between atoms: N_3  and  C_4
REMARK    3  A    between atoms: C_7  and  O_8
REMARK    4  A    between atoms: O_8  and  C_9
REMARK    5  A    between atoms: C_26  and  O_27
REMARK                            x       y       z     vdW  Elec       q    Type
REMARK                         _______ _______ _______ _____ _____    ______ ____
ROOT
ATOM      1  C   UNL     1       1.252   9.305  18.115  0.00  0.00    +0.000 A 
ATOM      2  C   UNL     1       1.833  10.401  18.749  0.00  0.00    +0.000 A 
ATOM      3  C   UNL     1       1.041  11.447  19.210  0.00  0.00    +0.000 A 
ATOM      4  C   UNL     1      -0.344  11.435  19.020  0.00  0.00    +0.000 A 
ATOM      5  C   UNL     1      -0.912  10.402  18.258  0.00  0.00    +0.000 A 
ATOM      6 BR   UNL     1      -2.706  10.365  17.621  0.00  0.00    +0.000 Br
ATOM      7  C   UNL     1      -0.117   9.323  17.846  0.00  0.00    +0.000 A 
ENDROOT
BRANCH   1  10
ATOM      8  O   UNL     1       2.319   7.130  19.746  0.00  0.00    +0.000 OA
ATOM      9  C   UNL     1       2.480   7.195  18.535  0.00  0.00    +0.000 C 
ATOM     10  N   UNL     1       1.986   8.178  17.710  0.00  0.00    +0.000 N 
ATOM     11  H   UNL     1       2.105   8.034  16.710  0.00  0.00    +0.000 HD
BRANCH   9  12
ATOM     12  C   UNL     1       3.247   6.092  17.877  0.00  0.00    +0.000 A 
ATOM     13  C   UNL     1       2.671   4.808  17.938  0.00  0.00    +0.000 A 
ATOM     14  C   UNL     1       3.332   3.717  17.386  0.00  0.00    +0.000 A 
ATOM     15 CL   UNL     1       2.616   2.155  17.474  0.00  0.00    +0.000 Cl
ATOM     16  C   UNL     1       4.571   3.876  16.772  0.00  0.00    +0.000 A 
ATOM     17  C   UNL     1       5.139   5.146  16.704  0.00  0.00    +0.000 A 
ATOM     18 CL   UNL     1       6.679   5.335  15.947  0.00  0.00    +0.000 Cl
ATOM     19  C   UNL     1       4.483   6.256  17.246  0.00  0.00    +0.000 A 
BRANCH  19  20
ATOM     20  O   UNL     1       5.061   7.502  17.152  0.00  0.00    +0.000 OA
ATOM     21  H   UNL     1       4.360   8.133  16.892  0.00  0.00    +0.000 HD
ENDBRANCH  19  20
ENDBRANCH   9  12
ENDBRANCH   1  10
BRANCH   4  22
ATOM     22  O   UNL     1      -0.960  12.535  19.570  0.00  0.00    +0.000 OA
BRANCH  22  23
ATOM     23  C   UNL     1      -1.826  12.401  20.625  0.00  0.00    +0.000 A 
ATOM     24  C   UNL     1      -3.169  12.786  20.615  0.00  0.00    +0.000 A 
ATOM     25  C   UNL     1      -3.868  12.855  21.821  0.00  0.00    +0.000 A 
ATOM     26  C   UNL     1      -3.257  12.438  23.003  0.00  0.00    +0.000 A 
ATOM     27 CL   UNL     1      -4.079  12.626  24.501  0.00  0.00    +0.000 Cl
ATOM     28  C   UNL     1      -1.973  11.897  22.982  0.00  0.00    +0.000 A 
ATOM     29  C   UNL     1      -1.259  11.874  21.787  0.00  0.00    +0.000 A 
ENDBRANCH  22  23
ENDBRANCH   4  22
TORSDOF 5
ENDMDL
MODEL 5
REMARK VINA RESULT:      -7.5      1.189      1.564
REMARK  Name = 
REMARK  5 active torsions:
REMARK  status: ('A' for Active; 'I' for Inactive)
REMARK    1  A    between atoms: C_2  and  C_19
REMARK    2  A    between atoms: N_3  and  C_4
REMARK    3  A    between atoms: C_7  and  O_8
REMARK    4  A    between atoms: O_8  and  C_9
REMARK    5  A    between atoms: C_26  and  O_27
REMARK                            x       y       z     vdW  Elec       q    Type
REMARK                         _______ _______ _______ _____ _____    ______ ____
ROOT
ATOM      1  C   UNL     1       0.935   9.697  18.385  0.00  0.00    +0.000 A 
ATOM      2  C   UNL     1       1.341  10.878  19.003  0.00  0.00    +0.000 A 
ATOM      3  C   UNL     1       0.415  11.878  19.283  0.00  0.00    +0.000 A 
ATOM      4  C   UNL     1      -0.929  11.732  18.925  0.00  0.00    +0.000 A 
ATOM      5  C   UNL     1      -1.309  10.606  18.178  0.00  0.00    +0.000 A 
ATOM      6 BR   UNL     1      -2.997  10.371  17.328  0.00  0.00    +0.000 Br
ATOM      7  C   UNL     1      -0.384   9.577  17.949  0.00  0.00    +0.000 A 
ENDROOT
BRANCH   1  10
ATOM      8  O   UNL     1       1.892   7.689  20.278  0.00  0.00    +0.000 OA
ATOM      9  C   UNL     1       2.232   7.713  19.103  0.00  0.00    +0.000 C 
ATOM     10  N   UNL     1       1.803   8.616  18.159  0.00  0.00    +0.000 N 
ATOM     11  H   UNL     1       2.085   8.438  17.199  0.00  0.00    +0.000 HD
BRANCH   9  12
ATOM     12  C   UNL     1       3.170   6.646  18.631  0.00  0.00    +0.000 A 
ATOM     13  C   UNL     1       3.780   6.860  17.379  0.00  0.00    +0.000 A 
ATOM     14  C   UNL     1       4.636   5.905  16.846  0.00  0.00    +0.000 A 
ATOM     15 CL   UNL     1       5.369   6.180  15.314  0.00  0.00    +0.000 Cl
ATOM     16  C   UNL     1       4.899   4.725  17.536  0.00  0.00    +0.000 A 
ATOM     17  C   UNL     1       4.303   4.514  18.777  0.00  0.00    +0.000 A 
ATOM     18 CL   UNL     1       4.626   3.045  19.624  0.00  0.00    +0.000 Cl
ATOM     19  C   UNL     1       3.445   5.470  19.333  0.00  0.00    +0.000 A 
BRANCH  19  20
ATOM     20  O   UNL     1       2.881   5.242  20.567  0.00  0.00    +0.000 OA
ATOM     21  H   UNL     1       3.444   5.685  21.234  0.00  0.00    +0.000 HD
ENDBRANCH  19  20
ENDBRANCH   9  12
ENDBRANCH   1  10
BRANCH   4  22
ATOM     22  O   UNL     1      -1.696  12.807  19.311  0.00  0.00    +0.000 OA
BRANCH  22  23
ATOM     23  C   UNL     1      -2.646  12.675  20.292  0.00  0.00    +0.000 A 
ATOM     24  C   UNL     1      -4.024  12.768  20.091  0.00  0.00    +0.000 A 
ATOM     25  C   UNL     1      -4.869  12.893  21.195  0.00  0.00    +0.000 A 
ATOM     26  C   UNL     1      -4.342  12.813  22.484  0.00  0.00    +0.000 A 
ATOM     27 CL   UNL     1      -5.364  13.075  23.841  0.00  0.00    +0.000 Cl
ATOM     28  C   UNL     1      -2.987  12.552  22.679  0.00  0.00    +0.000 A 
ATOM     29  C   UNL     1      -2.138  12.478  21.578  0.00  0.00    +0.000 A 
ENDBRANCH  22  23
ENDBRANCH   4  22
TORSDOF 5
ENDMDL
MODEL 6
REMARK VINA RESULT:      -7.5      3.111      9.883
REMARK  Name = 
REMARK  5 active torsions:
REMARK  status: ('A' for Active; 'I' for Inactive)
REMARK    1  A    between atoms: C_2  and  C_19
REMARK    2  A    between atoms: N_3  and  C_4
REMARK    3  A    between atoms: C_7  and  O_8
REMARK    4  A    between atoms: O_8  and  C_9
REMARK    5  A    between atoms: C_26  and  O_27
REMARK                            x       y       z     vdW  Elec       q    Type
REMARK                         _______ _______ _______ _____ _____    ______ ____
ROOT
ATOM      1  C   UNL     1       2.666   6.988  18.860  0.00  0.00    +0.000 A 
ATOM      2  C   UNL     1       3.566   7.094  17.802  0.00  0.00    +0.000 A 
ATOM      3  C   UNL     1       4.105   5.951  17.221  0.00  0.00    +0.000 A 
ATOM      4  C   UNL     1       3.779   4.680  17.703  0.00  0.00    +0.000 A 
ATOM      5  C   UNL     1       2.985   4.579  18.856  0.00  0.00    +0.000 A 
ATOM      6 BR   UNL     1       2.689   2.981  19.849  0.00  0.00    +0.000 Br
ATOM      7  C   UNL     1       2.400   5.730  19.402  0.00  0.00    +0.000 A 
ENDROOT
BRANCH   1  10
ATOM      8  O   UNL     1       1.517   9.319  17.527  0.00  0.00    +0.000 OA
ATOM      9  C   UNL     1       1.515   9.178  18.742  0.00  0.00    +0.000 C 
ATOM     10  N   UNL     1       2.018   8.098  19.428  0.00  0.00    +0.000 N 
ATOM     11  H   UNL     1       1.841   8.071  20.428  0.00  0.00    +0.000 HD
BRANCH   9  12
ATOM     12  C   UNL     1       0.876  10.253  19.564  0.00  0.00    +0.000 A 
ATOM     13  C   UNL     1       0.342   9.857  20.806  0.00  0.00    +0.000 A 
ATOM     14  C   UNL     1      -0.302  10.781  21.618  0.00  0.00    +0.000 A 
ATOM     15 CL   UNL     1      -0.952  10.278  23.130  0.00  0.00    +0.000 Cl
ATOM     16  C   UNL     1      -0.434  12.107  21.216  0.00  0.00    +0.000 A 
ATOM     17  C   UNL     1       0.099  12.504  19.991  0.00  0.00    +0.000 A 
ATOM     18 CL   UNL     1      -0.075  14.148  19.495  0.00  0.00    +0.000 Cl
ATOM     19  C   UNL     1       0.760  11.588  19.166  0.00  0.00    +0.000 A 
BRANCH  19  20
ATOM     20  O   UNL     1       1.289  12.010  17.967  0.00  0.00    +0.000 OA
ATOM     21  H   UNL     1       0.842  11.509  17.256  0.00  0.00    +0.000 HD
ENDBRANCH  19  20
ENDBRANCH   9  12
ENDBRANCH   1  10
BRANCH   4  22
ATOM     22  O   UNL     1       4.382   3.674  16.984  0.00  0.00    +0.000 OA
BRANCH  22  23
ATOM     23  C   UNL     1       5.402   3.950  16.109  0.00  0.00    +0.000 A 
ATOM     24  C   UNL     1       6.648   4.469  16.467  0.00  0.00    +0.000 A 
ATOM     25  C   UNL     1       7.494   4.963  15.473  0.00  0.00    +0.000 A 
ATOM     26  C   UNL     1       7.137   4.833  14.131  0.00  0.00    +0.000 A 
ATOM     27 CL   UNL     1       8.125   5.538  12.914  0.00  0.00    +0.000 Cl
ATOM     28  C   UNL     1       5.969   4.164  13.772  0.00  0.00    +0.000 A 
ATOM     29  C   UNL     1       5.102   3.716  14.766  0.00  0.00    +0.000 A 
ENDBRANCH  22  23
ENDBRANCH   4  22
TORSDOF 5
ENDMDL
MODEL 7
REMARK VINA RESULT:      -7.5      2.426      3.530
REMARK  Name = 
REMARK  5 active torsions:
REMARK  status: ('A' for Active; 'I' for Inactive)
REMARK    1  A    between atoms: C_2  and  C_19
REMARK    2  A    between atoms: N_3  and  C_4
REMARK    3  A    between atoms: C_7  and  O_8
REMARK    4  A    between atoms: O_8  and  C_9
REMARK    5  A    between atoms: C_26  and  O_27
REMARK                            x       y       z     vdW  Elec       q    Type
REMARK                         _______ _______ _______ _____ _____    ______ ____
ROOT
ATOM      1  C   UNL     1       0.233   9.174  21.315  0.00  0.00    +0.000 A 
ATOM      2  C   UNL     1       0.146   9.658  22.618  0.00  0.00    +0.000 A 
ATOM      3  C   UNL     1      -0.559  10.827  22.887  0.00  0.00    +0.000 A 
ATOM      4  C   UNL     1      -1.166  11.551  21.857  0.00  0.00    +0.000 A 
ATOM      5  C   UNL     1      -0.959  11.141  20.531  0.00  0.00    +0.000 A 
ATOM      6 BR   UNL     1      -1.423  12.149  18.983  0.00  0.00    +0.000 Br
ATOM      7  C   UNL     1      -0.296   9.932  20.271  0.00  0.00    +0.000 A 
ENDROOT
BRANCH   1  10
ATOM      8  O   UNL     1       2.130   8.592  19.172  0.00  0.00    +0.000 OA
ATOM      9  C   UNL     1       1.724   7.741  19.952  0.00  0.00    +0.000 C 
ATOM     10  N   UNL     1       0.851   7.954  20.992  0.00  0.00    +0.000 N 
ATOM     11  H   UNL     1       0.698   7.173  21.624  0.00  0.00    +0.000 HD
BRANCH   9  12
ATOM     12  C   UNL     1       2.249   6.348  19.793  0.00  0.00    +0.000 A 
ATOM     13  C   UNL     1       1.735   5.382  20.680  0.00  0.00    +0.000 A 
ATOM     14  C   UNL     1       2.193   4.072  20.629  0.00  0.00    +0.000 A 
ATOM     15 CL   UNL     1       1.557   2.905  21.722  0.00  0.00    +0.000 Cl
ATOM     16  C   UNL     1       3.166   3.696  19.707  0.00  0.00    +0.000 A 
ATOM     17  C   UNL     1       3.671   4.648  18.825  0.00  0.00    +0.000 A 
ATOM     18 CL   UNL     1       4.883   4.178  17.689  0.00  0.00    +0.000 Cl
ATOM     19  C   UNL     1       3.214   5.970  18.856  0.00  0.00    +0.000 A 
BRANCH  19  20
ATOM     20  O   UNL     1       3.720   6.887  17.962  0.00  0.00    +0.000 OA
ATOM     21  H   UNL     1       3.936   6.406  17.138  0.00  0.00    +0.000 HD
ENDBRANCH  19  20
ENDBRANCH   9  12
ENDBRANCH   1  10
BRANCH   4  22
ATOM     22  O   UNL     1      -1.842  12.657  22.318  0.00  0.00    +0.000 OA
BRANCH  22  23
ATOM     23  C   UNL     1      -3.175  12.585  22.633  0.00  0.00    +0.000 A 
ATOM     24  C   UNL     1      -4.224  12.736  21.723  0.00  0.00    +0.000 A 
ATOM     25  C   UNL     1      -5.522  12.916  22.201  0.00  0.00    +0.000 A 
ATOM     26  C   UNL     1      -5.775  12.834  23.570  0.00  0.00    +0.000 A 
ATOM     27 CL   UNL     1      -7.354  13.165  24.167  0.00  0.00    +0.000 Cl
ATOM     28  C   UNL     1      -4.752  12.516  24.460  0.00  0.00    +0.000 A 
ATOM     29  C   UNL     1      -3.449  12.386  23.988  0.00  0.00    +0.000 A 
ENDBRANCH  22  23
ENDBRANCH   4  22
TORSDOF 5
ENDMDL
MODEL 8
REMARK VINA RESULT:      -7.4      3.089      9.770
REMARK  Name = 
REMARK  5 active torsions:
REMARK  status: ('A' for Active; 'I' for Inactive)
REMARK    1  A    between atoms: C_2  and  C_19
REMARK    2  A    between atoms: N_3  and  C_4
REMARK    3  A    between atoms: C_7  and  O_8
REMARK    4  A    between atoms: O_8  and  C_9
REMARK    5  A    between atoms: C_26  and  O_27
REMARK                            x       y       z     vdW  Elec       q    Type
REMARK                         _______ _______ _______ _____ _____    ______ ____
ROOT
ATOM      1  C   UNL     1       2.440   7.408  18.156  0.00  0.00    +0.000 A 
ATOM      2  C   UNL     1       3.808   7.511  17.909  0.00  0.00    +0.000 A 
ATOM      3  C   UNL     1       4.565   6.371  17.663  0.00  0.00    +0.000 A 
ATOM      4  C   UNL     1       3.978   5.102  17.687  0.00  0.00    +0.000 A 
ATOM      5  C   UNL     1       2.634   4.987  18.076  0.00  0.00    +0.000 A 
ATOM      6 BR   UNL     1       1.743   3.353  18.477  0.00  0.00    +0.000 Br
ATOM      7  C   UNL     1       1.864   6.143  18.267  0.00  0.00    +0.000 A 
ENDROOT
BRANCH   1  10
ATOM      8  O   UNL     1       1.504   8.646  20.630  0.00  0.00    +0.000 OA
ATOM      9  C   UNL     1       1.184   9.050  19.521  0.00  0.00    +0.000 C 
ATOM     10  N   UNL     1       1.606   8.526  18.322  0.00  0.00    +0.000 N 
ATOM     11  H   UNL     1       1.346   9.041  17.484  0.00  0.00    +0.000 HD
BRANCH   9  12
ATOM     12  C   UNL     1       0.283  10.243  19.450  0.00  0.00    +0.000 A 
ATOM     13  C   UNL     1      -0.623  10.279  18.372  0.00  0.00    +0.000 A 
ATOM     14  C   UNL     1      -1.471  11.366  18.207  0.00  0.00    +0.000 A 
ATOM     15 CL   UNL     1      -2.569  11.395  16.883  0.00  0.00    +0.000 Cl
ATOM     16  C   UNL     1      -1.435  12.435  19.098  0.00  0.00    +0.000 A 
ATOM     17  C   UNL     1      -0.545  12.399  20.169  0.00  0.00    +0.000 A 
ATOM     18 CL   UNL     1      -0.499  13.731  21.266  0.00  0.00    +0.000 Cl
ATOM     19  C   UNL     1       0.310  11.307  20.356  0.00  0.00    +0.000 A 
BRANCH  19  20
ATOM     20  O   UNL     1       1.170  11.291  21.430  0.00  0.00    +0.000 OA
ATOM     21  H   UNL     1       1.974  10.805  21.156  0.00  0.00    +0.000 HD
ENDBRANCH  19  20
ENDBRANCH   9  12
ENDBRANCH   1  10
BRANCH   4  22
ATOM     22  O   UNL     1       4.875   4.102  17.390  0.00  0.00    +0.000 OA
BRANCH  22  23
ATOM     23  C   UNL     1       5.717   4.211  16.313  0.00  0.00    +0.000 A 
ATOM     24  C   UNL     1       7.039   4.656  16.369  0.00  0.00    +0.000 A 
ATOM     25  C   UNL     1       7.701   4.984  15.185  0.00  0.00    +0.000 A 
ATOM     26  C   UNL     1       7.077   4.762  13.958  0.00  0.00    +0.000 A 
ATOM     27 CL   UNL     1       7.847   5.268  12.506  0.00  0.00    +0.000 Cl
ATOM     28  C   UNL     1       5.821   4.162  13.900  0.00  0.00    +0.000 A 
ATOM     29  C   UNL     1       5.142   3.881  15.083  0.00  0.00    +0.000 A 
ENDBRANCH  22  23
ENDBRANCH   4  22
TORSDOF 5
ENDMDL
MODEL 9
REMARK VINA RESULT:      -7.4      2.042      2.945
REMARK  Name = 
REMARK  5 active torsions:
REMARK  status: ('A' for Active; 'I' for Inactive)
REMARK    1  A    between atoms: C_2  and  C_19
REMARK    2  A    between atoms: N_3  and  C_4
REMARK    3  A    between atoms: C_7  and  O_8
REMARK    4  A    between atoms: O_8  and  C_9
REMARK    5  A    between atoms: C_26  and  O_27
REMARK                            x       y       z     vdW  Elec       q    Type
REMARK                         _______ _______ _______ _____ _____    ______ ____
ROOT
ATOM      1  C   UNL     1       1.388   8.508  20.352  0.00  0.00    +0.000 A 
ATOM      2  C   UNL     1       1.158   8.611  21.722  0.00  0.00    +0.000 A 
ATOM      3  C   UNL     1       0.626   9.778  22.260  0.00  0.00    +0.000 A 
ATOM      4  C   UNL     1       0.340  10.877  21.444  0.00  0.00    +0.000 A 
ATOM      5  C   UNL     1       0.703  10.824  20.089  0.00  0.00    +0.000 A 
ATOM      6 BR   UNL     1       0.694  12.305  18.892  0.00  0.00    +0.000 Br
ATOM      7  C   UNL     1       1.186   9.626  19.544  0.00  0.00    +0.000 A 
ENDROOT
BRANCH   1  10
ATOM      8  O   UNL     1       2.921   8.194  17.886  0.00  0.00    +0.000 OA
ATOM      9  C   UNL     1       2.541   7.246  18.560  0.00  0.00    +0.000 C 
ATOM     10  N   UNL     1       1.838   7.327  19.738  0.00  0.00    +0.000 N 
ATOM     11  H   UNL     1       1.693   6.456  20.242  0.00  0.00    +0.000 HD
BRANCH   9  12
ATOM     12  C   UNL     1       2.903   5.872  18.090  0.00  0.00    +0.000 A 
ATOM     13  C   UNL     1       2.038   4.830  18.479  0.00  0.00    +0.000 A 
ATOM     14  C   UNL     1       2.317   3.518  18.119  0.00  0.00    +0.000 A 
ATOM     15 CL   UNL     1       1.251   2.258  18.607  0.00  0.00    +0.000 Cl
ATOM     16  C   UNL     1       3.452   3.213  17.375  0.00  0.00    +0.000 A 
ATOM     17  C   UNL     1       4.306   4.241  16.983  0.00  0.00    +0.000 A 
ATOM     18 CL   UNL     1       5.717   3.856  16.067  0.00  0.00    +0.000 Cl
ATOM     19  C   UNL     1       4.035   5.570  17.328  0.00  0.00    +0.000 A 
BRANCH  19  20
ATOM     20  O   UNL     1       4.888   6.569  16.915  0.00  0.00    +0.000 OA
ATOM     21  H   UNL     1       4.411   7.106  16.251  0.00  0.00    +0.000 HD
ENDBRANCH  19  20
ENDBRANCH   9  12
ENDBRANCH   1  10
BRANCH   4  22
ATOM     22  O   UNL     1      -0.209  11.925  22.147  0.00  0.00    +0.000 OA
BRANCH  22  23
ATOM     23  C   UNL     1      -1.566  12.123  22.167  0.00  0.00    +0.000 A 
ATOM     24  C   UNL     1      -2.330  12.559  21.082  0.00  0.00    +0.000 A 
ATOM     25  C   UNL     1      -3.641  12.984  21.297  0.00  0.00    +0.000 A 
ATOM     26  C   UNL     1      -4.209  12.867  22.565  0.00  0.00    +0.000 A 
ATOM     27 CL   UNL     1      -5.785  13.492  22.855  0.00  0.00    +0.000 Cl
ATOM     28  C   UNL     1      -3.498  12.276  23.607  0.00  0.00    +0.000 A 
ATOM     29  C   UNL     1      -2.174  11.897  23.404  0.00  0.00    +0.000 A 
ENDBRANCH  22  23
ENDBRANCH   4  22
TORSDOF 5
ENDMDL
