MODEL 1
REMARK VINA RESULT:      -7.7      0.000      0.000
REMARK  Name = 
REMARK  5 active torsions:
REMARK  status: ('A' for Active; 'I' for Inactive)
REMARK    1  A    between atoms: C_1  and  C_2
REMARK    2  A    between atoms: C_2  and  C_3
REMARK    3  A    between atoms: N_9  and  C_10
REMARK    4  A    between atoms: C_10  and  C_11
REMARK    5  A    between atoms: C_15  and  O_16
REMARK                            x       y       z     vdW  Elec       q    Type
REMARK                         _______ _______ _______ _____ _____    ______ ____
ROOT
ATOM      1  C   UNL     1       6.572   4.133  13.726  0.00  0.00    +0.000 A 
ATOM      2  N   UNL     1       7.422   5.126  13.412  0.00  0.00    +0.000 NA
ATOM      3  N   UNL     1       7.646   5.757  14.581  0.00  0.00    +0.000 N 
ATOM      4  C   UNL     1       7.010   5.168  15.624  0.00  0.00    +0.000 A 
ATOM      5  C   UNL     1       6.270   4.130  15.106  0.00  0.00    +0.000 A 
ATOM      6  C   UNL     1       5.403   3.247  15.934  0.00  0.00    +0.000 C 
ATOM      7  N   UNL     1       5.074   3.887  17.239  0.00  0.00    +0.000 NA
ATOM      8  C   UNL     1       6.310   4.440  17.867  0.00  0.00    +0.000 C 
ATOM      9  C   UNL     1       7.021   5.565  17.052  0.00  0.00    +0.000 C 
ATOM     10  H   UNL     1       8.244   6.576  14.578  0.00  0.00    +0.000 HD
ENDROOT
BRANCH   1  12
ATOM     11  C   UNL     1       4.764   3.629  12.066  0.00  0.00    +0.000 C 
ATOM     12  C   UNL     1       6.085   3.192  12.677  0.00  0.00    +0.000 C 
ENDBRANCH   1  12
BRANCH   7  13
ATOM     13  C   UNL     1       4.047   4.945  17.116  0.00  0.00    +0.000 C 
BRANCH  13  14
ATOM     14  C   UNL     1       3.081   5.014  18.281  0.00  0.00    +0.000 A 
ATOM     15  C   UNL     1       3.057   6.183  19.066  0.00  0.00    +0.000 A 
ATOM     16  C   UNL     1       2.213   6.287  20.171  0.00  0.00    +0.000 A 
ATOM     17  C   UNL     1       1.372   5.229  20.510  0.00  0.00    +0.000 A 
ATOM     18  C   UNL     1       1.373   4.073  19.734  0.00  0.00    +0.000 A 
ATOM     19  C   UNL     1       2.215   3.956  18.617  0.00  0.00    +0.000 A 
ATOM     20 CL   UNL     1       2.162   2.496  17.684  0.00  0.00    +0.000 Cl
BRANCH  18  21
ATOM     21  O   UNL     1       0.543   3.037  20.071  0.00  0.00    +0.000 OA
ATOM     22  H   UNL     1      -0.268   3.089  19.544  0.00  0.00    +0.000 HD
ENDBRANCH  18  21
ENDBRANCH  13  14
ENDBRANCH   7  13
TORSDOF 4
ENDMDL
MODEL 2
REMARK VINA RESULT:      -7.5      2.014      2.319
REMARK  Name = 
REMARK  5 active torsions:
REMARK  status: ('A' for Active; 'I' for Inactive)
REMARK    1  A    between atoms: C_1  and  C_2
REMARK    2  A    between atoms: C_2  and  C_3
REMARK    3  A    between atoms: N_9  and  C_10
REMARK    4  A    between atoms: C_10  and  C_11
REMARK    5  A    between atoms: C_15  and  O_16
REMARK                            x       y       z     vdW  Elec       q    Type
REMARK                         _______ _______ _______ _____ _____    ______ ____
ROOT
ATOM      1  C   UNL     1       6.581   4.460  14.499  0.00  0.00    +0.000 A 
ATOM      2  N   UNL     1       7.509   5.431  14.449  0.00  0.00    +0.000 NA
ATOM      3  N   UNL     1       7.522   5.948  15.692  0.00  0.00    +0.000 N 
ATOM      4  C   UNL     1       6.674   5.306  16.534  0.00  0.00    +0.000 A 
ATOM      5  C   UNL     1       6.015   4.356  15.789  0.00  0.00    +0.000 A 
ATOM      6  C   UNL     1       4.973   3.451  16.348  0.00  0.00    +0.000 C 
ATOM      7  N   UNL     1       4.416   3.993  17.620  0.00  0.00    +0.000 NA
ATOM      8  C   UNL     1       5.524   4.426  18.523  0.00  0.00    +0.000 C 
ATOM      9  C   UNL     1       6.419   5.579  17.969  0.00  0.00    +0.000 C 
ATOM     10  H   UNL     1       8.137   6.732  15.881  0.00  0.00    +0.000 HD
ENDROOT
BRANCH   1  12
ATOM     11  C   UNL     1       7.079   4.069  12.074  0.00  0.00    +0.000 C 
ATOM     12  C   UNL     1       6.278   3.638  13.293  0.00  0.00    +0.000 C 
ENDBRANCH   1  12
BRANCH   7  13
ATOM     13  C   UNL     1       3.470   5.110  17.402  0.00  0.00    +0.000 C 
BRANCH  13  14
ATOM     14  C   UNL     1       2.748   5.568  18.652  0.00  0.00    +0.000 A 
ATOM     15  C   UNL     1       2.264   4.593  19.545  0.00  0.00    +0.000 A 
ATOM     16  C   UNL     1       1.562   4.957  20.693  0.00  0.00    +0.000 A 
ATOM     17  C   UNL     1       1.335   6.303  20.976  0.00  0.00    +0.000 A 
ATOM     18  C   UNL     1       1.823   7.279  20.111  0.00  0.00    +0.000 A 
ATOM     19  C   UNL     1       2.533   6.927  18.954  0.00  0.00    +0.000 A 
ATOM     20 CL   UNL     1       3.124   8.190  17.923  0.00  0.00    +0.000 Cl
BRANCH  18  21
ATOM     21  O   UNL     1       1.599   8.600  20.396  0.00  0.00    +0.000 OA
ATOM     22  H   UNL     1       1.120   8.673  21.235  0.00  0.00    +0.000 HD
ENDBRANCH  18  21
ENDBRANCH  13  14
ENDBRANCH   7  13
TORSDOF 4
ENDMDL
MODEL 3
REMARK VINA RESULT:      -7.4      1.366      1.771
REMARK  Name = 
REMARK  5 active torsions:
REMARK  status: ('A' for Active; 'I' for Inactive)
REMARK    1  A    between atoms: C_1  and  C_2
REMARK    2  A    between atoms: C_2  and  C_3
REMARK    3  A    between atoms: N_9  and  C_10
REMARK    4  A    between atoms: C_10  and  C_11
REMARK    5  A    between atoms: C_15  and  O_16
REMARK                            x       y       z     vdW  Elec       q    Type
REMARK                         _______ _______ _______ _____ _____    ______ ____
ROOT
ATOM      1  C   UNL     1       6.586   4.540  15.355  0.00  0.00    +0.000 A 
ATOM      2  N   UNL     1       7.208   5.640  14.899  0.00  0.00    +0.000 NA
ATOM      3  N   UNL     1       7.453   6.369  16.004  0.00  0.00    +0.000 N 
ATOM      4  C   UNL     1       7.055   5.746  17.141  0.00  0.00    +0.000 A 
ATOM      5  C   UNL     1       6.452   4.569  16.761  0.00  0.00    +0.000 A 
ATOM      6  C   UNL     1       5.854   3.604  17.724  0.00  0.00    +0.000 C 
ATOM      7  N   UNL     1       5.573   4.257  19.035  0.00  0.00    +0.000 NA
ATOM      8  C   UNL     1       6.759   5.046  19.481  0.00  0.00    +0.000 C 
ATOM      9  C   UNL     1       7.163   6.224  18.540  0.00  0.00    +0.000 C 
ATOM     10  H   UNL     1       7.896   7.275  15.894  0.00  0.00    +0.000 HD
ENDROOT
BRANCH   1  12
ATOM     11  C   UNL     1       6.434   3.817  12.960  0.00  0.00    +0.000 C 
ATOM     12  C   UNL     1       6.152   3.469  14.413  0.00  0.00    +0.000 C 
ENDBRANCH   1  12
BRANCH   7  13
ATOM     13  C   UNL     1       4.370   5.118  18.999  0.00  0.00    +0.000 C 
BRANCH  13  14
ATOM     14  C   UNL     1       3.107   4.445  19.494  0.00  0.00    +0.000 A 
ATOM     15  C   UNL     1       2.759   4.581  20.851  0.00  0.00    +0.000 A 
ATOM     16  C   UNL     1       1.626   3.954  21.368  0.00  0.00    +0.000 A 
ATOM     17  C   UNL     1       0.815   3.183  20.538  0.00  0.00    +0.000 A 
ATOM     18  C   UNL     1       1.136   3.053  19.189  0.00  0.00    +0.000 A 
ATOM     19  C   UNL     1       2.272   3.681  18.656  0.00  0.00    +0.000 A 
ATOM     20 CL   UNL     1       2.613   3.489  16.967  0.00  0.00    +0.000 Cl
BRANCH  18  21
ATOM     21  O   UNL     1       0.334   2.296  18.378  0.00  0.00    +0.000 OA
ATOM     22  H   UNL     1      -0.595   2.518  18.544  0.00  0.00    +0.000 HD
ENDBRANCH  18  21
ENDBRANCH  13  14
ENDBRANCH   7  13
TORSDOF 4
ENDMDL
MODEL 4
REMARK VINA RESULT:      -7.3      3.344      6.369
REMARK  Name = 
REMARK  5 active torsions:
REMARK  status: ('A' for Active; 'I' for Inactive)
REMARK    1  A    between atoms: C_1  and  C_2
REMARK    2  A    between atoms: C_2  and  C_3
REMARK    3  A    between atoms: N_9  and  C_10
REMARK    4  A    between atoms: C_10  and  C_11
REMARK    5  A    between atoms: C_15  and  O_16
REMARK                            x       y       z     vdW  Elec       q    Type
REMARK                         _______ _______ _______ _____ _____    ______ ____
ROOT
ATOM      1  C   UNL     1       2.386   3.999  20.053  0.00  0.00    +0.000 A 
ATOM      2  N   UNL     1       2.194   4.308  21.346  0.00  0.00    +0.000 NA
ATOM      3  N   UNL     1       2.121   5.652  21.363  0.00  0.00    +0.000 N 
ATOM      4  C   UNL     1       2.208   6.197  20.124  0.00  0.00    +0.000 A 
ATOM      5  C   UNL     1       2.419   5.159  19.246  0.00  0.00    +0.000 A 
ATOM      6  C   UNL     1       2.596   5.346  17.779  0.00  0.00    +0.000 C 
ATOM      7  N   UNL     1       2.979   6.752  17.460  0.00  0.00    +0.000 NA
ATOM      8  C   UNL     1       2.088   7.705  18.185  0.00  0.00    +0.000 C 
ATOM      9  C   UNL     1       2.161   7.628  19.742  0.00  0.00    +0.000 C 
ATOM     10  H   UNL     1       2.009   6.117  22.258  0.00  0.00    +0.000 HD
ENDROOT
BRANCH   1  12
ATOM     11  C   UNL     1       1.285   2.079  18.878  0.00  0.00    +0.000 C 
ATOM     12  C   UNL     1       2.513   2.577  19.623  0.00  0.00    +0.000 C 
ENDBRANCH   1  12
BRANCH   7  13
ATOM     13  C   UNL     1       4.397   7.043  17.768  0.00  0.00    +0.000 C 
BRANCH  13  14
ATOM     14  C   UNL     1       5.387   6.162  17.035  0.00  0.00    +0.000 A 
ATOM     15  C   UNL     1       5.270   6.036  15.638  0.00  0.00    +0.000 A 
ATOM     16  C   UNL     1       6.133   5.211  14.918  0.00  0.00    +0.000 A 
ATOM     17  C   UNL     1       7.134   4.501  15.578  0.00  0.00    +0.000 A 
ATOM     18  C   UNL     1       7.273   4.629  16.958  0.00  0.00    +0.000 A 
ATOM     19  C   UNL     1       6.413   5.458  17.694  0.00  0.00    +0.000 A 
ATOM     20 CL   UNL     1       6.644   5.583  19.408  0.00  0.00    +0.000 Cl
BRANCH  18  21
ATOM     21  O   UNL     1       8.260   3.930  17.601  0.00  0.00    +0.000 OA
ATOM     22  H   UNL     1       7.864   3.208  18.112  0.00  0.00    +0.000 HD
ENDBRANCH  18  21
ENDBRANCH  13  14
ENDBRANCH   7  13
TORSDOF 4
ENDMDL
MODEL 5
REMARK VINA RESULT:      -7.3      1.729      1.999
REMARK  Name = 
REMARK  5 active torsions:
REMARK  status: ('A' for Active; 'I' for Inactive)
REMARK    1  A    between atoms: C_1  and  C_2
REMARK    2  A    between atoms: C_2  and  C_3
REMARK    3  A    between atoms: N_9  and  C_10
REMARK    4  A    between atoms: C_10  and  C_11
REMARK    5  A    between atoms: C_15  and  O_16
REMARK                            x       y       z     vdW  Elec       q    Type
REMARK                         _______ _______ _______ _____ _____    ______ ____
ROOT
ATOM      1  C   UNL     1       6.597   4.131  13.616  0.00  0.00    +0.000 A 
ATOM      2  N   UNL     1       7.488   5.097  13.336  0.00  0.00    +0.000 NA
ATOM      3  N   UNL     1       7.723   5.691  14.522  0.00  0.00    +0.000 N 
ATOM      4  C   UNL     1       7.052   5.103  15.544  0.00  0.00    +0.000 A 
ATOM      5  C   UNL     1       6.279   4.107  14.993  0.00  0.00    +0.000 A 
ATOM      6  C   UNL     1       5.368   3.238  15.789  0.00  0.00    +0.000 C 
ATOM      7  N   UNL     1       5.048   3.860  17.106  0.00  0.00    +0.000 NA
ATOM      8  C   UNL     1       6.298   4.349  17.761  0.00  0.00    +0.000 C 
ATOM      9  C   UNL     1       7.062   5.465  16.981  0.00  0.00    +0.000 C 
ATOM     10  H   UNL     1       8.352   6.486  14.546  0.00  0.00    +0.000 HD
ENDROOT
BRANCH   1  12
ATOM     11  C   UNL     1       4.700   3.628  12.058  0.00  0.00    +0.000 C 
ATOM     12  C   UNL     1       6.088   3.235  12.540  0.00  0.00    +0.000 C 
ENDBRANCH   1  12
BRANCH   7  13
ATOM     13  C   UNL     1       4.065   4.960  16.997  0.00  0.00    +0.000 C 
BRANCH  13  14
ATOM     14  C   UNL     1       3.296   5.236  18.272  0.00  0.00    +0.000 A 
ATOM     15  C   UNL     1       2.951   4.149  19.099  0.00  0.00    +0.000 A 
ATOM     16  C   UNL     1       2.213   4.342  20.266  0.00  0.00    +0.000 A 
ATOM     17  C   UNL     1       1.811   5.624  20.635  0.00  0.00    +0.000 A 
ATOM     18  C   UNL     1       2.159   6.710  19.837  0.00  0.00    +0.000 A 
ATOM     19  C   UNL     1       2.904   6.531  18.661  0.00  0.00    +0.000 A 
ATOM     20 CL   UNL     1       3.314   7.926  17.716  0.00  0.00    +0.000 Cl
BRANCH  18  21
ATOM     21  O   UNL     1       1.763   7.969  20.206  0.00  0.00    +0.000 OA
ATOM     22  H   UNL     1       0.982   7.907  20.775  0.00  0.00    +0.000 HD
ENDBRANCH  18  21
ENDBRANCH  13  14
ENDBRANCH   7  13
TORSDOF 4
ENDMDL
MODEL 6
REMARK VINA RESULT:      -7.1      1.532      1.863
REMARK  Name = 
REMARK  5 active torsions:
REMARK  status: ('A' for Active; 'I' for Inactive)
REMARK    1  A    between atoms: C_1  and  C_2
REMARK    2  A    between atoms: C_2  and  C_3
REMARK    3  A    between atoms: N_9  and  C_10
REMARK    4  A    between atoms: C_10  and  C_11
REMARK    5  A    between atoms: C_15  and  O_16
REMARK                            x       y       z     vdW  Elec       q    Type
REMARK                         _______ _______ _______ _____ _____    ______ ____
ROOT
ATOM      1  C   UNL     1       6.382   3.825  12.974  0.00  0.00    +0.000 A 
ATOM      2  N   UNL     1       7.132   4.828  12.489  0.00  0.00    +0.000 NA
ATOM      3  N   UNL     1       7.511   5.522  13.579  0.00  0.00    +0.000 N 
ATOM      4  C   UNL     1       7.069   4.964  14.734  0.00  0.00    +0.000 A 
ATOM      5  C   UNL     1       6.300   3.879  14.383  0.00  0.00    +0.000 A 
ATOM      6  C   UNL     1       5.607   3.008  15.374  0.00  0.00    +0.000 C 
ATOM      7  N   UNL     1       5.460   3.699  16.687  0.00  0.00    +0.000 NA
ATOM      8  C   UNL     1       6.757   4.322  17.088  0.00  0.00    +0.000 C 
ATOM      9  C   UNL     1       7.287   5.429  16.124  0.00  0.00    +0.000 C 
ATOM     10  H   UNL     1       8.068   6.359  13.448  0.00  0.00    +0.000 HD
ENDROOT
BRANCH   1  12
ATOM     11  C   UNL     1       4.458   3.290  11.460  0.00  0.00    +0.000 C 
ATOM     12  C   UNL     1       5.776   2.819  12.055  0.00  0.00    +0.000 C 
ENDBRANCH   1  12
BRANCH   7  13
ATOM     13  C   UNL     1       4.386   4.716  16.682  0.00  0.00    +0.000 C 
BRANCH  13  14
ATOM     14  C   UNL     1       3.322   4.503  17.739  0.00  0.00    +0.000 A 
ATOM     15  C   UNL     1       2.166   3.779  17.394  0.00  0.00    +0.000 A 
ATOM     16  C   UNL     1       1.140   3.583  18.318  0.00  0.00    +0.000 A 
ATOM     17  C   UNL     1       1.252   4.101  19.606  0.00  0.00    +0.000 A 
ATOM     18  C   UNL     1       2.397   4.805  19.968  0.00  0.00    +0.000 A 
ATOM     19  C   UNL     1       3.438   5.007  19.050  0.00  0.00    +0.000 A 
ATOM     20 CL   UNL     1       4.843   5.884  19.564  0.00  0.00    +0.000 Cl
BRANCH  18  21
ATOM     21  O   UNL     1       2.502   5.310  21.237  0.00  0.00    +0.000 OA
ATOM     22  H   UNL     1       1.982   6.125  21.304  0.00  0.00    +0.000 HD
ENDBRANCH  18  21
ENDBRANCH  13  14
ENDBRANCH   7  13
TORSDOF 4
ENDMDL
MODEL 7
REMARK VINA RESULT:      -7.1      2.938      3.892
REMARK  Name = 
REMARK  5 active torsions:
REMARK  status: ('A' for Active; 'I' for Inactive)
REMARK    1  A    between atoms: C_1  and  C_2
REMARK    2  A    between atoms: C_2  and  C_3
REMARK    3  A    between atoms: N_9  and  C_10
REMARK    4  A    between atoms: C_10  and  C_11
REMARK    5  A    between atoms: C_15  and  O_16
REMARK                            x       y       z     vdW  Elec       q    Type
REMARK                         _______ _______ _______ _____ _____    ______ ____
ROOT
ATOM      1  C   UNL     1       7.377   7.053  18.080  0.00  0.00    +0.000 A 
ATOM      2  N   UNL     1       8.244   6.527  18.961  0.00  0.00    +0.000 NA
ATOM      3  N   UNL     1       7.668   5.374  19.352  0.00  0.00    +0.000 N 
ATOM      4  C   UNL     1       6.496   5.132  18.712  0.00  0.00    +0.000 A 
ATOM      5  C   UNL     1       6.252   6.217  17.903  0.00  0.00    +0.000 A 
ATOM      6  C   UNL     1       5.040   6.349  17.048  0.00  0.00    +0.000 C 
ATOM      7  N   UNL     1       3.953   5.440  17.514  0.00  0.00    +0.000 NA
ATOM      8  C   UNL     1       4.495   4.070  17.754  0.00  0.00    +0.000 C 
ATOM      9  C   UNL     1       5.585   3.973  18.867  0.00  0.00    +0.000 C 
ATOM     10  H   UNL     1       8.139   4.815  20.054  0.00  0.00    +0.000 HD
ENDROOT
BRANCH   1  12
ATOM     11  C   UNL     1       8.489   9.290  18.285  0.00  0.00    +0.000 C 
ATOM     12  C   UNL     1       7.672   8.352  17.410  0.00  0.00    +0.000 C 
ENDBRANCH   1  12
BRANCH   7  13
ATOM     13  C   UNL     1       3.271   5.938  18.729  0.00  0.00    +0.000 C 
BRANCH  13  14
ATOM     14  C   UNL     1       2.511   4.876  19.497  0.00  0.00    +0.000 A 
ATOM     15  C   UNL     1       2.813   4.686  20.858  0.00  0.00    +0.000 A 
ATOM     16  C   UNL     1       2.169   3.699  21.604  0.00  0.00    +0.000 A 
ATOM     17  C   UNL     1       1.208   2.887  21.006  0.00  0.00    +0.000 A 
ATOM     18  C   UNL     1       0.887   3.074  19.664  0.00  0.00    +0.000 A 
ATOM     19  C   UNL     1       1.524   4.066  18.903  0.00  0.00    +0.000 A 
ATOM     20 CL   UNL     1       1.073   4.256  17.240  0.00  0.00    +0.000 Cl
BRANCH  18  21
ATOM     21  O   UNL     1      -0.061   2.275  19.082  0.00  0.00    +0.000 OA
ATOM     22  H   UNL     1       0.288   1.376  18.990  0.00  0.00    +0.000 HD
ENDBRANCH  18  21
ENDBRANCH  13  14
ENDBRANCH   7  13
TORSDOF 4
ENDMDL
MODEL 8
REMARK VINA RESULT:      -7.0      1.674      2.130
REMARK  Name = 
REMARK  5 active torsions:
REMARK  status: ('A' for Active; 'I' for Inactive)
REMARK    1  A    between atoms: C_1  and  C_2
REMARK    2  A    between atoms: C_2  and  C_3
REMARK    3  A    between atoms: N_9  and  C_10
REMARK    4  A    between atoms: C_10  and  C_11
REMARK    5  A    between atoms: C_15  and  O_16
REMARK                            x       y       z     vdW  Elec       q    Type
REMARK                         _______ _______ _______ _____ _____    ______ ____
ROOT
ATOM      1  C   UNL     1       6.642   4.698  15.516  0.00  0.00    +0.000 A 
ATOM      2  N   UNL     1       7.182   5.797  14.961  0.00  0.00    +0.000 NA
ATOM      3  N   UNL     1       7.549   6.557  16.010  0.00  0.00    +0.000 N 
ATOM      4  C   UNL     1       7.307   5.956  17.202  0.00  0.00    +0.000 A 
ATOM      5  C   UNL     1       6.683   4.761  16.927  0.00  0.00    +0.000 A 
ATOM      6  C   UNL     1       6.227   3.811  17.979  0.00  0.00    +0.000 C 
ATOM      7  N   UNL     1       6.098   4.492  19.299  0.00  0.00    +0.000 NA
ATOM      8  C   UNL     1       7.316   5.312  19.576  0.00  0.00    +0.000 C 
ATOM      9  C   UNL     1       7.578   6.472  18.565  0.00  0.00    +0.000 C 
ATOM     10  H   UNL     1       7.957   7.467  15.825  0.00  0.00    +0.000 HD
ENDROOT
BRANCH   1  12
ATOM     11  C   UNL     1       6.348   3.845  13.178  0.00  0.00    +0.000 C 
ATOM     12  C   UNL     1       6.115   3.597  14.660  0.00  0.00    +0.000 C 
ENDBRANCH   1  12
BRANCH   7  13
ATOM     13  C   UNL     1       4.885   5.334  19.394  0.00  0.00    +0.000 C 
BRANCH  13  14
ATOM     14  C   UNL     1       3.616   4.652  18.924  0.00  0.00    +0.000 A 
ATOM     15  C   UNL     1       2.785   5.331  18.014  0.00  0.00    +0.000 A 
ATOM     16  C   UNL     1       1.588   4.765  17.575  0.00  0.00    +0.000 A 
ATOM     17  C   UNL     1       1.202   3.507  18.033  0.00  0.00    +0.000 A 
ATOM     18  C   UNL     1       2.022   2.816  18.921  0.00  0.00    +0.000 A 
ATOM     19  C   UNL     1       3.230   3.372  19.367  0.00  0.00    +0.000 A 
ATOM     20 CL   UNL     1       4.212   2.457  20.465  0.00  0.00    +0.000 Cl
BRANCH  18  21
ATOM     21  O   UNL     1       1.637   1.579  19.365  0.00  0.00    +0.000 OA
ATOM     22  H   UNL     1       0.942   1.677  20.032  0.00  0.00    +0.000 HD
ENDBRANCH  18  21
ENDBRANCH  13  14
ENDBRANCH   7  13
TORSDOF 4
ENDMDL
MODEL 9
REMARK VINA RESULT:      -7.0      3.675      5.090
REMARK  Name = 
REMARK  5 active torsions:
REMARK  status: ('A' for Active; 'I' for Inactive)
REMARK    1  A    between atoms: C_1  and  C_2
REMARK    2  A    between atoms: C_2  and  C_3
REMARK    3  A    between atoms: N_9  and  C_10
REMARK    4  A    between atoms: C_10  and  C_11
REMARK    5  A    between atoms: C_15  and  O_16
REMARK                            x       y       z     vdW  Elec       q    Type
REMARK                         _______ _______ _______ _____ _____    ______ ____
ROOT
ATOM      1  C   UNL     1       6.089   5.313  17.831  0.00  0.00    +0.000 A 
ATOM      2  N   UNL     1       6.689   4.333  18.526  0.00  0.00    +0.000 NA
ATOM      3  N   UNL     1       5.702   3.794  19.267  0.00  0.00    +0.000 N 
ATOM      4  C   UNL     1       4.495   4.365  19.026  0.00  0.00    +0.000 A 
ATOM      5  C   UNL     1       4.709   5.383  18.125  0.00  0.00    +0.000 A 
ATOM      6  C   UNL     1       3.628   6.275  17.622  0.00  0.00    +0.000 C 
ATOM      7  N   UNL     1       2.443   6.246  18.526  0.00  0.00    +0.000 NA
ATOM      8  C   UNL     1       2.086   4.836  18.862  0.00  0.00    +0.000 C 
ATOM      9  C   UNL     1       3.184   4.041  19.637  0.00  0.00    +0.000 C 
ATOM     10  H   UNL     1       5.936   3.043  19.907  0.00  0.00    +0.000 HD
ENDROOT
BRANCH   1  12
ATOM     11  C   UNL     1       7.611   7.286  17.562  0.00  0.00    +0.000 C 
ATOM     12  C   UNL     1       6.868   6.151  16.875  0.00  0.00    +0.000 C 
ENDBRANCH   1  12
BRANCH   7  13
ATOM     13  C   UNL     1       2.648   7.030  19.765  0.00  0.00    +0.000 C 
BRANCH  13  14
ATOM     14  C   UNL     1       1.609   8.107  19.999  0.00  0.00    +0.000 A 
ATOM     15  C   UNL     1       0.850   8.064  21.184  0.00  0.00    +0.000 A 
ATOM     16  C   UNL     1      -0.142   9.010  21.435  0.00  0.00    +0.000 A 
ATOM     17  C   UNL     1      -0.393  10.022  20.509  0.00  0.00    +0.000 A 
ATOM     18  C   UNL     1       0.361  10.088  19.341  0.00  0.00    +0.000 A 
ATOM     19  C   UNL     1       1.365   9.144  19.078  0.00  0.00    +0.000 A 
ATOM     20 CL   UNL     1       2.276   9.286  17.609  0.00  0.00    +0.000 Cl
BRANCH  18  21
ATOM     21  O   UNL     1       0.112  11.086  18.436  0.00  0.00    +0.000 OA
ATOM     22  H   UNL     1      -0.829  11.314  18.459  0.00  0.00    +0.000 HD
ENDBRANCH  18  21
ENDBRANCH  13  14
ENDBRANCH   7  13
TORSDOF 4
ENDMDL
