MODEL 1
REMARK VINA RESULT:      -8.8      0.000      0.000
REMARK  Name = 
REMARK  9 active torsions:
REMARK  status: ('A' for Active; 'I' for Inactive)
REMARK    1  A    between atoms: C_2  and  C_3
REMARK    2  A    between atoms: C_2  and  C_19
REMARK    3  A    between atoms: C_3  and  C_4
REMARK    4  A    between atoms: C_4  and  C_5
REMARK    5  A    between atoms: C_5  and  C_6
REMARK    6  A    between atoms: C_6  and  C_7
REMARK    7  A    between atoms: C_8  and  C_9
REMARK    8  A    between atoms: C_13  and  C_14
REMARK    9  A    between atoms: C_22  and  C_23
REMARK                            x       y       z     vdW  Elec       q    Type
REMARK                         _______ _______ _______ _____ _____    ______ ____
ROOT
ATOM      1  C   UNL     1       7.634   7.246  17.199  0.00  0.00    +0.000 C 
ENDROOT
BRANCH   1   2
ATOM      2  C   UNL     1       7.730   6.291  18.388  0.00  0.00    +0.000 C 
BRANCH   2   4
ATOM      3  O   UNL     1       8.431   4.119  17.728  0.00  0.00    +0.000 OA
ATOM      4  C   UNL     1       7.469   4.842  18.005  0.00  0.00    +0.000 C 
BRANCH   4   5
ATOM      5  C   UNL     1       6.085   4.394  17.978  0.00  0.00    +0.000 A 
ATOM      6  N   UNL     1       5.287   4.409  16.923  0.00  0.00    +0.000 NA
ATOM      7  C   UNL     1       4.081   3.983  17.412  0.00  0.00    +0.000 A 
ATOM      8  C   UNL     1       4.181   3.735  18.757  0.00  0.00    +0.000 A 
ATOM      9  O   UNL     1       5.474   3.976  19.134  0.00  0.00    +0.000 OA
BRANCH   8  10
ATOM     10  C   UNL     1       3.188   3.621  19.794  0.00  0.00    +0.000 A 
ATOM     11  C   UNL     1       1.964   4.201  19.537  0.00  0.00    +0.000 A 
ATOM     12  C   UNL     1       0.883   3.732  20.250  0.00  0.00    +0.000 A 
ATOM     13  C   UNL     1       1.066   2.899  21.341  0.00  0.00    +0.000 A 
ATOM     14  C   UNL     1       2.344   2.439  21.582  0.00  0.00    +0.000 A 
ATOM     15  N   UNL     1       3.404   2.727  20.789  0.00  0.00    +0.000 NA
ENDBRANCH   8  10
ENDBRANCH   4   5
ENDBRANCH   2   4
ENDBRANCH   1   2
BRANCH   1  16
ATOM     16  C   UNL     1       7.569   8.705  17.674  0.00  0.00    +0.000 C 
BRANCH  16  17
ATOM     17  C   UNL     1       8.710   9.078  18.628  0.00  0.00    +0.000 C 
BRANCH  17  18
ATOM     18  C   UNL     1       9.225  10.426  18.366  0.00  0.00    +0.000 C 
ATOM     19  C   UNL     1       9.596  11.554  18.164  0.00  0.00    +0.000 C 
BRANCH  19  20
ATOM     20  C   UNL     1       9.963  12.917  17.952  0.00  0.00    +0.000 A 
ATOM     21  C   UNL     1      11.042  13.235  17.122  0.00  0.00    +0.000 A 
ATOM     22  C   UNL     1      11.374  14.573  16.882  0.00  0.00    +0.000 A 
ATOM     23  C   UNL     1      10.585  15.601  17.418  0.00  0.00    +0.000 A 
ATOM     24  C   UNL     1       9.429  15.289  18.159  0.00  0.00    +0.000 A 
ATOM     25  C   UNL     1       9.166  13.942  18.471  0.00  0.00    +0.000 A 
BRANCH  24  26
ATOM     26  C   UNL     1       8.355  16.322  18.435  0.00  0.00    +0.000 C 
ATOM     27  F   UNL     1       7.110  15.936  18.031  0.00  0.00    +0.000 F 
ATOM     28  F   UNL     1       8.236  16.589  19.768  0.00  0.00    +0.000 F 
ATOM     29  F   UNL     1       8.593  17.520  17.843  0.00  0.00    +0.000 F 
ENDBRANCH  24  26
ENDBRANCH  19  20
ENDBRANCH  17  18
ENDBRANCH  16  17
ENDBRANCH   1  16
TORSDOF 9
ENDMDL
MODEL 2
REMARK VINA RESULT:      -8.6      3.222      4.007
REMARK  Name = 
REMARK  9 active torsions:
REMARK  status: ('A' for Active; 'I' for Inactive)
REMARK    1  A    between atoms: C_2  and  C_3
REMARK    2  A    between atoms: C_2  and  C_19
REMARK    3  A    between atoms: C_3  and  C_4
REMARK    4  A    between atoms: C_4  and  C_5
REMARK    5  A    between atoms: C_5  and  C_6
REMARK    6  A    between atoms: C_6  and  C_7
REMARK    7  A    between atoms: C_8  and  C_9
REMARK    8  A    between atoms: C_13  and  C_14
REMARK    9  A    between atoms: C_22  and  C_23
REMARK                            x       y       z     vdW  Elec       q    Type
REMARK                         _______ _______ _______ _____ _____    ______ ____
ROOT
ATOM      1  C   UNL     1       7.562   4.789  17.961  0.00  0.00    +0.000 C 
ENDROOT
BRANCH   1   2
ATOM      2  C   UNL     1       6.155   4.781  17.367  0.00  0.00    +0.000 C 
BRANCH   2   4
ATOM      3  O   UNL     1       5.046   4.180  19.381  0.00  0.00    +0.000 OA
ATOM      4  C   UNL     1       5.068   4.953  18.418  0.00  0.00    +0.000 C 
BRANCH   4   5
ATOM      5  C   UNL     1       4.105   6.024  18.218  0.00  0.00    +0.000 A 
ATOM      6  N   UNL     1       4.012   6.791  17.143  0.00  0.00    +0.000 NA
ATOM      7  C   UNL     1       3.032   7.692  17.462  0.00  0.00    +0.000 A 
ATOM      8  C   UNL     1       2.567   7.453  18.730  0.00  0.00    +0.000 A 
ATOM      9  O   UNL     1       3.235   6.365  19.224  0.00  0.00    +0.000 OA
BRANCH   8  10
ATOM     10  C   UNL     1       1.835   8.273  19.660  0.00  0.00    +0.000 A 
ATOM     11  C   UNL     1       1.325   9.454  19.167  0.00  0.00    +0.000 A 
ATOM     12  C   UNL     1       0.265  10.014  19.845  0.00  0.00    +0.000 A 
ATOM     13  C   UNL     1      -0.100   9.543  21.095  0.00  0.00    +0.000 A 
ATOM     14  C   UNL     1       0.531   8.405  21.554  0.00  0.00    +0.000 A 
ATOM     15  N   UNL     1       1.446   7.714  20.832  0.00  0.00    +0.000 NA
ENDBRANCH   8  10
ENDBRANCH   4   5
ENDBRANCH   2   4
ENDBRANCH   1   2
BRANCH   1  16
ATOM     16  C   UNL     1       7.921   6.184  18.495  0.00  0.00    +0.000 C 
BRANCH  16  17
ATOM     17  C   UNL     1       7.575   7.310  17.515  0.00  0.00    +0.000 C 
BRANCH  17  18
ATOM     18  C   UNL     1       8.194   8.583  17.901  0.00  0.00    +0.000 C 
ATOM     19  C   UNL     1       8.704   9.609  18.272  0.00  0.00    +0.000 C 
BRANCH  19  20
ATOM     20  C   UNL     1       9.322  10.788  18.785  0.00  0.00    +0.000 A 
ATOM     21  C   UNL     1       9.678  10.867  20.136  0.00  0.00    +0.000 A 
ATOM     22  C   UNL     1      10.323  12.008  20.627  0.00  0.00    +0.000 A 
ATOM     23  C   UNL     1      10.675  13.048  19.755  0.00  0.00    +0.000 A 
ATOM     24  C   UNL     1      10.425  12.926  18.375  0.00  0.00    +0.000 A 
ATOM     25  C   UNL     1       9.691  11.818  17.914  0.00  0.00    +0.000 A 
BRANCH  24  26
ATOM     26  C   UNL     1      11.104  13.822  17.359  0.00  0.00    +0.000 C 
ATOM     27  F   UNL     1      10.409  14.964  17.086  0.00  0.00    +0.000 F 
ATOM     28  F   UNL     1      12.331  14.238  17.787  0.00  0.00    +0.000 F 
ATOM     29  F   UNL     1      11.322  13.214  16.164  0.00  0.00    +0.000 F 
ENDBRANCH  24  26
ENDBRANCH  19  20
ENDBRANCH  17  18
ENDBRANCH  16  17
ENDBRANCH   1  16
TORSDOF 9
ENDMDL
MODEL 3
REMARK VINA RESULT:      -8.4      6.181      8.311
REMARK  Name = 
REMARK  9 active torsions:
REMARK  status: ('A' for Active; 'I' for Inactive)
REMARK    1  A    between atoms: C_2  and  C_3
REMARK    2  A    between atoms: C_2  and  C_19
REMARK    3  A    between atoms: C_3  and  C_4
REMARK    4  A    between atoms: C_4  and  C_5
REMARK    5  A    between atoms: C_5  and  C_6
REMARK    6  A    between atoms: C_6  and  C_7
REMARK    7  A    between atoms: C_8  and  C_9
REMARK    8  A    between atoms: C_13  and  C_14
REMARK    9  A    between atoms: C_22  and  C_23
REMARK                            x       y       z     vdW  Elec       q    Type
REMARK                         _______ _______ _______ _____ _____    ______ ____
ROOT
ATOM      1  C   UNL     1       1.568   3.290  18.623  0.00  0.00    +0.000 C 
ENDROOT
BRANCH   1   2
ATOM      2  C   UNL     1       2.747   2.418  18.195  0.00  0.00    +0.000 C 
BRANCH   2   4
ATOM      3  O   UNL     1       4.663   2.751  19.560  0.00  0.00    +0.000 OA
ATOM      4  C   UNL     1       4.094   3.052  18.506  0.00  0.00    +0.000 C 
BRANCH   4   5
ATOM      5  C   UNL     1       4.633   3.994  17.536  0.00  0.00    +0.000 A 
ATOM      6  N   UNL     1       4.208   5.232  17.341  0.00  0.00    +0.000 NA
ATOM      7  C   UNL     1       4.953   5.676  16.282  0.00  0.00    +0.000 A 
ATOM      8  C   UNL     1       5.801   4.686  15.856  0.00  0.00    +0.000 A 
ATOM      9  O   UNL     1       5.622   3.600  16.669  0.00  0.00    +0.000 OA
BRANCH   8  10
ATOM     10  C   UNL     1       6.512   4.490  14.619  0.00  0.00    +0.000 A 
ATOM     11  C   UNL     1       5.956   3.599  13.727  0.00  0.00    +0.000 A 
ATOM     12  C   UNL     1       6.314   3.728  12.403  0.00  0.00    +0.000 A 
ATOM     13  C   UNL     1       7.364   4.550  12.033  0.00  0.00    +0.000 A 
ATOM     14  C   UNL     1       7.927   5.342  13.013  0.00  0.00    +0.000 A 
ATOM     15  N   UNL     1       7.477   5.383  14.291  0.00  0.00    +0.000 NA
ENDBRANCH   8  10
ENDBRANCH   4   5
ENDBRANCH   2   4
ENDBRANCH   1   2
BRANCH   1  16
ATOM     16  C   UNL     1       1.322   3.172  20.135  0.00  0.00    +0.000 C 
BRANCH  16  17
ATOM     17  C   UNL     1       2.092   4.216  20.952  0.00  0.00    +0.000 C 
BRANCH  17  18
ATOM     18  C   UNL     1       1.972   5.560  20.378  0.00  0.00    +0.000 C 
ATOM     19  C   UNL     1       1.865   6.684  19.959  0.00  0.00    +0.000 C 
BRANCH  19  20
ATOM     20  C   UNL     1       1.741   8.043  19.540  0.00  0.00    +0.000 A 
ATOM     21  C   UNL     1       2.169   8.430  18.266  0.00  0.00    +0.000 A 
ATOM     22  C   UNL     1       2.007   9.753  17.842  0.00  0.00    +0.000 A 
ATOM     23  C   UNL     1       1.354  10.681  18.665  0.00  0.00    +0.000 A 
ATOM     24  C   UNL     1       0.818  10.272  19.901  0.00  0.00    +0.000 A 
ATOM     25  C   UNL     1       1.074   8.965  20.353  0.00  0.00    +0.000 A 
BRANCH  24  26
ATOM     26  C   UNL     1      -0.202  11.111  20.645  0.00  0.00    +0.000 C 
ATOM     27  F   UNL     1      -1.288  11.448  19.890  0.00  0.00    +0.000 F 
ATOM     28  F   UNL     1      -0.705  10.457  21.731  0.00  0.00    +0.000 F 
ATOM     29  F   UNL     1       0.304  12.277  21.124  0.00  0.00    +0.000 F 
ENDBRANCH  24  26
ENDBRANCH  19  20
ENDBRANCH  17  18
ENDBRANCH  16  17
ENDBRANCH   1  16
TORSDOF 9
ENDMDL
MODEL 4
REMARK VINA RESULT:      -8.3      5.488      7.100
REMARK  Name = 
REMARK  9 active torsions:
REMARK  status: ('A' for Active; 'I' for Inactive)
REMARK    1  A    between atoms: C_2  and  C_3
REMARK    2  A    between atoms: C_2  and  C_19
REMARK    3  A    between atoms: C_3  and  C_4
REMARK    4  A    between atoms: C_4  and  C_5
REMARK    5  A    between atoms: C_5  and  C_6
REMARK    6  A    between atoms: C_6  and  C_7
REMARK    7  A    between atoms: C_8  and  C_9
REMARK    8  A    between atoms: C_13  and  C_14
REMARK    9  A    between atoms: C_22  and  C_23
REMARK                            x       y       z     vdW  Elec       q    Type
REMARK                         _______ _______ _______ _____ _____    ______ ____
ROOT
ATOM      1  C   UNL     1       7.377   7.226  17.237  0.00  0.00    +0.000 C 
ENDROOT
BRANCH   1   2
ATOM      2  C   UNL     1       7.581   6.244  18.390  0.00  0.00    +0.000 C 
BRANCH   2   4
ATOM      3  O   UNL     1       8.513   4.117  17.888  0.00  0.00    +0.000 OA
ATOM      4  C   UNL     1       7.480   4.790  17.954  0.00  0.00    +0.000 C 
BRANCH   4   5
ATOM      5  C   UNL     1       6.158   4.278  17.626  0.00  0.00    +0.000 A 
ATOM      6  N   UNL     1       5.726   3.972  16.413  0.00  0.00    +0.000 NA
ATOM      7  C   UNL     1       4.415   3.626  16.606  0.00  0.00    +0.000 A 
ATOM      8  C   UNL     1       4.087   3.747  17.932  0.00  0.00    +0.000 A 
ATOM      9  O   UNL     1       5.208   4.147  18.608  0.00  0.00    +0.000 OA
BRANCH   8  10
ATOM     10  C   UNL     1       2.819   3.858  18.607  0.00  0.00    +0.000 A 
ATOM     11  C   UNL     1       1.926   2.829  18.404  0.00  0.00    +0.000 A 
ATOM     12  C   UNL     1       0.943   2.653  19.353  0.00  0.00    +0.000 A 
ATOM     13  C   UNL     1       0.719   3.615  20.324  0.00  0.00    +0.000 A 
ATOM     14  C   UNL     1       1.613   4.665  20.395  0.00  0.00    +0.000 A 
ATOM     15  N   UNL     1       2.704   4.773  19.599  0.00  0.00    +0.000 NA
ENDBRANCH   8  10
ENDBRANCH   4   5
ENDBRANCH   2   4
ENDBRANCH   1   2
BRANCH   1  16
ATOM     16  C   UNL     1       6.064   8.003  17.407  0.00  0.00    +0.000 C 
BRANCH  16  17
ATOM     17  C   UNL     1       4.821   7.156  17.112  0.00  0.00    +0.000 C 
BRANCH  17  18
ATOM     18  C   UNL     1       3.594   7.791  17.605  0.00  0.00    +0.000 C 
ATOM     19  C   UNL     1       2.619   8.340  18.049  0.00  0.00    +0.000 C 
BRANCH  19  20
ATOM     20  C   UNL     1       1.513   9.040  18.618  0.00  0.00    +0.000 A 
ATOM     21  C   UNL     1       0.562   9.648  17.791  0.00  0.00    +0.000 A 
ATOM     22  C   UNL     1      -0.545  10.296  18.351  0.00  0.00    +0.000 A 
ATOM     23  C   UNL     1      -0.741  10.281  19.739  0.00  0.00    +0.000 A 
ATOM     24  C   UNL     1       0.149   9.574  20.569  0.00  0.00    +0.000 A 
ATOM     25  C   UNL     1       1.306   9.011  20.001  0.00  0.00    +0.000 A 
BRANCH  24  26
ATOM     26  C   UNL     1      -0.209   9.211  21.997  0.00  0.00    +0.000 C 
ATOM     27  F   UNL     1      -0.873   8.024  22.109  0.00  0.00    +0.000 F 
ATOM     28  F   UNL     1       0.899   9.082  22.782  0.00  0.00    +0.000 F 
ATOM     29  F   UNL     1      -0.985  10.141  22.612  0.00  0.00    +0.000 F 
ENDBRANCH  24  26
ENDBRANCH  19  20
ENDBRANCH  17  18
ENDBRANCH  16  17
ENDBRANCH   1  16
TORSDOF 9
ENDMDL
MODEL 5
REMARK VINA RESULT:      -8.3      5.787      8.845
REMARK  Name = 
REMARK  9 active torsions:
REMARK  status: ('A' for Active; 'I' for Inactive)
REMARK    1  A    between atoms: C_2  and  C_3
REMARK    2  A    between atoms: C_2  and  C_19
REMARK    3  A    between atoms: C_3  and  C_4
REMARK    4  A    between atoms: C_4  and  C_5
REMARK    5  A    between atoms: C_5  and  C_6
REMARK    6  A    between atoms: C_6  and  C_7
REMARK    7  A    between atoms: C_8  and  C_9
REMARK    8  A    between atoms: C_13  and  C_14
REMARK    9  A    between atoms: C_22  and  C_23
REMARK                            x       y       z     vdW  Elec       q    Type
REMARK                         _______ _______ _______ _____ _____    ______ ____
ROOT
ATOM      1  C   UNL     1       1.364   3.453  20.494  0.00  0.00    +0.000 C 
ENDROOT
BRANCH   1   2
ATOM      2  C   UNL     1       1.343   4.977  20.599  0.00  0.00    +0.000 C 
BRANCH   2   4
ATOM      3  O   UNL     1       3.690   5.125  20.266  0.00  0.00    +0.000 OA
ATOM      4  C   UNL     1       2.589   5.627  20.020  0.00  0.00    +0.000 C 
BRANCH   4   5
ATOM      5  C   UNL     1       2.408   6.822  19.209  0.00  0.00    +0.000 A 
ATOM      6  N   UNL     1       3.001   7.069  18.051  0.00  0.00    +0.000 NA
ATOM      7  C   UNL     1       2.587   8.334  17.730  0.00  0.00    +0.000 A 
ATOM      8  C   UNL     1       1.764   8.823  18.713  0.00  0.00    +0.000 A 
ATOM      9  O   UNL     1       1.622   7.851  19.665  0.00  0.00    +0.000 OA
BRANCH   8  10
ATOM     10  C   UNL     1       1.358  10.163  19.053  0.00  0.00    +0.000 A 
ATOM     11  C   UNL     1       0.729  10.323  20.268  0.00  0.00    +0.000 A 
ATOM     12  C   UNL     1       0.752  11.582  20.827  0.00  0.00    +0.000 A 
ATOM     13  C   UNL     1       1.167  12.675  20.087  0.00  0.00    +0.000 A 
ATOM     14  C   UNL     1       1.699  12.430  18.837  0.00  0.00    +0.000 A 
ATOM     15  N   UNL     1       1.869  11.187  18.327  0.00  0.00    +0.000 NA
ENDBRANCH   8  10
ENDBRANCH   4   5
ENDBRANCH   2   4
ENDBRANCH   1   2
BRANCH   1  16
ATOM     16  C   UNL     1       0.600   2.981  19.248  0.00  0.00    +0.000 C 
BRANCH  16  17
ATOM     17  C   UNL     1       1.414   2.023  18.370  0.00  0.00    +0.000 C 
BRANCH  17  18
ATOM     18  C   UNL     1       2.641   2.648  17.867  0.00  0.00    +0.000 C 
ATOM     19  C   UNL     1       3.633   3.210  17.479  0.00  0.00    +0.000 C 
BRANCH  19  20
ATOM     20  C   UNL     1       4.788   3.940  17.067  0.00  0.00    +0.000 A 
ATOM     21  C   UNL     1       4.875   4.446  15.766  0.00  0.00    +0.000 A 
ATOM     22  C   UNL     1       5.989   5.198  15.377  0.00  0.00    +0.000 A 
ATOM     23  C   UNL     1       6.990   5.505  16.308  0.00  0.00    +0.000 A 
ATOM     24  C   UNL     1       6.855   5.098  17.649  0.00  0.00    +0.000 A 
ATOM     25  C   UNL     1       5.778   4.262  17.999  0.00  0.00    +0.000 A 
BRANCH  24  26
ATOM     26  C   UNL     1       7.692   5.707  18.756  0.00  0.00    +0.000 C 
ATOM     27  F   UNL     1       8.786   4.961  19.087  0.00  0.00    +0.000 F 
ATOM     28  F   UNL     1       8.180   6.932  18.410  0.00  0.00    +0.000 F 
ATOM     29  F   UNL     1       7.002   5.902  19.910  0.00  0.00    +0.000 F 
ENDBRANCH  24  26
ENDBRANCH  19  20
ENDBRANCH  17  18
ENDBRANCH  16  17
ENDBRANCH   1  16
TORSDOF 9
ENDMDL
MODEL 6
REMARK VINA RESULT:      -8.3      4.440      5.621
REMARK  Name = 
REMARK  9 active torsions:
REMARK  status: ('A' for Active; 'I' for Inactive)
REMARK    1  A    between atoms: C_2  and  C_3
REMARK    2  A    between atoms: C_2  and  C_19
REMARK    3  A    between atoms: C_3  and  C_4
REMARK    4  A    between atoms: C_4  and  C_5
REMARK    5  A    between atoms: C_5  and  C_6
REMARK    6  A    between atoms: C_6  and  C_7
REMARK    7  A    between atoms: C_8  and  C_9
REMARK    8  A    between atoms: C_13  and  C_14
REMARK    9  A    between atoms: C_22  and  C_23
REMARK                            x       y       z     vdW  Elec       q    Type
REMARK                         _______ _______ _______ _____ _____    ______ ____
ROOT
ATOM      1  C   UNL     1       6.291   7.001  17.224  0.00  0.00    +0.000 C 
ENDROOT
BRANCH   1   2
ATOM      2  C   UNL     1       7.174   5.949  16.555  0.00  0.00    +0.000 C 
BRANCH   2   4
ATOM      3  O   UNL     1       8.283   4.170  17.673  0.00  0.00    +0.000 OA
ATOM      4  C   UNL     1       7.195   4.629  17.310  0.00  0.00    +0.000 C 
BRANCH   4   5
ATOM      5  C   UNL     1       5.919   3.973  17.552  0.00  0.00    +0.000 A 
ATOM      6  N   UNL     1       5.107   3.493  16.624  0.00  0.00    +0.000 NA
ATOM      7  C   UNL     1       4.014   3.064  17.328  0.00  0.00    +0.000 A 
ATOM      8  C   UNL     1       4.191   3.311  18.666  0.00  0.00    +0.000 A 
ATOM      9  O   UNL     1       5.425   3.879  18.830  0.00  0.00    +0.000 OA
BRANCH   8  10
ATOM     10  C   UNL     1       3.261   3.393  19.763  0.00  0.00    +0.000 A 
ATOM     11  C   UNL     1       2.096   4.090  19.528  0.00  0.00    +0.000 A 
ATOM     12  C   UNL     1       1.019   3.806  20.338  0.00  0.00    +0.000 A 
ATOM     13  C   UNL     1       1.179   3.043  21.482  0.00  0.00    +0.000 A 
ATOM     14  C   UNL     1       2.411   2.458  21.688  0.00  0.00    +0.000 A 
ATOM     15  N   UNL     1       3.442   2.558  20.815  0.00  0.00    +0.000 NA
ENDBRANCH   8  10
ENDBRANCH   4   5
ENDBRANCH   2   4
ENDBRANCH   1   2
BRANCH   1  16
ATOM     16  C   UNL     1       4.889   7.016  16.597  0.00  0.00    +0.000 C 
BRANCH  16  17
ATOM     17  C   UNL     1       3.771   6.766  17.615  0.00  0.00    +0.000 C 
BRANCH  17  18
ATOM     18  C   UNL     1       2.914   7.943  17.790  0.00  0.00    +0.000 C 
ATOM     19  C   UNL     1       2.256   8.938  17.952  0.00  0.00    +0.000 C 
BRANCH  19  20
ATOM     20  C   UNL     1       1.546  10.159  18.158  0.00  0.00    +0.000 A 
ATOM     21  C   UNL     1       0.191  10.137  18.502  0.00  0.00    +0.000 A 
ATOM     22  C   UNL     1      -0.493  11.333  18.745  0.00  0.00    +0.000 A 
ATOM     23  C   UNL     1       0.194  12.555  18.710  0.00  0.00    +0.000 A 
ATOM     24  C   UNL     1       1.582  12.578  18.478  0.00  0.00    +0.000 A 
ATOM     25  C   UNL     1       2.233  11.377  18.141  0.00  0.00    +0.000 A 
BRANCH  24  26
ATOM     26  C   UNL     1       2.425  13.796  18.796  0.00  0.00    +0.000 C 
ATOM     27  F   UNL     1       2.629  13.986  20.132  0.00  0.00    +0.000 F 
ATOM     28  F   UNL     1       3.671  13.711  18.248  0.00  0.00    +0.000 F 
ATOM     29  F   UNL     1       1.897  14.956  18.324  0.00  0.00    +0.000 F 
ENDBRANCH  24  26
ENDBRANCH  19  20
ENDBRANCH  17  18
ENDBRANCH  16  17
ENDBRANCH   1  16
TORSDOF 9
ENDMDL
MODEL 7
REMARK VINA RESULT:      -8.2      7.158      9.456
REMARK  Name = 
REMARK  9 active torsions:
REMARK  status: ('A' for Active; 'I' for Inactive)
REMARK    1  A    between atoms: C_2  and  C_3
REMARK    2  A    between atoms: C_2  and  C_19
REMARK    3  A    between atoms: C_3  and  C_4
REMARK    4  A    between atoms: C_4  and  C_5
REMARK    5  A    between atoms: C_5  and  C_6
REMARK    6  A    between atoms: C_6  and  C_7
REMARK    7  A    between atoms: C_8  and  C_9
REMARK    8  A    between atoms: C_13  and  C_14
REMARK    9  A    between atoms: C_22  and  C_23
REMARK                            x       y       z     vdW  Elec       q    Type
REMARK                         _______ _______ _______ _____ _____    ______ ____
ROOT
ATOM      1  C   UNL     1       1.520   4.086  19.850  0.00  0.00    +0.000 C 
ENDROOT
BRANCH   1   2
ATOM      2  C   UNL     1       2.494   4.975  20.621  0.00  0.00    +0.000 C 
BRANCH   2   4
ATOM      3  O   UNL     1       4.522   5.530  19.514  0.00  0.00    +0.000 OA
ATOM      4  C   UNL     1       3.345   5.848  19.710  0.00  0.00    +0.000 C 
BRANCH   4   5
ATOM      5  C   UNL     1       2.716   7.023  19.127  0.00  0.00    +0.000 A 
ATOM      6  N   UNL     1       2.976   7.527  17.931  0.00  0.00    +0.000 NA
ATOM      7  C   UNL     1       2.212   8.662  17.876  0.00  0.00    +0.000 A 
ATOM      8  C   UNL     1       1.519   8.820  19.049  0.00  0.00    +0.000 A 
ATOM      9  O   UNL     1       1.818   7.759  19.860  0.00  0.00    +0.000 OA
BRANCH   8  10
ATOM     10  C   UNL     1       0.882   9.965  19.647  0.00  0.00    +0.000 A 
ATOM     11  C   UNL     1       0.242  10.829  18.785  0.00  0.00    +0.000 A 
ATOM     12  C   UNL     1      -0.741  11.635  19.317  0.00  0.00    +0.000 A 
ATOM     13  C   UNL     1      -0.899  11.743  20.688  0.00  0.00    +0.000 A 
ATOM     14  C   UNL     1      -0.147  10.902  21.482  0.00  0.00    +0.000 A 
ATOM     15  N   UNL     1       0.694   9.961  20.989  0.00  0.00    +0.000 NA
ENDBRANCH   8  10
ENDBRANCH   4   5
ENDBRANCH   2   4
ENDBRANCH   1   2
BRANCH   1  16
ATOM     16  C   UNL     1       2.066   2.656  19.728  0.00  0.00    +0.000 C 
BRANCH  16  17
ATOM     17  C   UNL     1       2.150   2.166  18.278  0.00  0.00    +0.000 C 
BRANCH  17  18
ATOM     18  C   UNL     1       3.269   2.780  17.555  0.00  0.00    +0.000 C 
ATOM     19  C   UNL     1       4.155   3.285  16.915  0.00  0.00    +0.000 C 
BRANCH  19  20
ATOM     20  C   UNL     1       5.150   3.896  16.095  0.00  0.00    +0.000 A 
ATOM     21  C   UNL     1       6.234   4.559  16.679  0.00  0.00    +0.000 A 
ATOM     22  C   UNL     1       7.232   5.120  15.873  0.00  0.00    +0.000 A 
ATOM     23  C   UNL     1       7.185   4.962  14.481  0.00  0.00    +0.000 A 
ATOM     24  C   UNL     1       6.159   4.197  13.894  0.00  0.00    +0.000 A 
ATOM     25  C   UNL     1       5.114   3.723  14.708  0.00  0.00    +0.000 A 
BRANCH  24  26
ATOM     26  C   UNL     1       6.262   3.684  12.471  0.00  0.00    +0.000 C 
ATOM     27  F   UNL     1       7.086   4.430  11.679  0.00  0.00    +0.000 F 
ATOM     28  F   UNL     1       6.762   2.416  12.422  0.00  0.00    +0.000 F 
ATOM     29  F   UNL     1       5.066   3.629  11.829  0.00  0.00    +0.000 F 
ENDBRANCH  24  26
ENDBRANCH  19  20
ENDBRANCH  17  18
ENDBRANCH  16  17
ENDBRANCH   1  16
TORSDOF 9
ENDMDL
MODEL 8
REMARK VINA RESULT:      -8.2      8.661     11.486
REMARK  Name = 
REMARK  9 active torsions:
REMARK  status: ('A' for Active; 'I' for Inactive)
REMARK    1  A    between atoms: C_2  and  C_3
REMARK    2  A    between atoms: C_2  and  C_19
REMARK    3  A    between atoms: C_3  and  C_4
REMARK    4  A    between atoms: C_4  and  C_5
REMARK    5  A    between atoms: C_5  and  C_6
REMARK    6  A    between atoms: C_6  and  C_7
REMARK    7  A    between atoms: C_8  and  C_9
REMARK    8  A    between atoms: C_13  and  C_14
REMARK    9  A    between atoms: C_22  and  C_23
REMARK                            x       y       z     vdW  Elec       q    Type
REMARK                         _______ _______ _______ _____ _____    ______ ____
ROOT
ATOM      1  C   UNL     1       0.936   9.216  20.729  0.00  0.00    +0.000 C 
ENDROOT
BRANCH   1   2
ATOM      2  C   UNL     1      -0.240   9.019  21.684  0.00  0.00    +0.000 C 
BRANCH   2   4
ATOM      3  O   UNL     1       0.360   9.625  23.901  0.00  0.00    +0.000 OA
ATOM      4  C   UNL     1      -0.211   9.977  22.865  0.00  0.00    +0.000 C 
BRANCH   4   5
ATOM      5  C   UNL     1      -0.874  11.262  22.702  0.00  0.00    +0.000 A 
ATOM      6  N   UNL     1      -0.288  12.396  22.349  0.00  0.00    +0.000 NA
ATOM      7  C   UNL     1      -1.293  13.324  22.421  0.00  0.00    +0.000 A 
ATOM      8  C   UNL     1      -2.457  12.726  22.830  0.00  0.00    +0.000 A 
ATOM      9  O   UNL     1      -2.208  11.391  22.996  0.00  0.00    +0.000 OA
BRANCH   8  10
ATOM     10  C   UNL     1      -3.669  13.261  23.396  0.00  0.00    +0.000 A 
ATOM     11  C   UNL     1      -3.633  14.582  23.785  0.00  0.00    +0.000 A 
ATOM     12  C   UNL     1      -4.838  15.243  23.880  0.00  0.00    +0.000 A 
ATOM     13  C   UNL     1      -6.032  14.545  23.827  0.00  0.00    +0.000 A 
ATOM     14  C   UNL     1      -5.968  13.200  23.522  0.00  0.00    +0.000 A 
ATOM     15  N   UNL     1      -4.813  12.552  23.235  0.00  0.00    +0.000 NA
ENDBRANCH   8  10
ENDBRANCH   4   5
ENDBRANCH   2   4
ENDBRANCH   1   2
BRANCH   1  16
ATOM     16  C   UNL     1       0.486   9.936  19.450  0.00  0.00    +0.000 C 
BRANCH  16  17
ATOM     17  C   UNL     1       1.485   9.793  18.296  0.00  0.00    +0.000 C 
BRANCH  17  18
ATOM     18  C   UNL     1       2.018   8.430  18.197  0.00  0.00    +0.000 C 
ATOM     19  C   UNL     1       2.442   7.312  18.060  0.00  0.00    +0.000 C 
BRANCH  19  20
ATOM     20  C   UNL     1       2.936   5.995  17.816  0.00  0.00    +0.000 A 
ATOM     21  C   UNL     1       2.091   4.889  17.950  0.00  0.00    +0.000 A 
ATOM     22  C   UNL     1       2.565   3.603  17.669  0.00  0.00    +0.000 A 
ATOM     23  C   UNL     1       3.870   3.424  17.188  0.00  0.00    +0.000 A 
ATOM     24  C   UNL     1       4.690   4.542  16.940  0.00  0.00    +0.000 A 
ATOM     25  C   UNL     1       4.231   5.817  17.319  0.00  0.00    +0.000 A 
BRANCH  24  26
ATOM     26  C   UNL     1       5.938   4.443  16.086  0.00  0.00    +0.000 C 
ATOM     27  F   UNL     1       6.026   3.278  15.381  0.00  0.00    +0.000 F 
ATOM     28  F   UNL     1       5.996   5.436  15.154  0.00  0.00    +0.000 F 
ATOM     29  F   UNL     1       7.090   4.544  16.799  0.00  0.00    +0.000 F 
ENDBRANCH  24  26
ENDBRANCH  19  20
ENDBRANCH  17  18
ENDBRANCH  16  17
ENDBRANCH   1  16
TORSDOF 9
ENDMDL
MODEL 9
REMARK VINA RESULT:      -8.2      6.282      8.491
REMARK  Name = 
REMARK  9 active torsions:
REMARK  status: ('A' for Active; 'I' for Inactive)
REMARK    1  A    between atoms: C_2  and  C_3
REMARK    2  A    between atoms: C_2  and  C_19
REMARK    3  A    between atoms: C_3  and  C_4
REMARK    4  A    between atoms: C_4  and  C_5
REMARK    5  A    between atoms: C_5  and  C_6
REMARK    6  A    between atoms: C_6  and  C_7
REMARK    7  A    between atoms: C_8  and  C_9
REMARK    8  A    between atoms: C_13  and  C_14
REMARK    9  A    between atoms: C_22  and  C_23
REMARK                            x       y       z     vdW  Elec       q    Type
REMARK                         _______ _______ _______ _____ _____    ______ ____
ROOT
ATOM      1  C   UNL     1       0.826   2.958  19.831  0.00  0.00    +0.000 C 
ENDROOT
BRANCH   1   2
ATOM      2  C   UNL     1       1.734   2.511  18.687  0.00  0.00    +0.000 C 
BRANCH   2   4
ATOM      3  O   UNL     1       1.075   4.281  17.245  0.00  0.00    +0.000 OA
ATOM      4  C   UNL     1       2.021   3.623  17.690  0.00  0.00    +0.000 C 
BRANCH   4   5
ATOM      5  C   UNL     1       3.408   3.842  17.309  0.00  0.00    +0.000 A 
ATOM      6  N   UNL     1       4.374   4.260  18.111  0.00  0.00    +0.000 NA
ATOM      7  C   UNL     1       5.457   4.395  17.284  0.00  0.00    +0.000 A 
ATOM      8  C   UNL     1       5.110   4.068  15.998  0.00  0.00    +0.000 A 
ATOM      9  O   UNL     1       3.796   3.688  16.001  0.00  0.00    +0.000 OA
BRANCH   8  10
ATOM     10  C   UNL     1       5.723   4.363  14.729  0.00  0.00    +0.000 A 
ATOM     11  C   UNL     1       6.805   5.216  14.754  0.00  0.00    +0.000 A 
ATOM     12  C   UNL     1       7.679   5.154  13.691  0.00  0.00    +0.000 A 
ATOM     13  C   UNL     1       7.350   4.450  12.546  0.00  0.00    +0.000 A 
ATOM     14  C   UNL     1       6.196   3.694  12.576  0.00  0.00    +0.000 A 
ATOM     15  N   UNL     1       5.406   3.578  13.670  0.00  0.00    +0.000 NA
ENDBRANCH   8  10
ENDBRANCH   4   5
ENDBRANCH   2   4
ENDBRANCH   1   2
BRANCH   1  16
ATOM     16  C   UNL     1       1.467   2.645  21.191  0.00  0.00    +0.000 C 
BRANCH  16  17
ATOM     17  C   UNL     1       2.333   3.792  21.725  0.00  0.00    +0.000 C 
BRANCH  17  18
ATOM     18  C   UNL     1       2.150   5.025  20.952  0.00  0.00    +0.000 C 
ATOM     19  C   UNL     1       2.046   6.059  20.344  0.00  0.00    +0.000 C 
BRANCH  19  20
ATOM     20  C   UNL     1       1.995   7.306  19.653  0.00  0.00    +0.000 A 
ATOM     21  C   UNL     1       2.517   7.417  18.359  0.00  0.00    +0.000 A 
ATOM     22  C   UNL     1       2.428   8.629  17.667  0.00  0.00    +0.000 A 
ATOM     23  C   UNL     1       1.757   9.719  18.239  0.00  0.00    +0.000 A 
ATOM     24  C   UNL     1       1.129   9.582  19.491  0.00  0.00    +0.000 A 
ATOM     25  C   UNL     1       1.311   8.388  20.214  0.00  0.00    +0.000 A 
BRANCH  24  26
ATOM     26  C   UNL     1       0.094  10.576  19.978  0.00  0.00    +0.000 C 
ATOM     27  F   UNL     1       0.260  11.831  19.469  0.00  0.00    +0.000 F 
ATOM     28  F   UNL     1      -1.171  10.207  19.626  0.00  0.00    +0.000 F 
ATOM     29  F   UNL     1       0.071  10.713  21.329  0.00  0.00    +0.000 F 
ENDBRANCH  24  26
ENDBRANCH  19  20
ENDBRANCH  17  18
ENDBRANCH  16  17
ENDBRANCH   1  16
TORSDOF 9
ENDMDL
