MODEL 1
REMARK VINA RESULT:      -6.5      0.000      0.000
REMARK  Name = 
REMARK  7 active torsions:
REMARK  status: ('A' for Active; 'I' for Inactive)
REMARK    1  A    between atoms: C_1  and  C_2
REMARK    2  A    between atoms: C_2  and  C_3
REMARK    3  A    between atoms: C_2  and  C_4
REMARK    4  A    between atoms: C_5  and  C_6
REMARK    5  A    between atoms: C_6  and  O_7
REMARK    6  A    between atoms: N_10  and  C_11
REMARK    7  A    between atoms: C_15  and  N_16
REMARK                            x       y       z     vdW  Elec       q    Type
REMARK                         _______ _______ _______ _____ _____    ______ ____
ROOT
ATOM      1  C   UNL     1       2.631   4.139  19.264  0.00  0.00    +0.000 A 
ATOM      2  C   UNL     1       3.338   3.239  18.452  0.00  0.00    +0.000 A 
ATOM      3  C   UNL     1       4.159   4.032  17.585  0.00  0.00    +0.000 A 
ATOM      4  C   UNL     1       3.924   5.367  17.878  0.00  0.00    +0.000 A 
ATOM      5  N   UNL     1       2.977   5.427  18.878  0.00  0.00    +0.000 N 
ATOM      6  C   UNL     1       2.415   6.647  19.420  0.00  0.00    +0.000 C 
ATOM      7  C   UNL     1       4.595   6.442  17.186  0.00  0.00    +0.000 C 
ATOM      8  O   UNL     1       4.434   7.641  17.388  0.00  0.00    +0.000 OA
ATOM      9  C   UNL     1       5.572   6.033  16.144  0.00  0.00    +0.000 C 
ATOM     10  C   UNL     1       5.841   4.752  15.830  0.00  0.00    +0.000 C 
ATOM     11  C   UNL     1       5.088   3.629  16.538  0.00  0.00    +0.000 C 
ATOM     12  O   UNL     1       5.232   2.457  16.206  0.00  0.00    +0.000 OA
ENDROOT
BRANCH   1  14
ATOM     13  C   UNL     1       0.451   2.948  19.877  0.00  0.00    +0.000 C 
ATOM     14  C   UNL     1       1.643   3.765  20.365  0.00  0.00    +0.000 C 
ATOM     15  C   UNL     1       2.308   3.148  21.593  0.00  0.00    +0.000 C 
ENDBRANCH   1  14
BRANCH  10  16
ATOM     16  N   UNL     1       6.756   4.261  14.895  0.00  0.00    +0.000 N 
ATOM     17  C   UNL     1       6.277   3.986  13.539  0.00  0.00    +0.000 C 
ATOM     18  C   UNL     1       7.279   5.070  13.800  0.00  0.00    +0.000 C 
ENDBRANCH  10  16
BRANCH   2  19
ATOM     19  C   UNL     1       3.171   1.739  18.554  0.00  0.00    +0.000 C 
BRANCH  19  20
ATOM     20  O   UNL     1       4.325   0.919  18.520  0.00  0.00    +0.000 OA
ATOM     21  H   UNL     1       4.897   1.186  17.774  0.00  0.00    +0.000 HD
ENDBRANCH  19  20
ENDBRANCH   2  19
TORSDOF 4
ENDMDL
MODEL 2
REMARK VINA RESULT:      -6.2      2.371      6.261
REMARK  Name = 
REMARK  7 active torsions:
REMARK  status: ('A' for Active; 'I' for Inactive)
REMARK    1  A    between atoms: C_1  and  C_2
REMARK    2  A    between atoms: C_2  and  C_3
REMARK    3  A    between atoms: C_2  and  C_4
REMARK    4  A    between atoms: C_5  and  C_6
REMARK    5  A    between atoms: C_6  and  O_7
REMARK    6  A    between atoms: N_10  and  C_11
REMARK    7  A    between atoms: C_15  and  N_16
REMARK                            x       y       z     vdW  Elec       q    Type
REMARK                         _______ _______ _______ _____ _____    ______ ____
ROOT
ATOM      1  C   UNL     1       4.804   4.730  17.708  0.00  0.00    +0.000 A 
ATOM      2  C   UNL     1       4.366   6.058  17.581  0.00  0.00    +0.000 A 
ATOM      3  C   UNL     1       3.415   6.274  18.632  0.00  0.00    +0.000 A 
ATOM      4  C   UNL     1       3.294   5.091  19.347  0.00  0.00    +0.000 A 
ATOM      5  N   UNL     1       4.118   4.151  18.767  0.00  0.00    +0.000 N 
ATOM      6  C   UNL     1       4.227   2.769  19.185  0.00  0.00    +0.000 C 
ATOM      7  C   UNL     1       2.413   4.961  20.485  0.00  0.00    +0.000 C 
ATOM      8  O   UNL     1       2.252   3.950  21.159  0.00  0.00    +0.000 OA
ATOM      9  C   UNL     1       1.651   6.181  20.858  0.00  0.00    +0.000 C 
ATOM     10  C   UNL     1       1.740   7.352  20.201  0.00  0.00    +0.000 C 
ATOM     11  C   UNL     1       2.640   7.459  18.972  0.00  0.00    +0.000 C 
ATOM     12  O   UNL     1       2.668   8.478  18.290  0.00  0.00    +0.000 OA
ENDROOT
BRANCH   1  14
ATOM     13  C   UNL     1       5.518   4.093  15.335  0.00  0.00    +0.000 C 
ATOM     14  C   UNL     1       5.841   4.042  16.825  0.00  0.00    +0.000 C 
ATOM     15  C   UNL     1       7.275   4.472  17.126  0.00  0.00    +0.000 C 
ENDBRANCH   1  14
BRANCH  10  16
ATOM     16  N   UNL     1       1.096   8.558  20.485  0.00  0.00    +0.000 N 
ATOM     17  C   UNL     1      -0.060   8.529  21.383  0.00  0.00    +0.000 C 
ATOM     18  C   UNL     1       1.206   9.229  21.775  0.00  0.00    +0.000 C 
ENDBRANCH  10  16
BRANCH   2  19
ATOM     19  C   UNL     1       4.863   6.984  16.493  0.00  0.00    +0.000 C 
BRANCH  19  20
ATOM     20  O   UNL     1       6.163   7.533  16.605  0.00  0.00    +0.000 OA
ATOM     21  H   UNL     1       6.191   8.405  16.165  0.00  0.00    +0.000 HD
ENDBRANCH  19  20
ENDBRANCH   2  19
TORSDOF 4
ENDMDL
MODEL 3
REMARK VINA RESULT:      -6.1      2.483      5.031
REMARK  Name = 
REMARK  7 active torsions:
REMARK  status: ('A' for Active; 'I' for Inactive)
REMARK    1  A    between atoms: C_1  and  C_2
REMARK    2  A    between atoms: C_2  and  C_3
REMARK    3  A    between atoms: C_2  and  C_4
REMARK    4  A    between atoms: C_5  and  C_6
REMARK    5  A    between atoms: C_6  and  O_7
REMARK    6  A    between atoms: N_10  and  C_11
REMARK    7  A    between atoms: C_15  and  N_16
REMARK                            x       y       z     vdW  Elec       q    Type
REMARK                         _______ _______ _______ _____ _____    ______ ____
ROOT
ATOM      1  C   UNL     1       3.387   3.716  19.240  0.00  0.00    +0.000 A 
ATOM      2  C   UNL     1       2.543   4.544  19.997  0.00  0.00    +0.000 A 
ATOM      3  C   UNL     1       2.590   5.840  19.388  0.00  0.00    +0.000 A 
ATOM      4  C   UNL     1       3.456   5.771  18.306  0.00  0.00    +0.000 A 
ATOM      5  N   UNL     1       3.957   4.489  18.237  0.00  0.00    +0.000 N 
ATOM      6  C   UNL     1       4.944   4.031  17.281  0.00  0.00    +0.000 C 
ATOM      7  C   UNL     1       3.735   6.911  17.463  0.00  0.00    +0.000 C 
ATOM      8  O   UNL     1       4.490   6.925  16.496  0.00  0.00    +0.000 OA
ATOM      9  C   UNL     1       3.022   8.166  17.813  0.00  0.00    +0.000 C 
ATOM     10  C   UNL     1       2.167   8.281  18.846  0.00  0.00    +0.000 C 
ATOM     11  C   UNL     1       1.921   7.080  19.756  0.00  0.00    +0.000 C 
ATOM     12  O   UNL     1       1.229   7.176  20.765  0.00  0.00    +0.000 OA
ENDROOT
BRANCH   1  14
ATOM     13  C   UNL     1       3.578   1.373  18.231  0.00  0.00    +0.000 C 
ATOM     14  C   UNL     1       3.645   2.233  19.489  0.00  0.00    +0.000 C 
ATOM     15  C   UNL     1       4.902   1.965  20.313  0.00  0.00    +0.000 C 
ENDBRANCH   1  14
BRANCH  10  16
ATOM     16  N   UNL     1       1.428   9.398  19.242  0.00  0.00    +0.000 N 
ATOM     17  C   UNL     1       1.623  10.650  18.508  0.00  0.00    +0.000 C 
ATOM     18  C   UNL     1       0.312   9.924  18.463  0.00  0.00    +0.000 C 
ENDBRANCH  10  16
BRANCH   2  19
ATOM     19  C   UNL     1       1.788   4.051  21.212  0.00  0.00    +0.000 C 
BRANCH  19  20
ATOM     20  O   UNL     1       0.739   3.117  21.033  0.00  0.00    +0.000 OA
ATOM     21  H   UNL     1       0.261   3.314  20.204  0.00  0.00    +0.000 HD
ENDBRANCH  19  20
ENDBRANCH   2  19
TORSDOF 4
ENDMDL
MODEL 4
REMARK VINA RESULT:      -5.7      2.332      5.774
REMARK  Name = 
REMARK  7 active torsions:
REMARK  status: ('A' for Active; 'I' for Inactive)
REMARK    1  A    between atoms: C_1  and  C_2
REMARK    2  A    between atoms: C_2  and  C_3
REMARK    3  A    between atoms: C_2  and  C_4
REMARK    4  A    between atoms: C_5  and  C_6
REMARK    5  A    between atoms: C_6  and  O_7
REMARK    6  A    between atoms: N_10  and  C_11
REMARK    7  A    between atoms: C_15  and  N_16
REMARK                            x       y       z     vdW  Elec       q    Type
REMARK                         _______ _______ _______ _____ _____    ______ ____
ROOT
ATOM      1  C   UNL     1       4.788   5.100  17.417  0.00  0.00    +0.000 A 
ATOM      2  C   UNL     1       4.173   4.807  18.644  0.00  0.00    +0.000 A 
ATOM      3  C   UNL     1       3.355   5.938  18.971  0.00  0.00    +0.000 A 
ATOM      4  C   UNL     1       3.502   6.876  17.959  0.00  0.00    +0.000 A 
ATOM      5  N   UNL     1       4.392   6.375  17.033  0.00  0.00    +0.000 N 
ATOM      6  C   UNL     1       4.858   7.082  15.859  0.00  0.00    +0.000 C 
ATOM      7  C   UNL     1       2.810   8.144  17.972  0.00  0.00    +0.000 C 
ATOM      8  O   UNL     1       2.895   9.020  17.118  0.00  0.00    +0.000 OA
ATOM      9  C   UNL     1       1.911   8.380  19.131  0.00  0.00    +0.000 C 
ATOM     10  C   UNL     1       1.728   7.499  20.131  0.00  0.00    +0.000 C 
ATOM     11  C   UNL     1       2.504   6.184  20.127  0.00  0.00    +0.000 C 
ATOM     12  O   UNL     1       2.441   5.403  21.071  0.00  0.00    +0.000 OA
ENDROOT
BRANCH   1  14
ATOM     13  C   UNL     1       5.395   4.038  15.171  0.00  0.00    +0.000 C 
ATOM     14  C   UNL     1       5.737   4.184  16.650  0.00  0.00    +0.000 C 
ATOM     15  C   UNL     1       7.211   4.509  16.879  0.00  0.00    +0.000 C 
ENDBRANCH   1  14
BRANCH  10  16
ATOM     16  N   UNL     1       0.890   7.608  21.243  0.00  0.00    +0.000 N 
ATOM     17  C   UNL     1       1.050   8.773  22.117  0.00  0.00    +0.000 C 
ATOM     18  C   UNL     1      -0.203   8.571  21.318  0.00  0.00    +0.000 C 
ENDBRANCH  10  16
BRANCH   2  19
ATOM     19  C   UNL     1       4.415   3.515  19.393  0.00  0.00    +0.000 C 
BRANCH  19  20
ATOM     20  O   UNL     1       3.301   2.774  19.855  0.00  0.00    +0.000 OA
ATOM     21  H   UNL     1       2.671   3.371  20.303  0.00  0.00    +0.000 HD
ENDBRANCH  19  20
ENDBRANCH   2  19
TORSDOF 4
ENDMDL
MODEL 5
REMARK VINA RESULT:      -5.6      2.407      2.771
REMARK  Name = 
REMARK  7 active torsions:
REMARK  status: ('A' for Active; 'I' for Inactive)
REMARK    1  A    between atoms: C_1  and  C_2
REMARK    2  A    between atoms: C_2  and  C_3
REMARK    3  A    between atoms: C_2  and  C_4
REMARK    4  A    between atoms: C_5  and  C_6
REMARK    5  A    between atoms: C_6  and  O_7
REMARK    6  A    between atoms: N_10  and  C_11
REMARK    7  A    between atoms: C_15  and  N_16
REMARK                            x       y       z     vdW  Elec       q    Type
REMARK                         _______ _______ _______ _____ _____    ______ ____
ROOT
ATOM      1  C   UNL     1       2.839   3.446  19.327  0.00  0.00    +0.000 A 
ATOM      2  C   UNL     1       4.239   3.347  19.300  0.00  0.00    +0.000 A 
ATOM      3  C   UNL     1       4.721   4.563  18.713  0.00  0.00    +0.000 A 
ATOM      4  C   UNL     1       3.622   5.347  18.393  0.00  0.00    +0.000 A 
ATOM      5  N   UNL     1       2.483   4.655  18.743  0.00  0.00    +0.000 N 
ATOM      6  C   UNL     1       1.128   5.110  18.511  0.00  0.00    +0.000 C 
ATOM      7  C   UNL     1       3.752   6.650  17.783  0.00  0.00    +0.000 C 
ATOM      8  O   UNL     1       2.829   7.394  17.470  0.00  0.00    +0.000 OA
ATOM      9  C   UNL     1       5.141   7.113  17.531  0.00  0.00    +0.000 C 
ATOM     10  C   UNL     1       6.238   6.394  17.831  0.00  0.00    +0.000 C 
ATOM     11  C   UNL     1       6.082   4.999  18.431  0.00  0.00    +0.000 C 
ATOM     12  O   UNL     1       7.054   4.274  18.622  0.00  0.00    +0.000 OA
ENDROOT
BRANCH   1  14
ATOM     13  C   UNL     1       1.345   2.729  21.277  0.00  0.00    +0.000 C 
ATOM     14  C   UNL     1       1.879   2.400  19.886  0.00  0.00    +0.000 C 
ATOM     15  C   UNL     1       0.769   2.013  18.912  0.00  0.00    +0.000 C 
ENDBRANCH   1  14
BRANCH  10  16
ATOM     16  N   UNL     1       7.579   6.745  17.665  0.00  0.00    +0.000 N 
ATOM     17  C   UNL     1       7.911   8.166  17.538  0.00  0.00    +0.000 C 
ATOM     18  C   UNL     1       8.371   7.367  18.720  0.00  0.00    +0.000 C 
ENDBRANCH  10  16
BRANCH   2  19
ATOM     19  C   UNL     1       4.984   2.133  19.809  0.00  0.00    +0.000 C 
BRANCH  19  20
ATOM     20  O   UNL     1       5.000   1.876  21.201  0.00  0.00    +0.000 OA
ATOM     21  H   UNL     1       5.207   0.934  21.360  0.00  0.00    +0.000 HD
ENDBRANCH  19  20
ENDBRANCH   2  19
TORSDOF 4
ENDMDL
MODEL 6
REMARK VINA RESULT:      -5.6      4.806      7.337
REMARK  Name = 
REMARK  7 active torsions:
REMARK  status: ('A' for Active; 'I' for Inactive)
REMARK    1  A    between atoms: C_1  and  C_2
REMARK    2  A    between atoms: C_2  and  C_3
REMARK    3  A    between atoms: C_2  and  C_4
REMARK    4  A    between atoms: C_5  and  C_6
REMARK    5  A    between atoms: C_6  and  O_7
REMARK    6  A    between atoms: N_10  and  C_11
REMARK    7  A    between atoms: C_15  and  N_16
REMARK                            x       y       z     vdW  Elec       q    Type
REMARK                         _______ _______ _______ _____ _____    ______ ____
ROOT
ATOM      1  C   UNL     1      -0.151  11.062  20.931  0.00  0.00    +0.000 A 
ATOM      2  C   UNL     1       0.140   9.772  21.402  0.00  0.00    +0.000 A 
ATOM      3  C   UNL     1       0.947   9.145  20.398  0.00  0.00    +0.000 A 
ATOM      4  C   UNL     1       1.112  10.048  19.357  0.00  0.00    +0.000 A 
ATOM      5  N   UNL     1       0.423  11.199  19.673  0.00  0.00    +0.000 N 
ATOM      6  C   UNL     1       0.297  12.357  18.813  0.00  0.00    +0.000 C 
ATOM      7  C   UNL     1       1.881   9.735  18.175  0.00  0.00    +0.000 C 
ATOM      8  O   UNL     1       2.065  10.479  17.217  0.00  0.00    +0.000 OA
ATOM      9  C   UNL     1       2.504   8.387  18.144  0.00  0.00    +0.000 C 
ATOM     10  C   UNL     1       2.381   7.481  19.131  0.00  0.00    +0.000 C 
ATOM     11  C   UNL     1       1.525   7.809  20.352  0.00  0.00    +0.000 C 
ATOM     12  O   UNL     1       1.307   6.971  21.221  0.00  0.00    +0.000 OA
ENDROOT
BRANCH   1  14
ATOM     13  C   UNL     1      -0.165  13.357  22.062  0.00  0.00    +0.000 C 
ATOM     14  C   UNL     1      -0.967  12.121  21.667  0.00  0.00    +0.000 C 
ATOM     15  C   UNL     1      -2.276  12.474  20.965  0.00  0.00    +0.000 C 
ENDBRANCH   1  14
BRANCH  10  16
ATOM     16  N   UNL     1       2.946   6.206  19.215  0.00  0.00    +0.000 N 
ATOM     17  C   UNL     1       2.494   5.186  18.266  0.00  0.00    +0.000 C 
ATOM     18  C   UNL     1       3.903   5.699  18.238  0.00  0.00    +0.000 C 
ENDBRANCH  10  16
BRANCH   2  19
ATOM     19  C   UNL     1      -0.370   9.251  22.727  0.00  0.00    +0.000 C 
BRANCH  19  20
ATOM     20  O   UNL     1       0.301   9.630  23.915  0.00  0.00    +0.000 OA
ATOM     21  H   UNL     1       1.218   9.895  23.704  0.00  0.00    +0.000 HD
ENDBRANCH  19  20
ENDBRANCH   2  19
TORSDOF 4
ENDMDL
MODEL 7
REMARK VINA RESULT:      -5.4      7.264     11.148
REMARK  Name = 
REMARK  7 active torsions:
REMARK  status: ('A' for Active; 'I' for Inactive)
REMARK    1  A    between atoms: C_1  and  C_2
REMARK    2  A    between atoms: C_2  and  C_3
REMARK    3  A    between atoms: C_2  and  C_4
REMARK    4  A    between atoms: C_5  and  C_6
REMARK    5  A    between atoms: C_6  and  O_7
REMARK    6  A    between atoms: N_10  and  C_11
REMARK    7  A    between atoms: C_15  and  N_16
REMARK                            x       y       z     vdW  Elec       q    Type
REMARK                         _______ _______ _______ _____ _____    ______ ____
ROOT
ATOM      1  C   UNL     1       0.304  10.679  19.297  0.00  0.00    +0.000 A 
ATOM      2  C   UNL     1      -0.788  11.559  19.259  0.00  0.00    +0.000 A 
ATOM      3  C   UNL     1      -1.281  11.655  20.602  0.00  0.00    +0.000 A 
ATOM      4  C   UNL     1      -0.498  10.836  21.402  0.00  0.00    +0.000 A 
ATOM      5  N   UNL     1       0.444  10.226  20.603  0.00  0.00    +0.000 N 
ATOM      6  C   UNL     1       1.410   9.246  21.054  0.00  0.00    +0.000 C 
ATOM      7  C   UNL     1      -0.723  10.699  22.823  0.00  0.00    +0.000 C 
ATOM      8  O   UNL     1      -0.076   9.992  23.590  0.00  0.00    +0.000 OA
ATOM      9  C   UNL     1      -1.838  11.504  23.384  0.00  0.00    +0.000 C 
ATOM     10  C   UNL     1      -2.618  12.319  22.651  0.00  0.00    +0.000 C 
ATOM     11  C   UNL     1      -2.399  12.416  21.143  0.00  0.00    +0.000 C 
ATOM     12  O   UNL     1      -3.155  13.067  20.430  0.00  0.00    +0.000 OA
ENDROOT
BRANCH   1  14
ATOM     13  C   UNL     1       2.425  11.134  17.941  0.00  0.00    +0.000 C 
ATOM     14  C   UNL     1       1.173  10.278  18.109  0.00  0.00    +0.000 C 
ATOM     15  C   UNL     1       1.477   8.783  18.056  0.00  0.00    +0.000 C 
ENDBRANCH   1  14
BRANCH  10  16
ATOM     16  N   UNL     1      -3.666  13.137  23.081  0.00  0.00    +0.000 N 
ATOM     17  C   UNL     1      -4.437  12.714  24.252  0.00  0.00    +0.000 C 
ATOM     18  C   UNL     1      -3.589  13.950  24.290  0.00  0.00    +0.000 C 
ENDBRANCH  10  16
BRANCH   2  19
ATOM     19  C   UNL     1      -1.270  12.211  17.982  0.00  0.00    +0.000 C 
BRANCH  19  20
ATOM     20  O   UNL     1      -2.637  12.099  17.631  0.00  0.00    +0.000 OA
ATOM     21  H   UNL     1      -2.780  12.473  16.740  0.00  0.00    +0.000 HD
ENDBRANCH  19  20
ENDBRANCH   2  19
TORSDOF 4
ENDMDL
MODEL 8
REMARK VINA RESULT:      -5.3      3.293      6.434
REMARK  Name = 
REMARK  7 active torsions:
REMARK  status: ('A' for Active; 'I' for Inactive)
REMARK    1  A    between atoms: C_1  and  C_2
REMARK    2  A    between atoms: C_2  and  C_3
REMARK    3  A    between atoms: C_2  and  C_4
REMARK    4  A    between atoms: C_5  and  C_6
REMARK    5  A    between atoms: C_6  and  O_7
REMARK    6  A    between atoms: N_10  and  C_11
REMARK    7  A    between atoms: C_15  and  N_16
REMARK                            x       y       z     vdW  Elec       q    Type
REMARK                         _______ _______ _______ _____ _____    ______ ____
ROOT
ATOM      1  C   UNL     1       3.278   5.638  18.907  0.00  0.00    +0.000 A 
ATOM      2  C   UNL     1       2.431   5.894  19.996  0.00  0.00    +0.000 A 
ATOM      3  C   UNL     1       1.913   7.217  19.807  0.00  0.00    +0.000 A 
ATOM      4  C   UNL     1       2.460   7.725  18.637  0.00  0.00    +0.000 A 
ATOM      5  N   UNL     1       3.306   6.774  18.109  0.00  0.00    +0.000 N 
ATOM      6  C   UNL     1       4.117   6.949  16.922  0.00  0.00    +0.000 C 
ATOM      7  C   UNL     1       2.145   9.046  18.145  0.00  0.00    +0.000 C 
ATOM      8  O   UNL     1       2.592   9.561  17.125  0.00  0.00    +0.000 OA
ATOM      9  C   UNL     1       1.182   9.830  18.961  0.00  0.00    +0.000 C 
ATOM     10  C   UNL     1       0.620   9.378  20.097  0.00  0.00    +0.000 C 
ATOM     11  C   UNL     1       1.000   7.999  20.629  0.00  0.00    +0.000 C 
ATOM     12  O   UNL     1       0.587   7.596  21.712  0.00  0.00    +0.000 OA
ENDROOT
BRANCH   1  14
ATOM     13  C   UNL     1       3.583   3.581  17.416  0.00  0.00    +0.000 C 
ATOM     14  C   UNL     1       4.045   4.343  18.654  0.00  0.00    +0.000 C 
ATOM     15  C   UNL     1       5.561   4.516  18.701  0.00  0.00    +0.000 C 
ENDBRANCH   1  14
BRANCH  10  16
ATOM     16  N   UNL     1      -0.313  10.017  20.918  0.00  0.00    +0.000 N 
ATOM     17  C   UNL     1       0.110  11.221  21.637  0.00  0.00    +0.000 C 
ATOM     18  C   UNL     1      -0.937  11.287  20.566  0.00  0.00    +0.000 C 
ENDBRANCH  10  16
BRANCH   2  19
ATOM     19  C   UNL     1       2.198   4.892  21.105  0.00  0.00    +0.000 C 
BRANCH  19  20
ATOM     20  O   UNL     1       1.248   3.861  20.906  0.00  0.00    +0.000 OA
ATOM     21  H   UNL     1       0.414   4.243  20.570  0.00  0.00    +0.000 HD
ENDBRANCH  19  20
ENDBRANCH   2  19
TORSDOF 4
ENDMDL
MODEL 9
REMARK VINA RESULT:      -5.2      1.896      4.319
REMARK  Name = 
REMARK  7 active torsions:
REMARK  status: ('A' for Active; 'I' for Inactive)
REMARK    1  A    between atoms: C_1  and  C_2
REMARK    2  A    between atoms: C_2  and  C_3
REMARK    3  A    between atoms: C_2  and  C_4
REMARK    4  A    between atoms: C_5  and  C_6
REMARK    5  A    between atoms: C_6  and  O_7
REMARK    6  A    between atoms: N_10  and  C_11
REMARK    7  A    between atoms: C_15  and  N_16
REMARK                            x       y       z     vdW  Elec       q    Type
REMARK                         _______ _______ _______ _____ _____    ______ ____
ROOT
ATOM      1  C   UNL     1       1.919   7.175  19.974  0.00  0.00    +0.000 A 
ATOM      2  C   UNL     1       2.578   7.667  18.837  0.00  0.00    +0.000 A 
ATOM      3  C   UNL     1       3.293   6.562  18.270  0.00  0.00    +0.000 A 
ATOM      4  C   UNL     1       3.065   5.452  19.070  0.00  0.00    +0.000 A 
ATOM      5  N   UNL     1       2.253   5.834  20.116  0.00  0.00    +0.000 N 
ATOM      6  C   UNL     1       1.838   4.975  21.205  0.00  0.00    +0.000 C 
ATOM      7  C   UNL     1       3.641   4.159  18.782  0.00  0.00    +0.000 C 
ATOM      8  O   UNL     1       3.487   3.138  19.444  0.00  0.00    +0.000 OA
ATOM      9  C   UNL     1       4.483   4.081  17.561  0.00  0.00    +0.000 C 
ATOM     10  C   UNL     1       4.727   5.126  16.749  0.00  0.00    +0.000 C 
ATOM     11  C   UNL     1       4.150   6.497  17.094  0.00  0.00    +0.000 C 
ATOM     12  O   UNL     1       4.435   7.493  16.436  0.00  0.00    +0.000 OA
ENDROOT
BRANCH   1  14
ATOM     13  C   UNL     1       1.750   8.725  22.002  0.00  0.00    +0.000 C 
ATOM     14  C   UNL     1       1.008   7.977  20.899  0.00  0.00    +0.000 C 
ATOM     15  C   UNL     1       0.019   8.869  20.152  0.00  0.00    +0.000 C 
ENDBRANCH   1  14
BRANCH  10  16
ATOM     16  N   UNL     1       5.474   5.155  15.570  0.00  0.00    +0.000 N 
ATOM     17  C   UNL     1       6.911   4.888  15.656  0.00  0.00    +0.000 C 
ATOM     18  C   UNL     1       5.993   3.949  14.933  0.00  0.00    +0.000 C 
ENDBRANCH  10  16
BRANCH   2  19
ATOM     19  C   UNL     1       2.486   9.113  18.399  0.00  0.00    +0.000 C 
BRANCH  19  20
ATOM     20  O   UNL     1       1.953   9.407  17.121  0.00  0.00    +0.000 OA
ATOM     21  H   UNL     1       2.560  10.003  16.640  0.00  0.00    +0.000 HD
ENDBRANCH  19  20
ENDBRANCH   2  19
TORSDOF 4
ENDMDL
