MODEL 1
REMARK VINA RESULT:      -9.4      0.000      0.000
REMARK  Name = 
REMARK  9 active torsions:
REMARK  status: ('A' for Active; 'I' for Inactive)
REMARK    1  A    between atoms: C_1  and  O_2
REMARK    2  A    between atoms: O_2  and  C_3
REMARK    3  A    between atoms: C_6  and  N_7
REMARK    4  A    between atoms: N_7  and  S_8
REMARK    5  A    between atoms: S_8  and  C_11
REMARK    6  A    between atoms: C_14  and  N_15
REMARK    7  A    between atoms: N_15  and  C_16
REMARK    8  A    between atoms: C_18  and  C_19
REMARK    9  A    between atoms: C_23  and  C_24
REMARK                            x       y       z     vdW  Elec       q    Type
REMARK                         _______ _______ _______ _____ _____    ______ ____
ROOT
ATOM      1  C   UNL     1       1.642   7.836  20.134  0.00  0.00    +0.000 A 
ATOM      2  C   UNL     1       1.719   6.519  20.585  0.00  0.00    +0.000 A 
ATOM      3  C   UNL     1       2.345   5.553  19.796  0.00  0.00    +0.000 A 
ATOM      4  C   UNL     1       2.864   5.877  18.533  0.00  0.00    +0.000 A 
ATOM      5  C   UNL     1       2.797   7.208  18.101  0.00  0.00    +0.000 A 
ATOM      6  C   UNL     1       2.169   8.188  18.885  0.00  0.00    +0.000 A 
ENDROOT
BRANCH   1   7
ATOM      7  S   UNL     1       0.820   9.048  21.149  0.00  0.00    +0.000 S 
ATOM      8  O   UNL     1       1.665   9.315  22.293  0.00  0.00    +0.000 OA
ATOM      9  O   UNL     1      -0.549   8.608  21.315  0.00  0.00    +0.000 OA
BRANCH   7  10
ATOM     10  N   UNL     1       0.752  10.425  20.181  0.00  0.00    +0.000 N 
ATOM     11  H   UNL     1       1.326  11.187  20.535  0.00  0.00    +0.000 HD
BRANCH  10  15
ATOM     12  C   UNL     1      -2.820  11.395  18.161  0.00  0.00    +0.000 A 
ATOM     13  C   UNL     1      -1.917  10.484  17.609  0.00  0.00    +0.000 A 
ATOM     14  C   UNL     1      -0.743  10.149  18.285  0.00  0.00    +0.000 A 
ATOM     15  C   UNL     1      -0.447  10.762  19.500  0.00  0.00    +0.000 A 
ATOM     16  C   UNL     1      -1.320  11.706  20.038  0.00  0.00    +0.000 A 
ATOM     17  C   UNL     1      -2.516  12.014  19.375  0.00  0.00    +0.000 A 
BRANCH  12  19
ATOM     18  C   UNL     1      -5.177  11.589  18.099  0.00  0.00    +0.000 C 
ATOM     19  O   UNL     1      -3.935  11.627  17.405  0.00  0.00    +0.000 OA
ENDBRANCH  12  19
ENDBRANCH  10  15
ENDBRANCH   7  10
ENDBRANCH   1   7
BRANCH   4  20
ATOM     20  N   UNL     1       3.556   4.916  17.741  0.00  0.00    +0.000 N 
ATOM     21  H   UNL     1       3.161   4.942  16.792  0.00  0.00    +0.000 HD
BRANCH  20  22
ATOM     22  C   UNL     1       4.958   4.928  17.668  0.00  0.00    +0.000 A 
ATOM     23  C   UNL     1       5.752   5.254  18.705  0.00  0.00    +0.000 A 
ATOM     24  C   UNL     1       7.221   5.299  18.447  0.00  0.00    +0.000 A 
ATOM     25  C   UNL     1       8.110   5.711  19.594  0.00  0.00    +0.000 C 
ATOM     26  N   UNL     1       7.787   5.026  17.310  0.00  0.00    +0.000 NA
ATOM     27  C   UNL     1       6.961   4.676  16.285  0.00  0.00    +0.000 A 
ATOM     28  N   UNL     1       7.270   4.381  15.044  0.00  0.00    +0.000 NA
ATOM     29  C   UNL     1       6.057   4.134  14.435  0.00  0.00    +0.000 A 
ATOM     30  N   UNL     1       4.993   4.264  15.257  0.00  0.00    +0.000 NA
ATOM     31  N   UNL     1       5.575   4.613  16.439  0.00  0.00    +0.000 N 
BRANCH  29  32
ATOM     32  C   UNL     1       5.957   3.754  12.972  0.00  0.00    +0.000 C 
ATOM     33  F   UNL     1       6.866   4.404  12.193  0.00  0.00    +0.000 F 
ATOM     34  F   UNL     1       6.163   2.423  12.772  0.00  0.00    +0.000 F 
ATOM     35  F   UNL     1       4.732   4.040  12.448  0.00  0.00    +0.000 F 
ENDBRANCH  29  32
ENDBRANCH  20  22
ENDBRANCH   4  20
TORSDOF 7
ENDMDL
MODEL 2
REMARK VINA RESULT:      -9.3      2.564      3.866
REMARK  Name = 
REMARK  9 active torsions:
REMARK  status: ('A' for Active; 'I' for Inactive)
REMARK    1  A    between atoms: C_1  and  O_2
REMARK    2  A    between atoms: O_2  and  C_3
REMARK    3  A    between atoms: C_6  and  N_7
REMARK    4  A    between atoms: N_7  and  S_8
REMARK    5  A    between atoms: S_8  and  C_11
REMARK    6  A    between atoms: C_14  and  N_15
REMARK    7  A    between atoms: N_15  and  C_16
REMARK    8  A    between atoms: C_18  and  C_19
REMARK    9  A    between atoms: C_23  and  C_24
REMARK                            x       y       z     vdW  Elec       q    Type
REMARK                         _______ _______ _______ _____ _____    ______ ____
ROOT
ATOM      1  C   UNL     1       0.612   9.938  19.715  0.00  0.00    +0.000 A 
ATOM      2  C   UNL     1       0.602   9.292  20.951  0.00  0.00    +0.000 A 
ATOM      3  C   UNL     1       1.356   8.132  21.131  0.00  0.00    +0.000 A 
ATOM      4  C   UNL     1       2.095   7.578  20.074  0.00  0.00    +0.000 A 
ATOM      5  C   UNL     1       2.111   8.249  18.843  0.00  0.00    +0.000 A 
ATOM      6  C   UNL     1       1.356   9.415  18.651  0.00  0.00    +0.000 A 
ENDROOT
BRANCH   1   7
ATOM      7  S   UNL     1      -0.375  11.406  19.503  0.00  0.00    +0.000 S 
ATOM      8  O   UNL     1       0.050  12.053  18.280  0.00  0.00    +0.000 OA
ATOM      9  O   UNL     1      -0.369  12.113  20.766  0.00  0.00    +0.000 OA
BRANCH   7  10
ATOM     10  N   UNL     1      -1.944  10.827  19.302  0.00  0.00    +0.000 N 
ATOM     11  H   UNL     1      -2.194  10.114  19.985  0.00  0.00    +0.000 HD
BRANCH  10  15
ATOM     12  C   UNL     1      -3.625  10.492  15.450  0.00  0.00    +0.000 A 
ATOM     13  C   UNL     1      -2.495   9.750  15.798  0.00  0.00    +0.000 A 
ATOM     14  C   UNL     1      -1.948   9.847  17.078  0.00  0.00    +0.000 A 
ATOM     15  C   UNL     1      -2.508  10.725  18.003  0.00  0.00    +0.000 A 
ATOM     16  C   UNL     1      -3.609  11.504  17.652  0.00  0.00    +0.000 A 
ATOM     17  C   UNL     1      -4.178  11.377  16.377  0.00  0.00    +0.000 A 
BRANCH  12  19
ATOM     18  C   UNL     1      -3.152   9.665  13.285  0.00  0.00    +0.000 C 
ATOM     19  O   UNL     1      -4.068  10.298  14.171  0.00  0.00    +0.000 OA
ENDBRANCH  12  19
ENDBRANCH  10  15
ENDBRANCH   7  10
ENDBRANCH   1   7
BRANCH   4  20
ATOM     20  N   UNL     1       2.914   6.427  20.257  0.00  0.00    +0.000 N 
ATOM     21  H   UNL     1       2.844   6.141  21.242  0.00  0.00    +0.000 HD
BRANCH  20  22
ATOM     22  C   UNL     1       2.762   5.304  19.428  0.00  0.00    +0.000 A 
ATOM     23  C   UNL     1       1.701   4.478  19.487  0.00  0.00    +0.000 A 
ATOM     24  C   UNL     1       1.724   3.281  18.595  0.00  0.00    +0.000 A 
ATOM     25  C   UNL     1       0.560   2.326  18.693  0.00  0.00    +0.000 C 
ATOM     26  N   UNL     1       2.675   2.993  17.758  0.00  0.00    +0.000 NA
ATOM     27  C   UNL     1       3.724   3.859  17.703  0.00  0.00    +0.000 A 
ATOM     28  N   UNL     1       4.812   3.789  16.972  0.00  0.00    +0.000 NA
ATOM     29  C   UNL     1       5.542   4.903  17.331  0.00  0.00    +0.000 A 
ATOM     30  N   UNL     1       4.946   5.672  18.268  0.00  0.00    +0.000 NA
ATOM     31  N   UNL     1       3.784   5.001  18.505  0.00  0.00    +0.000 N 
BRANCH  29  32
ATOM     32  C   UNL     1       6.892   5.209  16.715  0.00  0.00    +0.000 C 
ATOM     33  F   UNL     1       6.801   5.630  15.423  0.00  0.00    +0.000 F 
ATOM     34  F   UNL     1       7.554   6.188  17.390  0.00  0.00    +0.000 F 
ATOM     35  F   UNL     1       7.712   4.121  16.705  0.00  0.00    +0.000 F 
ENDBRANCH  29  32
ENDBRANCH  20  22
ENDBRANCH   4  20
TORSDOF 7
ENDMDL
MODEL 3
REMARK VINA RESULT:      -9.2      0.357      1.398
REMARK  Name = 
REMARK  9 active torsions:
REMARK  status: ('A' for Active; 'I' for Inactive)
REMARK    1  A    between atoms: C_1  and  O_2
REMARK    2  A    between atoms: O_2  and  C_3
REMARK    3  A    between atoms: C_6  and  N_7
REMARK    4  A    between atoms: N_7  and  S_8
REMARK    5  A    between atoms: S_8  and  C_11
REMARK    6  A    between atoms: C_14  and  N_15
REMARK    7  A    between atoms: N_15  and  C_16
REMARK    8  A    between atoms: C_18  and  C_19
REMARK    9  A    between atoms: C_23  and  C_24
REMARK                            x       y       z     vdW  Elec       q    Type
REMARK                         _______ _______ _______ _____ _____    ______ ____
ROOT
ATOM      1  C   UNL     1       1.617   7.979  20.071  0.00  0.00    +0.000 A 
ATOM      2  C   UNL     1       2.089   8.421  18.836  0.00  0.00    +0.000 A 
ATOM      3  C   UNL     1       2.726   7.524  17.978  0.00  0.00    +0.000 A 
ATOM      4  C   UNL     1       2.937   6.189  18.355  0.00  0.00    +0.000 A 
ATOM      5  C   UNL     1       2.441   5.754  19.591  0.00  0.00    +0.000 A 
ATOM      6  C   UNL     1       1.800   6.648  20.463  0.00  0.00    +0.000 A 
ENDROOT
BRANCH   1   7
ATOM      7  S   UNL     1       0.826   9.148  21.159  0.00  0.00    +0.000 S 
ATOM      8  O   UNL     1       1.734   9.417  22.254  0.00  0.00    +0.000 OA
ATOM      9  O   UNL     1      -0.517   8.667  21.400  0.00  0.00    +0.000 OA
BRANCH   7  10
ATOM     10  N   UNL     1       0.661  10.540  20.226  0.00  0.00    +0.000 N 
ATOM     11  H   UNL     1       1.265  11.299  20.536  0.00  0.00    +0.000 HD
BRANCH  10  15
ATOM     12  C   UNL     1      -3.070  11.588  18.566  0.00  0.00    +0.000 A 
ATOM     13  C   UNL     1      -2.612  12.208  19.731  0.00  0.00    +0.000 A 
ATOM     14  C   UNL     1      -1.370  11.874  20.271  0.00  0.00    +0.000 A 
ATOM     15  C   UNL     1      -0.599  10.882  19.669  0.00  0.00    +0.000 A 
ATOM     16  C   UNL     1      -1.066  10.226  18.532  0.00  0.00    +0.000 A 
ATOM     17  C   UNL     1      -2.299  10.589  17.970  0.00  0.00    +0.000 A 
BRANCH  12  19
ATOM     18  C   UNL     1      -5.235  10.989  17.823  0.00  0.00    +0.000 C 
ATOM     19  O   UNL     1      -4.297  12.012  18.135  0.00  0.00    +0.000 OA
ENDBRANCH  12  19
ENDBRANCH  10  15
ENDBRANCH   7  10
ENDBRANCH   1   7
BRANCH   4  20
ATOM     20  N   UNL     1       3.534   5.247  17.468  0.00  0.00    +0.000 N 
ATOM     21  H   UNL     1       3.155   5.413  16.527  0.00  0.00    +0.000 HD
BRANCH  20  22
ATOM     22  C   UNL     1       4.930   5.119  17.398  0.00  0.00    +0.000 A 
ATOM     23  C   UNL     1       5.754   5.414  18.422  0.00  0.00    +0.000 A 
ATOM     24  C   UNL     1       7.221   5.304  18.166  0.00  0.00    +0.000 A 
ATOM     25  C   UNL     1       8.148   5.680  19.295  0.00  0.00    +0.000 C 
ATOM     26  N   UNL     1       7.755   4.925  17.043  0.00  0.00    +0.000 NA
ATOM     27  C   UNL     1       6.898   4.611  16.033  0.00  0.00    +0.000 A 
ATOM     28  N   UNL     1       7.173   4.231  14.808  0.00  0.00    +0.000 NA
ATOM     29  C   UNL     1       5.941   4.075  14.208  0.00  0.00    +0.000 A 
ATOM     30  N   UNL     1       4.896   4.346  15.020  0.00  0.00    +0.000 NA
ATOM     31  N   UNL     1       5.512   4.690  16.187  0.00  0.00    +0.000 N 
BRANCH  29  32
ATOM     32  C   UNL     1       5.802   3.640  12.763  0.00  0.00    +0.000 C 
ATOM     33  F   UNL     1       6.050   2.312  12.584  0.00  0.00    +0.000 F 
ATOM     34  F   UNL     1       4.550   3.865  12.278  0.00  0.00    +0.000 F 
ATOM     35  F   UNL     1       6.662   4.303  11.941  0.00  0.00    +0.000 F 
ENDBRANCH  29  32
ENDBRANCH  20  22
ENDBRANCH   4  20
TORSDOF 7
ENDMDL
MODEL 4
REMARK VINA RESULT:      -9.2      2.535      3.886
REMARK  Name = 
REMARK  9 active torsions:
REMARK  status: ('A' for Active; 'I' for Inactive)
REMARK    1  A    between atoms: C_1  and  O_2
REMARK    2  A    between atoms: O_2  and  C_3
REMARK    3  A    between atoms: C_6  and  N_7
REMARK    4  A    between atoms: N_7  and  S_8
REMARK    5  A    between atoms: S_8  and  C_11
REMARK    6  A    between atoms: C_14  and  N_15
REMARK    7  A    between atoms: N_15  and  C_16
REMARK    8  A    between atoms: C_18  and  C_19
REMARK    9  A    between atoms: C_23  and  C_24
REMARK                            x       y       z     vdW  Elec       q    Type
REMARK                         _______ _______ _______ _____ _____    ______ ____
ROOT
ATOM      1  C   UNL     1       0.514   9.858  19.745  0.00  0.00    +0.000 A 
ATOM      2  C   UNL     1       1.289   9.425  18.670  0.00  0.00    +0.000 A 
ATOM      3  C   UNL     1       2.110   8.306  18.816  0.00  0.00    +0.000 A 
ATOM      4  C   UNL     1       2.200   7.630  20.043  0.00  0.00    +0.000 A 
ATOM      5  C   UNL     1       1.401   8.065  21.109  0.00  0.00    +0.000 A 
ATOM      6  C   UNL     1       0.573   9.190  20.974  0.00  0.00    +0.000 A 
ENDROOT
BRANCH   1   7
ATOM      7  S   UNL     1      -0.510  11.302  19.542  0.00  0.00    +0.000 S 
ATOM      8  O   UNL     1      -0.064  11.997  18.353  0.00  0.00    +0.000 OA
ATOM      9  O   UNL     1      -0.567  11.970  20.824  0.00  0.00    +0.000 OA
BRANCH   7  10
ATOM     10  N   UNL     1      -2.053  10.683  19.272  0.00  0.00    +0.000 N 
ATOM     11  H   UNL     1      -2.303   9.941  19.922  0.00  0.00    +0.000 HD
BRANCH  10  15
ATOM     12  C   UNL     1      -3.602  10.428  15.359  0.00  0.00    +0.000 A 
ATOM     13  C   UNL     1      -2.483   9.679  15.729  0.00  0.00    +0.000 A 
ATOM     14  C   UNL     1      -1.981   9.750  17.029  0.00  0.00    +0.000 A 
ATOM     15  C   UNL     1      -2.573  10.608  17.952  0.00  0.00    +0.000 A 
ATOM     16  C   UNL     1      -3.661  11.394  17.580  0.00  0.00    +0.000 A 
ATOM     17  C   UNL     1      -4.187  11.294  16.284  0.00  0.00    +0.000 A 
BRANCH  12  19
ATOM     18  C   UNL     1      -3.032   9.703  13.180  0.00  0.00    +0.000 C 
ATOM     19  O   UNL     1      -4.001  10.260  14.061  0.00  0.00    +0.000 OA
ENDBRANCH  12  19
ENDBRANCH  10  15
ENDBRANCH   7  10
ENDBRANCH   1   7
BRANCH   4  20
ATOM     20  N   UNL     1       2.989   6.454  20.192  0.00  0.00    +0.000 N 
ATOM     21  H   UNL     1       2.940   6.160  21.176  0.00  0.00    +0.000 HD
BRANCH  20  22
ATOM     22  C   UNL     1       2.779   5.344  19.358  0.00  0.00    +0.000 A 
ATOM     23  C   UNL     1       1.691   4.554  19.435  0.00  0.00    +0.000 A 
ATOM     24  C   UNL     1       1.651   3.365  18.534  0.00  0.00    +0.000 A 
ATOM     25  C   UNL     1       0.458   2.450  18.652  0.00  0.00    +0.000 C 
ATOM     26  N   UNL     1       2.571   3.051  17.671  0.00  0.00    +0.000 NA
ATOM     27  C   UNL     1       3.648   3.882  17.598  0.00  0.00    +0.000 A 
ATOM     28  N   UNL     1       4.715   3.781  16.840  0.00  0.00    +0.000 NA
ATOM     29  C   UNL     1       5.492   4.866  17.190  0.00  0.00    +0.000 A 
ATOM     30  N   UNL     1       4.946   5.647  18.147  0.00  0.00    +0.000 NA
ATOM     31  N   UNL     1       3.768   5.014  18.407  0.00  0.00    +0.000 N 
BRANCH  29  32
ATOM     32  C   UNL     1       6.837   5.131  16.544  0.00  0.00    +0.000 C 
ATOM     33  F   UNL     1       7.262   6.413  16.715  0.00  0.00    +0.000 F 
ATOM     34  F   UNL     1       7.816   4.332  17.051  0.00  0.00    +0.000 F 
ATOM     35  F   UNL     1       6.814   4.912  15.199  0.00  0.00    +0.000 F 
ENDBRANCH  29  32
ENDBRANCH  20  22
ENDBRANCH   4  20
TORSDOF 7
ENDMDL
MODEL 5
REMARK VINA RESULT:      -9.0      2.417      3.693
REMARK  Name = 
REMARK  9 active torsions:
REMARK  status: ('A' for Active; 'I' for Inactive)
REMARK    1  A    between atoms: C_1  and  O_2
REMARK    2  A    between atoms: O_2  and  C_3
REMARK    3  A    between atoms: C_6  and  N_7
REMARK    4  A    between atoms: N_7  and  S_8
REMARK    5  A    between atoms: S_8  and  C_11
REMARK    6  A    between atoms: C_14  and  N_15
REMARK    7  A    between atoms: N_15  and  C_16
REMARK    8  A    between atoms: C_18  and  C_19
REMARK    9  A    between atoms: C_23  and  C_24
REMARK                            x       y       z     vdW  Elec       q    Type
REMARK                         _______ _______ _______ _____ _____    ______ ____
ROOT
ATOM      1  C   UNL     1       0.853   9.832  19.307  0.00  0.00    +0.000 A 
ATOM      2  C   UNL     1       0.790   9.233  20.564  0.00  0.00    +0.000 A 
ATOM      3  C   UNL     1       1.500   8.056  20.806  0.00  0.00    +0.000 A 
ATOM      4  C   UNL     1       2.246   7.441  19.788  0.00  0.00    +0.000 A 
ATOM      5  C   UNL     1       2.316   8.065  18.535  0.00  0.00    +0.000 A 
ATOM      6  C   UNL     1       1.605   9.248  18.282  0.00  0.00    +0.000 A 
ENDROOT
BRANCH   1   7
ATOM      7  S   UNL     1      -0.079  11.323  19.017  0.00  0.00    +0.000 S 
ATOM      8  O   UNL     1       0.854  12.363  18.639  0.00  0.00    +0.000 OA
ATOM      9  O   UNL     1      -0.976  11.493  20.141  0.00  0.00    +0.000 OA
BRANCH   7  10
ATOM     10  N   UNL     1      -1.056  10.953  17.696  0.00  0.00    +0.000 N 
ATOM     11  H   UNL     1      -0.696  11.326  16.820  0.00  0.00    +0.000 HD
BRANCH  10  15
ATOM     12  C   UNL     1      -5.243  10.722  18.127  0.00  0.00    +0.000 A 
ATOM     13  C   UNL     1      -4.568  11.916  18.387  0.00  0.00    +0.000 A 
ATOM     14  C   UNL     1      -3.185  11.998  18.228  0.00  0.00    +0.000 A 
ATOM     15  C   UNL     1      -2.465  10.867  17.849  0.00  0.00    +0.000 A 
ATOM     16  C   UNL     1      -3.123   9.659  17.631  0.00  0.00    +0.000 A 
ATOM     17  C   UNL     1      -4.519   9.589  17.756  0.00  0.00    +0.000 A 
BRANCH  12  19
ATOM     18  C   UNL     1      -7.042  10.827  19.661  0.00  0.00    +0.000 C 
ATOM     19  O   UNL     1      -6.598  10.777  18.310  0.00  0.00    +0.000 OA
ENDBRANCH  12  19
ENDBRANCH  10  15
ENDBRANCH   7  10
ENDBRANCH   1   7
BRANCH   4  20
ATOM     20  N   UNL     1       3.022   6.271  20.033  0.00  0.00    +0.000 N 
ATOM     21  H   UNL     1       2.930   6.032  21.029  0.00  0.00    +0.000 HD
BRANCH  20  22
ATOM     22  C   UNL     1       2.840   5.118  19.253  0.00  0.00    +0.000 A 
ATOM     23  C   UNL     1       1.757   4.324  19.344  0.00  0.00    +0.000 A 
ATOM     24  C   UNL     1       1.747   3.090  18.505  0.00  0.00    +0.000 A 
ATOM     25  C   UNL     1       0.557   2.173  18.641  0.00  0.00    +0.000 C 
ATOM     26  N   UNL     1       2.691   2.740  17.683  0.00  0.00    +0.000 NA
ATOM     27  C   UNL     1       3.764   3.574  17.594  0.00  0.00    +0.000 A 
ATOM     28  N   UNL     1       4.850   3.442  16.870  0.00  0.00    +0.000 NA
ATOM     29  C   UNL     1       5.611   4.550  17.182  0.00  0.00    +0.000 A 
ATOM     30  N   UNL     1       5.035   5.375  18.084  0.00  0.00    +0.000 NA
ATOM     31  N   UNL     1       3.855   4.747  18.346  0.00  0.00    +0.000 N 
BRANCH  29  32
ATOM     32  C   UNL     1       6.970   4.792  16.557  0.00  0.00    +0.000 C 
ATOM     33  F   UNL     1       7.989   4.245  17.278  0.00  0.00    +0.000 F 
ATOM     34  F   UNL     1       7.060   4.263  15.306  0.00  0.00    +0.000 F 
ATOM     35  F   UNL     1       7.254   6.119  16.440  0.00  0.00    +0.000 F 
ENDBRANCH  29  32
ENDBRANCH  20  22
ENDBRANCH   4  20
TORSDOF 7
ENDMDL
MODEL 6
REMARK VINA RESULT:      -9.0      2.898      4.135
REMARK  Name = 
REMARK  9 active torsions:
REMARK  status: ('A' for Active; 'I' for Inactive)
REMARK    1  A    between atoms: C_1  and  O_2
REMARK    2  A    between atoms: O_2  and  C_3
REMARK    3  A    between atoms: C_6  and  N_7
REMARK    4  A    between atoms: N_7  and  S_8
REMARK    5  A    between atoms: S_8  and  C_11
REMARK    6  A    between atoms: C_14  and  N_15
REMARK    7  A    between atoms: N_15  and  C_16
REMARK    8  A    between atoms: C_18  and  C_19
REMARK    9  A    between atoms: C_23  and  C_24
REMARK                            x       y       z     vdW  Elec       q    Type
REMARK                         _______ _______ _______ _____ _____    ______ ____
ROOT
ATOM      1  C   UNL     1       0.699   9.825  19.407  0.00  0.00    +0.000 A 
ATOM      2  C   UNL     1       0.687   9.204  20.656  0.00  0.00    +0.000 A 
ATOM      3  C   UNL     1       1.453   8.057  20.865  0.00  0.00    +0.000 A 
ATOM      4  C   UNL     1       2.206   7.491  19.824  0.00  0.00    +0.000 A 
ATOM      5  C   UNL     1       2.223   8.136  18.580  0.00  0.00    +0.000 A 
ATOM      6  C   UNL     1       1.455   9.290  18.359  0.00  0.00    +0.000 A 
ENDROOT
BRANCH   1   7
ATOM      7  S   UNL     1      -0.304  11.276  19.158  0.00  0.00    +0.000 S 
ATOM      8  O   UNL     1      -1.657  10.839  18.887  0.00  0.00    +0.000 OA
ATOM      9  O   UNL     1       0.406  12.134  18.233  0.00  0.00    +0.000 OA
BRANCH   7  10
ATOM     10  N   UNL     1      -0.269  12.067  20.645  0.00  0.00    +0.000 N 
ATOM     11  H   UNL     1       0.598  11.913  21.156  0.00  0.00    +0.000 HD
BRANCH  10  15
ATOM     12  C   UNL     1      -3.793  12.552  22.909  0.00  0.00    +0.000 A 
ATOM     13  C   UNL     1      -2.709  11.840  23.427  0.00  0.00    +0.000 A 
ATOM     14  C   UNL     1      -1.536  11.694  22.686  0.00  0.00    +0.000 A 
ATOM     15  C   UNL     1      -1.461  12.225  21.400  0.00  0.00    +0.000 A 
ATOM     16  C   UNL     1      -2.553  12.898  20.856  0.00  0.00    +0.000 A 
ATOM     17  C   UNL     1      -3.718  13.075  21.618  0.00  0.00    +0.000 A 
BRANCH  12  19
ATOM     18  C   UNL     1      -5.626  13.839  23.670  0.00  0.00    +0.000 C 
ATOM     19  O   UNL     1      -4.876  12.632  23.740  0.00  0.00    +0.000 OA
ENDBRANCH  12  19
ENDBRANCH  10  15
ENDBRANCH   7  10
ENDBRANCH   1   7
BRANCH   4  20
ATOM     20  N   UNL     1       3.037   6.354  20.036  0.00  0.00    +0.000 N 
ATOM     21  H   UNL     1       3.004   6.118  21.036  0.00  0.00    +0.000 HD
BRANCH  20  22
ATOM     22  C   UNL     1       2.861   5.189  19.272  0.00  0.00    +0.000 A 
ATOM     23  C   UNL     1       1.778   4.395  19.369  0.00  0.00    +0.000 A 
ATOM     24  C   UNL     1       1.775   3.148  18.548  0.00  0.00    +0.000 A 
ATOM     25  C   UNL     1       0.585   2.232  18.690  0.00  0.00    +0.000 C 
ATOM     26  N   UNL     1       2.724   2.787  17.736  0.00  0.00    +0.000 NA
ATOM     27  C   UNL     1       3.796   3.621  17.641  0.00  0.00    +0.000 A 
ATOM     28  N   UNL     1       4.886   3.481  16.925  0.00  0.00    +0.000 NA
ATOM     29  C   UNL     1       5.644   4.593  17.226  0.00  0.00    +0.000 A 
ATOM     30  N   UNL     1       5.062   5.432  18.111  0.00  0.00    +0.000 NA
ATOM     31  N   UNL     1       3.881   4.806  18.376  0.00  0.00    +0.000 N 
BRANCH  29  32
ATOM     32  C   UNL     1       7.006   4.828  16.604  0.00  0.00    +0.000 C 
ATOM     33  F   UNL     1       7.323   6.149  16.506  0.00  0.00    +0.000 F 
ATOM     34  F   UNL     1       8.005   4.248  17.325  0.00  0.00    +0.000 F 
ATOM     35  F   UNL     1       7.091   4.320  15.343  0.00  0.00    +0.000 F 
ENDBRANCH  29  32
ENDBRANCH  20  22
ENDBRANCH   4  20
TORSDOF 7
ENDMDL
MODEL 7
REMARK VINA RESULT:      -8.9      2.817      4.054
REMARK  Name = 
REMARK  9 active torsions:
REMARK  status: ('A' for Active; 'I' for Inactive)
REMARK    1  A    between atoms: C_1  and  O_2
REMARK    2  A    between atoms: O_2  and  C_3
REMARK    3  A    between atoms: C_6  and  N_7
REMARK    4  A    between atoms: N_7  and  S_8
REMARK    5  A    between atoms: S_8  and  C_11
REMARK    6  A    between atoms: C_14  and  N_15
REMARK    7  A    between atoms: N_15  and  C_16
REMARK    8  A    between atoms: C_18  and  C_19
REMARK    9  A    between atoms: C_23  and  C_24
REMARK                            x       y       z     vdW  Elec       q    Type
REMARK                         _______ _______ _______ _____ _____    ______ ____
ROOT
ATOM      1  C   UNL     1       0.764  10.169  20.035  0.00  0.00    +0.000 A 
ATOM      2  C   UNL     1       0.958  10.295  18.661  0.00  0.00    +0.000 A 
ATOM      3  C   UNL     1       1.544   9.249  17.946  0.00  0.00    +0.000 A 
ATOM      4  C   UNL     1       1.981   8.085  18.597  0.00  0.00    +0.000 A 
ATOM      5  C   UNL     1       1.762   7.964  19.976  0.00  0.00    +0.000 A 
ATOM      6  C   UNL     1       1.175   9.010  20.704  0.00  0.00    +0.000 A 
ENDROOT
BRANCH   1   7
ATOM      7  S   UNL     1       0.034  11.526  20.930  0.00  0.00    +0.000 S 
ATOM      8  O   UNL     1       1.108  12.299  21.516  0.00  0.00    +0.000 OA
ATOM      9  O   UNL     1      -1.027  10.979  21.747  0.00  0.00    +0.000 OA
BRANCH   7  10
ATOM     10  N   UNL     1      -0.723  12.449  19.741  0.00  0.00    +0.000 N 
ATOM     11  H   UNL     1      -0.349  13.393  19.674  0.00  0.00    +0.000 HD
BRANCH  10  15
ATOM     12  C   UNL     1      -4.823  11.927  18.906  0.00  0.00    +0.000 A 
ATOM     13  C   UNL     1      -4.413  12.680  20.009  0.00  0.00    +0.000 A 
ATOM     14  C   UNL     1      -3.057  12.868  20.276  0.00  0.00    +0.000 A 
ATOM     15  C   UNL     1      -2.102  12.262  19.461  0.00  0.00    +0.000 A 
ATOM     16  C   UNL     1      -2.500  11.472  18.385  0.00  0.00    +0.000 A 
ATOM     17  C   UNL     1      -3.864  11.315  18.098  0.00  0.00    +0.000 A 
BRANCH  12  19
ATOM     18  C   UNL     1      -6.720  10.517  18.828  0.00  0.00    +0.000 C 
ATOM     19  O   UNL     1      -6.178  11.830  18.750  0.00  0.00    +0.000 OA
ENDBRANCH  12  19
ENDBRANCH  10  15
ENDBRANCH   7  10
ENDBRANCH   1   7
BRANCH   4  20
ATOM     20  N   UNL     1       2.528   6.986  17.874  0.00  0.00    +0.000 N 
ATOM     21  H   UNL     1       3.384   7.309  17.404  0.00  0.00    +0.000 HD
BRANCH  20  22
ATOM     22  C   UNL     1       2.776   5.762  18.516  0.00  0.00    +0.000 A 
ATOM     23  C   UNL     1       1.807   4.995  19.051  0.00  0.00    +0.000 A 
ATOM     24  C   UNL     1       2.239   3.762  19.772  0.00  0.00    +0.000 A 
ATOM     25  C   UNL     1       1.160   2.925  20.414  0.00  0.00    +0.000 C 
ATOM     26  N   UNL     1       3.470   3.365  19.901  0.00  0.00    +0.000 NA
ATOM     27  C   UNL     1       4.427   4.148  19.329  0.00  0.00    +0.000 A 
ATOM     28  N   UNL     1       5.729   3.991  19.335  0.00  0.00    +0.000 NA
ATOM     29  C   UNL     1       6.212   5.079  18.639  0.00  0.00    +0.000 A 
ATOM     30  N   UNL     1       5.251   5.918  18.195  0.00  0.00    +0.000 NA
ATOM     31  N   UNL     1       4.111   5.321  18.640  0.00  0.00    +0.000 N 
BRANCH  29  32
ATOM     32  C   UNL     1       7.696   5.291  18.410  0.00  0.00    +0.000 C 
ATOM     33  F   UNL     1       8.280   4.260  17.739  0.00  0.00    +0.000 F 
ATOM     34  F   UNL     1       7.947   6.414  17.682  0.00  0.00    +0.000 F 
ATOM     35  F   UNL     1       8.383   5.424  19.579  0.00  0.00    +0.000 F 
ENDBRANCH  29  32
ENDBRANCH  20  22
ENDBRANCH   4  20
TORSDOF 7
ENDMDL
MODEL 8
REMARK VINA RESULT:      -8.9      3.344      4.724
REMARK  Name = 
REMARK  9 active torsions:
REMARK  status: ('A' for Active; 'I' for Inactive)
REMARK    1  A    between atoms: C_1  and  O_2
REMARK    2  A    between atoms: O_2  and  C_3
REMARK    3  A    between atoms: C_6  and  N_7
REMARK    4  A    between atoms: N_7  and  S_8
REMARK    5  A    between atoms: S_8  and  C_11
REMARK    6  A    between atoms: C_14  and  N_15
REMARK    7  A    between atoms: N_15  and  C_16
REMARK    8  A    between atoms: C_18  and  C_19
REMARK    9  A    between atoms: C_23  and  C_24
REMARK                            x       y       z     vdW  Elec       q    Type
REMARK                         _______ _______ _______ _____ _____    ______ ____
ROOT
ATOM      1  C   UNL     1       0.416   9.760  19.559  0.00  0.00    +0.000 A 
ATOM      2  C   UNL     1       1.225   9.361  18.495  0.00  0.00    +0.000 A 
ATOM      3  C   UNL     1       2.092   8.279  18.654  0.00  0.00    +0.000 A 
ATOM      4  C   UNL     1       2.196   7.610  19.883  0.00  0.00    +0.000 A 
ATOM      5  C   UNL     1       1.364   8.009  20.938  0.00  0.00    +0.000 A 
ATOM      6  C   UNL     1       0.488   9.096  20.790  0.00  0.00    +0.000 A 
ENDROOT
BRANCH   1   7
ATOM      7  S   UNL     1      -0.668  11.156  19.340  0.00  0.00    +0.000 S 
ATOM      8  O   UNL     1      -0.685  11.903  20.579  0.00  0.00    +0.000 OA
ATOM      9  O   UNL     1      -1.892  10.660  18.747  0.00  0.00    +0.000 OA
BRANCH   7  10
ATOM     10  N   UNL     1       0.082  12.083  18.149  0.00  0.00    +0.000 N 
ATOM     11  H   UNL     1       0.362  11.535  17.338  0.00  0.00    +0.000 HD
BRANCH  10  15
ATOM     12  C   UNL     1       2.506  15.370  19.193  0.00  0.00    +0.000 A 
ATOM     13  C   UNL     1       3.059  14.094  19.063  0.00  0.00    +0.000 A 
ATOM     14  C   UNL     1       2.260  13.009  18.700  0.00  0.00    +0.000 A 
ATOM     15  C   UNL     1       0.892  13.191  18.510  0.00  0.00    +0.000 A 
ATOM     16  C   UNL     1       0.323  14.451  18.682  0.00  0.00    +0.000 A 
ATOM     17  C   UNL     1       1.134  15.547  19.011  0.00  0.00    +0.000 A 
BRANCH  12  19
ATOM     18  C   UNL     1       4.493  16.536  18.653  0.00  0.00    +0.000 C 
ATOM     19  O   UNL     1       3.397  16.348  19.541  0.00  0.00    +0.000 OA
ENDBRANCH  12  19
ENDBRANCH  10  15
ENDBRANCH   7  10
ENDBRANCH   1   7
BRANCH   4  20
ATOM     20  N   UNL     1       3.034   6.469  20.044  0.00  0.00    +0.000 N 
ATOM     21  H   UNL     1       3.028   6.208  21.039  0.00  0.00    +0.000 HD
BRANCH  20  22
ATOM     22  C   UNL     1       2.840   5.324  19.255  0.00  0.00    +0.000 A 
ATOM     23  C   UNL     1       1.781   4.503  19.387  0.00  0.00    +0.000 A 
ATOM     24  C   UNL     1       1.758   3.282  18.530  0.00  0.00    +0.000 A 
ATOM     25  C   UNL     1       0.598   2.335  18.710  0.00  0.00    +0.000 C 
ATOM     26  N   UNL     1       2.667   2.967  17.656  0.00  0.00    +0.000 NA
ATOM     27  C   UNL     1       3.715   3.828  17.527  0.00  0.00    +0.000 A 
ATOM     28  N   UNL     1       4.765   3.734  16.747  0.00  0.00    +0.000 NA
ATOM     29  C   UNL     1       5.515   4.855  17.039  0.00  0.00    +0.000 A 
ATOM     30  N   UNL     1       4.967   5.652  17.981  0.00  0.00    +0.000 NA
ATOM     31  N   UNL     1       3.816   4.992  18.292  0.00  0.00    +0.000 N 
BRANCH  29  32
ATOM     32  C   UNL     1       6.835   5.139  16.350  0.00  0.00    +0.000 C 
ATOM     33  F   UNL     1       6.747   5.075  14.992  0.00  0.00    +0.000 F 
ATOM     34  F   UNL     1       7.311   6.380  16.646  0.00  0.00    +0.000 F 
ATOM     35  F   UNL     1       7.805   4.254  16.711  0.00  0.00    +0.000 F 
ENDBRANCH  29  32
ENDBRANCH  20  22
ENDBRANCH   4  20
TORSDOF 7
ENDMDL
MODEL 9
REMARK VINA RESULT:      -8.8      3.393      4.251
REMARK  Name = 
REMARK  9 active torsions:
REMARK  status: ('A' for Active; 'I' for Inactive)
REMARK    1  A    between atoms: C_1  and  O_2
REMARK    2  A    between atoms: O_2  and  C_3
REMARK    3  A    between atoms: C_6  and  N_7
REMARK    4  A    between atoms: N_7  and  S_8
REMARK    5  A    between atoms: S_8  and  C_11
REMARK    6  A    between atoms: C_14  and  N_15
REMARK    7  A    between atoms: N_15  and  C_16
REMARK    8  A    between atoms: C_18  and  C_19
REMARK    9  A    between atoms: C_23  and  C_24
REMARK                            x       y       z     vdW  Elec       q    Type
REMARK                         _______ _______ _______ _____ _____    ______ ____
ROOT
ATOM      1  C   UNL     1       0.959   9.902  19.748  0.00  0.00    +0.000 A 
ATOM      2  C   UNL     1       1.337  10.193  18.438  0.00  0.00    +0.000 A 
ATOM      3  C   UNL     1       2.048   9.247  17.698  0.00  0.00    +0.000 A 
ATOM      4  C   UNL     1       2.427   8.021  18.266  0.00  0.00    +0.000 A 
ATOM      5  C   UNL     1       2.024   7.735  19.577  0.00  0.00    +0.000 A 
ATOM      6  C   UNL     1       1.310   8.679  20.331  0.00  0.00    +0.000 A 
ENDROOT
BRANCH   1   7
ATOM      7  S   UNL     1       0.070  11.133  20.680  0.00  0.00    +0.000 S 
ATOM      8  O   UNL     1       1.042  11.957  21.367  0.00  0.00    +0.000 OA
ATOM      9  O   UNL     1      -0.977  10.447  21.406  0.00  0.00    +0.000 OA
BRANCH   7  10
ATOM     10  N   UNL     1      -0.708  12.062  19.509  0.00  0.00    +0.000 N 
ATOM     11  H   UNL     1      -0.467  13.049  19.562  0.00  0.00    +0.000 HD
BRANCH  10  15
ATOM     12  C   UNL     1      -4.603  11.084  18.227  0.00  0.00    +0.000 A 
ATOM     13  C   UNL     1      -4.401  12.078  19.187  0.00  0.00    +0.000 A 
ATOM     14  C   UNL     1      -3.111  12.414  19.598  0.00  0.00    +0.000 A 
ATOM     15  C   UNL     1      -2.018  11.722  19.082  0.00  0.00    +0.000 A 
ATOM     16  C   UNL     1      -2.212  10.697  18.158  0.00  0.00    +0.000 A 
ATOM     17  C   UNL     1      -3.507  10.386  17.718  0.00  0.00    +0.000 A 
BRANCH  12  19
ATOM     18  C   UNL     1      -6.795  11.962  18.072  0.00  0.00    +0.000 C 
ATOM     19  O   UNL     1      -5.913  10.858  17.902  0.00  0.00    +0.000 OA
ENDBRANCH  12  19
ENDBRANCH  10  15
ENDBRANCH   7  10
ENDBRANCH   1   7
BRANCH   4  20
ATOM     20  N   UNL     1       3.103   7.023  17.506  0.00  0.00    +0.000 N 
ATOM     21  H   UNL     1       3.496   7.473  16.670  0.00  0.00    +0.000 HD
BRANCH  20  22
ATOM     22  C   UNL     1       4.077   6.209  18.106  0.00  0.00    +0.000 A 
ATOM     23  C   UNL     1       5.395   6.480  18.069  0.00  0.00    +0.000 A 
ATOM     24  C   UNL     1       6.313   5.475  18.683  0.00  0.00    +0.000 A 
ATOM     25  C   UNL     1       7.793   5.752  18.601  0.00  0.00    +0.000 C 
ATOM     26  N   UNL     1       5.933   4.377  19.265  0.00  0.00    +0.000 NA
ATOM     27  C   UNL     1       4.592   4.140  19.308  0.00  0.00    +0.000 A 
ATOM     28  N   UNL     1       3.955   3.107  19.807  0.00  0.00    +0.000 NA
ATOM     29  C   UNL     1       2.624   3.368  19.557  0.00  0.00    +0.000 A 
ATOM     30  N   UNL     1       2.404   4.536  18.914  0.00  0.00    +0.000 NA
ATOM     31  N   UNL     1       3.665   5.026  18.755  0.00  0.00    +0.000 N 
BRANCH  29  32
ATOM     32  C   UNL     1       1.527   2.410  19.976  0.00  0.00    +0.000 C 
ATOM     33  F   UNL     1       1.594   2.072  21.293  0.00  0.00    +0.000 F 
ATOM     34  F   UNL     1       0.285   2.934  19.778  0.00  0.00    +0.000 F 
ATOM     35  F   UNL     1       1.571   1.240  19.279  0.00  0.00    +0.000 F 
ENDBRANCH  29  32
ENDBRANCH  20  22
ENDBRANCH   4  20
TORSDOF 7
ENDMDL
