MODEL 1
REMARK VINA RESULT:      -7.9      0.000      0.000
REMARK  Name = 
REMARK  9 active torsions:
REMARK  status: ('A' for Active; 'I' for Inactive)
REMARK    1  A    between atoms: C_1  and  C_2
REMARK    2  A    between atoms: C_2  and  C_3
REMARK    3  A    between atoms: C_2  and  C_4
REMARK    4  A    between atoms: C_2  and  N_5
REMARK    5  A    between atoms: N_8  and  O_9
REMARK    6  A    between atoms: N_8  and  C_10
REMARK    7  A    between atoms: C_10  and  C_11
REMARK    8  A    between atoms: C_15  and  O_16
REMARK    9  A    between atoms: O_16  and  C_17
REMARK                            x       y       z     vdW  Elec       q    Type
REMARK                         _______ _______ _______ _____ _____    ______ ____
ROOT
ATOM      1  C   UNL     1      -0.352  10.856  21.735  0.00  0.00    +0.000 C 
ATOM      2  C   UNL     1       0.208   9.638  21.754  0.00  0.00    +0.000 C 
ATOM      3  C   UNL     1       0.938   9.198  20.575  0.00  0.00    +0.000 A 
ATOM      4  C   UNL     1       1.666   8.003  20.581  0.00  0.00    +0.000 A 
ATOM      5  C   UNL     1       2.243   7.532  19.398  0.00  0.00    +0.000 A 
ATOM      6  C   UNL     1       2.036   8.220  18.199  0.00  0.00    +0.000 A 
ATOM      7  C   UNL     1       1.350   9.436  18.203  0.00  0.00    +0.000 A 
ATOM      8  C   UNL     1       0.819   9.931  19.392  0.00  0.00    +0.000 A 
ATOM      9  O   UNL     1       0.133  11.111  19.308  0.00  0.00    +0.000 OA
ATOM     10  C   UNL     1      -0.167  11.768  20.551  0.00  0.00    +0.000 C 
ENDROOT
BRANCH   1  11
ATOM     11  C   UNL     1      -1.262  11.326  22.833  0.00  0.00    +0.000 C 
BRANCH  11  15
ATOM     12  N   UNL     1      -3.333  14.195  23.248  0.00  0.00    +0.000 N 
ATOM     13  C   UNL     1      -2.998  12.999  22.654  0.00  0.00    +0.000 C 
ATOM     14  O   UNL     1      -3.802  12.242  22.120  0.00  0.00    +0.000 OA
ATOM     15  N   UNL     1      -1.624  12.732  22.707  0.00  0.00    +0.000 N 
ATOM     16  H   UNL     1      -2.647  14.475  23.939  0.00  0.00    +0.000 HD
BRANCH  12  18
ATOM     17  C   UNL     1      -5.676  13.675  23.905  0.00  0.00    +0.000 C 
ATOM     18  C   UNL     1      -4.698  14.724  23.350  0.00  0.00    +0.000 C 
ATOM     19  C   UNL     1      -5.169  15.216  21.972  0.00  0.00    +0.000 C 
ATOM     20  C   UNL     1      -4.686  15.924  24.314  0.00  0.00    +0.000 C 
ENDBRANCH  12  18
BRANCH  15  21
ATOM     21  O   UNL     1      -0.918  13.575  23.614  0.00  0.00    +0.000 OA
ATOM     22  H   UNL     1      -0.122  13.027  23.758  0.00  0.00    +0.000 HD
ENDBRANCH  15  21
ENDBRANCH  11  15
ENDBRANCH   1  11
BRANCH   5  23
ATOM     23  O   UNL     1       2.933   6.342  19.489  0.00  0.00    +0.000 OA
BRANCH  23  24
ATOM     24  C   UNL     1       2.237   5.155  19.424  0.00  0.00    +0.000 A 
ATOM     25  C   UNL     1       1.935   4.491  18.231  0.00  0.00    +0.000 A 
ATOM     26  C   UNL     1       1.198   3.306  18.258  0.00  0.00    +0.000 A 
ATOM     27  C   UNL     1       0.809   2.754  19.476  0.00  0.00    +0.000 A 
ATOM     28  C   UNL     1       1.162   3.381  20.671  0.00  0.00    +0.000 A 
ATOM     29  C   UNL     1       1.876   4.581  20.645  0.00  0.00    +0.000 A 
ENDBRANCH  23  24
ENDBRANCH   5  23
TORSDOF 6
ENDMDL
MODEL 2
REMARK VINA RESULT:      -7.8      3.416      4.000
REMARK  Name = 
REMARK  9 active torsions:
REMARK  status: ('A' for Active; 'I' for Inactive)
REMARK    1  A    between atoms: C_1  and  C_2
REMARK    2  A    between atoms: C_2  and  C_3
REMARK    3  A    between atoms: C_2  and  C_4
REMARK    4  A    between atoms: C_2  and  N_5
REMARK    5  A    between atoms: N_8  and  O_9
REMARK    6  A    between atoms: N_8  and  C_10
REMARK    7  A    between atoms: C_10  and  C_11
REMARK    8  A    between atoms: C_15  and  O_16
REMARK    9  A    between atoms: O_16  and  C_17
REMARK                            x       y       z     vdW  Elec       q    Type
REMARK                         _______ _______ _______ _____ _____    ______ ____
ROOT
ATOM      1  C   UNL     1       0.686  10.670  19.479  0.00  0.00    +0.000 C 
ATOM      2  C   UNL     1       0.801   9.472  20.070  0.00  0.00    +0.000 C 
ATOM      3  C   UNL     1       1.748   8.519  19.513  0.00  0.00    +0.000 A 
ATOM      4  C   UNL     1       2.024   7.311  20.162  0.00  0.00    +0.000 A 
ATOM      5  C   UNL     1       2.829   6.352  19.541  0.00  0.00    +0.000 A 
ATOM      6  C   UNL     1       3.303   6.574  18.245  0.00  0.00    +0.000 A 
ATOM      7  C   UNL     1       3.068   7.798  17.617  0.00  0.00    +0.000 A 
ATOM      8  C   UNL     1       2.308   8.774  18.258  0.00  0.00    +0.000 A 
ATOM      9  O   UNL     1       2.095   9.934  17.565  0.00  0.00    +0.000 OA
ATOM     10  C   UNL     1       1.566  11.041  18.315  0.00  0.00    +0.000 C 
ENDROOT
BRANCH   1  11
ATOM     11  C   UNL     1      -0.380  11.650  19.878  0.00  0.00    +0.000 C 
BRANCH  11  15
ATOM     12  N   UNL     1      -3.225  12.050  17.772  0.00  0.00    +0.000 N 
ATOM     13  C   UNL     1      -2.150  11.342  18.261  0.00  0.00    +0.000 C 
ATOM     14  O   UNL     1      -2.074  10.118  18.272  0.00  0.00    +0.000 OA
ATOM     15  N   UNL     1      -1.128  12.170  18.740  0.00  0.00    +0.000 N 
ATOM     16  H   UNL     1      -3.281  12.975  18.182  0.00  0.00    +0.000 HD
BRANCH  12  18
ATOM     17  C   UNL     1      -5.549  12.489  16.998  0.00  0.00    +0.000 C 
ATOM     18  C   UNL     1      -4.441  11.445  17.217  0.00  0.00    +0.000 C 
ATOM     19  C   UNL     1      -4.937  10.328  18.148  0.00  0.00    +0.000 C 
ATOM     20  C   UNL     1      -4.097  10.820  15.853  0.00  0.00    +0.000 C 
ENDBRANCH  12  18
BRANCH  15  21
ATOM     21  O   UNL     1      -1.529  13.527  18.909  0.00  0.00    +0.000 OA
ATOM     22  H   UNL     1      -2.384  13.389  19.361  0.00  0.00    +0.000 HD
ENDBRANCH  15  21
ENDBRANCH  11  15
ENDBRANCH   1  11
BRANCH   5  23
ATOM     23  O   UNL     1       3.040   5.186  20.244  0.00  0.00    +0.000 OA
BRANCH  23  24
ATOM     24  C   UNL     1       2.675   3.983  19.678  0.00  0.00    +0.000 A 
ATOM     25  C   UNL     1       3.587   3.041  19.191  0.00  0.00    +0.000 A 
ATOM     26  C   UNL     1       3.126   1.862  18.605  0.00  0.00    +0.000 A 
ATOM     27  C   UNL     1       1.760   1.595  18.554  0.00  0.00    +0.000 A 
ATOM     28  C   UNL     1       0.851   2.505  19.095  0.00  0.00    +0.000 A 
ATOM     29  C   UNL     1       1.309   3.698  19.657  0.00  0.00    +0.000 A 
ENDBRANCH  23  24
ENDBRANCH   5  23
TORSDOF 6
ENDMDL
MODEL 3
REMARK VINA RESULT:      -7.7      0.628      1.350
REMARK  Name = 
REMARK  9 active torsions:
REMARK  status: ('A' for Active; 'I' for Inactive)
REMARK    1  A    between atoms: C_1  and  C_2
REMARK    2  A    between atoms: C_2  and  C_3
REMARK    3  A    between atoms: C_2  and  C_4
REMARK    4  A    between atoms: C_2  and  N_5
REMARK    5  A    between atoms: N_8  and  O_9
REMARK    6  A    between atoms: N_8  and  C_10
REMARK    7  A    between atoms: C_10  and  C_11
REMARK    8  A    between atoms: C_15  and  O_16
REMARK    9  A    between atoms: O_16  and  C_17
REMARK                            x       y       z     vdW  Elec       q    Type
REMARK                         _______ _______ _______ _____ _____    ______ ____
ROOT
ATOM      1  C   UNL     1      -0.808  11.014  22.024  0.00  0.00    +0.000 C 
ATOM      2  C   UNL     1      -0.207   9.816  22.076  0.00  0.00    +0.000 C 
ATOM      3  C   UNL     1       0.582   9.393  20.929  0.00  0.00    +0.000 A 
ATOM      4  C   UNL     1       1.351   8.225  20.973  0.00  0.00    +0.000 A 
ATOM      5  C   UNL     1       1.990   7.765  19.818  0.00  0.00    +0.000 A 
ATOM      6  C   UNL     1       1.805   8.437  18.606  0.00  0.00    +0.000 A 
ATOM      7  C   UNL     1       1.077   9.627  18.572  0.00  0.00    +0.000 A 
ATOM      8  C   UNL     1       0.483  10.112  19.736  0.00  0.00    +0.000 A 
ATOM      9  O   UNL     1      -0.240  11.267  19.615  0.00  0.00    +0.000 OA
ATOM     10  C   UNL     1      -0.610  11.923  20.840  0.00  0.00    +0.000 C 
ENDROOT
BRANCH   1  11
ATOM     11  C   UNL     1      -1.776  11.460  23.082  0.00  0.00    +0.000 C 
BRANCH  11  15
ATOM     12  N   UNL     1      -4.067  14.180  23.293  0.00  0.00    +0.000 N 
ATOM     13  C   UNL     1      -3.612  12.997  22.754  0.00  0.00    +0.000 C 
ATOM     14  O   UNL     1      -4.327  12.170  22.196  0.00  0.00    +0.000 OA
ATOM     15  N   UNL     1      -2.229  12.832  22.895  0.00  0.00    +0.000 N 
ATOM     16  H   UNL     1      -3.445  14.525  24.015  0.00  0.00    +0.000 HD
BRANCH  12  18
ATOM     17  C   UNL     1      -6.026  14.763  21.874  0.00  0.00    +0.000 C 
ATOM     18  C   UNL     1      -5.469  14.610  23.300  0.00  0.00    +0.000 C 
ATOM     19  C   UNL     1      -5.604  15.933  24.070  0.00  0.00    +0.000 C 
ATOM     20  C   UNL     1      -6.305  13.540  24.026  0.00  0.00    +0.000 C 
ENDBRANCH  12  18
BRANCH  15  21
ATOM     21  O   UNL     1      -1.640  13.745  23.818  0.00  0.00    +0.000 OA
ATOM     22  H   UNL     1      -2.324  14.442  23.816  0.00  0.00    +0.000 HD
ENDBRANCH  15  21
ENDBRANCH  11  15
ENDBRANCH   1  11
BRANCH   5  23
ATOM     23  O   UNL     1       2.717   6.602  19.946  0.00  0.00    +0.000 OA
BRANCH  23  24
ATOM     24  C   UNL     1       2.123   5.399  19.629  0.00  0.00    +0.000 A 
ATOM     25  C   UNL     1       1.450   4.593  20.551  0.00  0.00    +0.000 A 
ATOM     26  C   UNL     1       0.905   3.373  20.147  0.00  0.00    +0.000 A 
ATOM     27  C   UNL     1       0.982   2.983  18.812  0.00  0.00    +0.000 A 
ATOM     28  C   UNL     1       1.599   3.814  17.877  0.00  0.00    +0.000 A 
ATOM     29  C   UNL     1       2.169   5.022  18.285  0.00  0.00    +0.000 A 
ENDBRANCH  23  24
ENDBRANCH   5  23
TORSDOF 6
ENDMDL
MODEL 4
REMARK VINA RESULT:      -7.7      0.381      1.270
REMARK  Name = 
REMARK  9 active torsions:
REMARK  status: ('A' for Active; 'I' for Inactive)
REMARK    1  A    between atoms: C_1  and  C_2
REMARK    2  A    between atoms: C_2  and  C_3
REMARK    3  A    between atoms: C_2  and  C_4
REMARK    4  A    between atoms: C_2  and  N_5
REMARK    5  A    between atoms: N_8  and  O_9
REMARK    6  A    between atoms: N_8  and  C_10
REMARK    7  A    between atoms: C_10  and  C_11
REMARK    8  A    between atoms: C_15  and  O_16
REMARK    9  A    between atoms: O_16  and  C_17
REMARK                            x       y       z     vdW  Elec       q    Type
REMARK                         _______ _______ _______ _____ _____    ______ ____
ROOT
ATOM      1  C   UNL     1      -0.235  10.702  21.649  0.00  0.00    +0.000 C 
ATOM      2  C   UNL     1       0.322   9.483  21.678  0.00  0.00    +0.000 C 
ATOM      3  C   UNL     1       1.044   9.029  20.499  0.00  0.00    +0.000 A 
ATOM      4  C   UNL     1       1.770   7.834  20.512  0.00  0.00    +0.000 A 
ATOM      5  C   UNL     1       2.339   7.349  19.331  0.00  0.00    +0.000 A 
ATOM      6  C   UNL     1       2.127   8.026  18.126  0.00  0.00    +0.000 A 
ATOM      7  C   UNL     1       1.443   9.243  18.122  0.00  0.00    +0.000 A 
ATOM      8  C   UNL     1       0.920   9.751  19.309  0.00  0.00    +0.000 A 
ATOM      9  O   UNL     1       0.236  10.932  19.217  0.00  0.00    +0.000 OA
ATOM     10  C   UNL     1      -0.055  11.602  20.456  0.00  0.00    +0.000 C 
ENDROOT
BRANCH   1  11
ATOM     11  C   UNL     1      -1.138  11.185  22.748  0.00  0.00    +0.000 C 
BRANCH  11  15
ATOM     12  N   UNL     1      -3.018  14.156  23.324  0.00  0.00    +0.000 N 
ATOM     13  C   UNL     1      -2.790  12.949  22.701  0.00  0.00    +0.000 C 
ATOM     14  O   UNL     1      -3.669  12.241  22.221  0.00  0.00    +0.000 OA
ATOM     15  N   UNL     1      -1.433  12.609  22.656  0.00  0.00    +0.000 N 
ATOM     16  H   UNL     1      -2.271  14.391  23.967  0.00  0.00    +0.000 HD
BRANCH  12  18
ATOM     17  C   UNL     1      -4.294  15.919  24.530  0.00  0.00    +0.000 C 
ATOM     18  C   UNL     1      -4.342  14.755  23.525  0.00  0.00    +0.000 C 
ATOM     19  C   UNL     1      -5.333  13.681  23.999  0.00  0.00    +0.000 C 
ATOM     20  C   UNL     1      -4.837  15.309  22.176  0.00  0.00    +0.000 C 
ENDBRANCH  12  18
BRANCH  15  21
ATOM     21  O   UNL     1      -0.620  13.404  23.516  0.00  0.00    +0.000 OA
ATOM     22  H   UNL     1      -0.826  12.981  24.372  0.00  0.00    +0.000 HD
ENDBRANCH  15  21
ENDBRANCH  11  15
ENDBRANCH   1  11
BRANCH   5  23
ATOM     23  O   UNL     1       3.027   6.159  19.430  0.00  0.00    +0.000 OA
BRANCH  23  24
ATOM     24  C   UNL     1       2.340   4.972  19.297  0.00  0.00    +0.000 A 
ATOM     25  C   UNL     1       1.474   4.458  20.268  0.00  0.00    +0.000 A 
ATOM     26  C   UNL     1       0.843   3.231  20.062  0.00  0.00    +0.000 A 
ATOM     27  C   UNL     1       1.031   2.542  18.866  0.00  0.00    +0.000 A 
ATOM     28  C   UNL     1       1.846   3.081  17.870  0.00  0.00    +0.000 A 
ATOM     29  C   UNL     1       2.499   4.297  18.086  0.00  0.00    +0.000 A 
ENDBRANCH  23  24
ENDBRANCH   5  23
TORSDOF 6
ENDMDL
MODEL 5
REMARK VINA RESULT:      -7.7      4.381      6.568
REMARK  Name = 
REMARK  9 active torsions:
REMARK  status: ('A' for Active; 'I' for Inactive)
REMARK    1  A    between atoms: C_1  and  C_2
REMARK    2  A    between atoms: C_2  and  C_3
REMARK    3  A    between atoms: C_2  and  C_4
REMARK    4  A    between atoms: C_2  and  N_5
REMARK    5  A    between atoms: N_8  and  O_9
REMARK    6  A    between atoms: N_8  and  C_10
REMARK    7  A    between atoms: C_10  and  C_11
REMARK    8  A    between atoms: C_15  and  O_16
REMARK    9  A    between atoms: O_16  and  C_17
REMARK                            x       y       z     vdW  Elec       q    Type
REMARK                         _______ _______ _______ _____ _____    ______ ____
ROOT
ATOM      1  C   UNL     1       2.550   7.383  18.346  0.00  0.00    +0.000 C 
ATOM      2  C   UNL     1       3.504   7.446  17.406  0.00  0.00    +0.000 C 
ATOM      3  C   UNL     1       4.585   6.472  17.458  0.00  0.00    +0.000 A 
ATOM      4  C   UNL     1       5.531   6.388  16.431  0.00  0.00    +0.000 A 
ATOM      5  C   UNL     1       6.636   5.543  16.568  0.00  0.00    +0.000 A 
ATOM      6  C   UNL     1       6.828   4.834  17.757  0.00  0.00    +0.000 A 
ATOM      7  C   UNL     1       5.860   4.881  18.761  0.00  0.00    +0.000 A 
ATOM      8  C   UNL     1       4.732   5.685  18.603  0.00  0.00    +0.000 A 
ATOM      9  O   UNL     1       3.846   5.703  19.644  0.00  0.00    +0.000 OA
ATOM     10  C   UNL     1       2.560   6.290  19.381  0.00  0.00    +0.000 C 
ENDROOT
BRANCH   1  11
ATOM     11  C   UNL     1       1.494   8.444  18.472  0.00  0.00    +0.000 C 
BRANCH  11  15
ATOM     12  N   UNL     1       0.355  10.687  20.995  0.00  0.00    +0.000 N 
ATOM     13  C   UNL     1       0.911  10.399  19.768  0.00  0.00    +0.000 C 
ATOM     14  O   UNL     1       0.866  11.146  18.796  0.00  0.00    +0.000 OA
ATOM     15  N   UNL     1       1.555   9.157  19.742  0.00  0.00    +0.000 N 
ATOM     16  H   UNL     1       0.156   9.845  21.522  0.00  0.00    +0.000 HD
BRANCH  12  18
ATOM     17  C   UNL     1      -1.523  12.164  20.299  0.00  0.00    +0.000 C 
ATOM     18  C   UNL     1      -0.389  11.912  21.308  0.00  0.00    +0.000 C 
ATOM     19  C   UNL     1       0.572  13.110  21.341  0.00  0.00    +0.000 C 
ATOM     20  C   UNL     1      -1.018  11.758  22.705  0.00  0.00    +0.000 C 
ENDBRANCH  12  18
BRANCH  15  21
ATOM     21  O   UNL     1       1.242   8.332  20.861  0.00  0.00    +0.000 OA
ATOM     22  H   UNL     1       0.624   8.923  21.332  0.00  0.00    +0.000 HD
ENDBRANCH  15  21
ENDBRANCH  11  15
ENDBRANCH   1  11
BRANCH   5  23
ATOM     23  O   UNL     1       7.525   5.529  15.515  0.00  0.00    +0.000 OA
BRANCH  23  24
ATOM     24  C   UNL     1       7.164   4.913  14.337  0.00  0.00    +0.000 A 
ATOM     25  C   UNL     1       6.131   3.976  14.231  0.00  0.00    +0.000 A 
ATOM     26  C   UNL     1       5.854   3.377  13.001  0.00  0.00    +0.000 A 
ATOM     27  C   UNL     1       6.569   3.753  11.866  0.00  0.00    +0.000 A 
ATOM     28  C   UNL     1       7.558   4.732  11.956  0.00  0.00    +0.000 A 
ATOM     29  C   UNL     1       7.855   5.312  13.191  0.00  0.00    +0.000 A 
ENDBRANCH  23  24
ENDBRANCH   5  23
TORSDOF 6
ENDMDL
MODEL 6
REMARK VINA RESULT:      -7.6      4.609      7.069
REMARK  Name = 
REMARK  9 active torsions:
REMARK  status: ('A' for Active; 'I' for Inactive)
REMARK    1  A    between atoms: C_1  and  C_2
REMARK    2  A    between atoms: C_2  and  C_3
REMARK    3  A    between atoms: C_2  and  C_4
REMARK    4  A    between atoms: C_2  and  N_5
REMARK    5  A    between atoms: N_8  and  O_9
REMARK    6  A    between atoms: N_8  and  C_10
REMARK    7  A    between atoms: C_10  and  C_11
REMARK    8  A    between atoms: C_15  and  O_16
REMARK    9  A    between atoms: O_16  and  C_17
REMARK                            x       y       z     vdW  Elec       q    Type
REMARK                         _______ _______ _______ _____ _____    ______ ____
ROOT
ATOM      1  C   UNL     1       2.834   6.256  18.993  0.00  0.00    +0.000 C 
ATOM      2  C   UNL     1       3.533   6.559  17.890  0.00  0.00    +0.000 C 
ATOM      3  C   UNL     1       4.821   5.911  17.691  0.00  0.00    +0.000 A 
ATOM      4  C   UNL     1       5.534   6.071  16.499  0.00  0.00    +0.000 A 
ATOM      5  C   UNL     1       6.827   5.553  16.384  0.00  0.00    +0.000 A 
ATOM      6  C   UNL     1       7.431   4.935  17.483  0.00  0.00    +0.000 A 
ATOM      7  C   UNL     1       6.702   4.734  18.656  0.00  0.00    +0.000 A 
ATOM      8  C   UNL     1       5.394   5.205  18.752  0.00  0.00    +0.000 A 
ATOM      9  O   UNL     1       4.758   4.998  19.945  0.00  0.00    +0.000 OA
ATOM     10  C   UNL     1       3.337   5.218  19.960  0.00  0.00    +0.000 C 
ENDROOT
BRANCH   1  11
ATOM     11  C   UNL     1       1.582   6.997  19.365  0.00  0.00    +0.000 C 
BRANCH  11  15
ATOM     12  N   UNL     1       0.853  10.319  20.426  0.00  0.00    +0.000 N 
ATOM     13  C   UNL     1       1.189   9.379  19.477  0.00  0.00    +0.000 C 
ATOM     14  O   UNL     1       0.952   9.491  18.279  0.00  0.00    +0.000 OA
ATOM     15  N   UNL     1       1.850   8.271  20.019  0.00  0.00    +0.000 N 
ATOM     16  H   UNL     1       0.773   9.906  21.349  0.00  0.00    +0.000 HD
BRANCH  12  18
ATOM     17  C   UNL     1      -0.067  12.405  21.424  0.00  0.00    +0.000 C 
ATOM     18  C   UNL     1       0.146  11.573  20.147  0.00  0.00    +0.000 C 
ATOM     19  C   UNL     1      -1.203  11.271  19.477  0.00  0.00    +0.000 C 
ATOM     20  C   UNL     1       0.995  12.406  19.170  0.00  0.00    +0.000 C 
ENDBRANCH  12  18
BRANCH  15  21
ATOM     21  O   UNL     1       1.763   8.198  21.440  0.00  0.00    +0.000 OA
ATOM     22  H   UNL     1       2.401   8.897  21.679  0.00  0.00    +0.000 HD
ENDBRANCH  15  21
ENDBRANCH  11  15
ENDBRANCH   1  11
BRANCH   5  23
ATOM     23  O   UNL     1       7.462   5.765  15.179  0.00  0.00    +0.000 OA
BRANCH  23  24
ATOM     24  C   UNL     1       7.115   4.996  14.090  0.00  0.00    +0.000 A 
ATOM     25  C   UNL     1       6.103   4.031  14.107  0.00  0.00    +0.000 A 
ATOM     26  C   UNL     1       5.839   3.275  12.965  0.00  0.00    +0.000 A 
ATOM     27  C   UNL     1       6.545   3.518  11.789  0.00  0.00    +0.000 A 
ATOM     28  C   UNL     1       7.512   4.522  11.751  0.00  0.00    +0.000 A 
ATOM     29  C   UNL     1       7.796   5.261  12.901  0.00  0.00    +0.000 A 
ENDBRANCH  23  24
ENDBRANCH   5  23
TORSDOF 6
ENDMDL
MODEL 7
REMARK VINA RESULT:      -7.5      4.338      6.518
REMARK  Name = 
REMARK  9 active torsions:
REMARK  status: ('A' for Active; 'I' for Inactive)
REMARK    1  A    between atoms: C_1  and  C_2
REMARK    2  A    between atoms: C_2  and  C_3
REMARK    3  A    between atoms: C_2  and  C_4
REMARK    4  A    between atoms: C_2  and  N_5
REMARK    5  A    between atoms: N_8  and  O_9
REMARK    6  A    between atoms: N_8  and  C_10
REMARK    7  A    between atoms: C_10  and  C_11
REMARK    8  A    between atoms: C_15  and  O_16
REMARK    9  A    between atoms: O_16  and  C_17
REMARK                            x       y       z     vdW  Elec       q    Type
REMARK                         _______ _______ _______ _____ _____    ______ ____
ROOT
ATOM      1  C   UNL     1       2.509   7.388  18.372  0.00  0.00    +0.000 C 
ATOM      2  C   UNL     1       3.468   7.488  17.441  0.00  0.00    +0.000 C 
ATOM      3  C   UNL     1       4.555   6.521  17.466  0.00  0.00    +0.000 A 
ATOM      4  C   UNL     1       5.507   6.478  16.442  0.00  0.00    +0.000 A 
ATOM      5  C   UNL     1       6.617   5.636  16.556  0.00  0.00    +0.000 A 
ATOM      6  C   UNL     1       6.808   4.889  17.722  0.00  0.00    +0.000 A 
ATOM      7  C   UNL     1       5.835   4.897  18.722  0.00  0.00    +0.000 A 
ATOM      8  C   UNL     1       4.703   5.697  18.584  0.00  0.00    +0.000 A 
ATOM      9  O   UNL     1       3.811   5.675  19.621  0.00  0.00    +0.000 OA
ATOM     10  C   UNL     1       2.522   6.262  19.371  0.00  0.00    +0.000 C 
ENDROOT
BRANCH   1  11
ATOM     11  C   UNL     1       1.445   8.437  18.528  0.00  0.00    +0.000 C 
BRANCH  11  15
ATOM     12  N   UNL     1       0.432  10.741  21.050  0.00  0.00    +0.000 N 
ATOM     13  C   UNL     1       0.883  10.421  19.789  0.00  0.00    +0.000 C 
ATOM     14  O   UNL     1       0.705  11.116  18.793  0.00  0.00    +0.000 OA
ATOM     15  N   UNL     1       1.589   9.213  19.753  0.00  0.00    +0.000 N 
ATOM     16  H   UNL     1       0.331   9.916  21.630  0.00  0.00    +0.000 HD
BRANCH  12  18
ATOM     17  C   UNL     1       0.511  13.216  21.291  0.00  0.00    +0.000 C 
ATOM     18  C   UNL     1      -0.344  11.940  21.381  0.00  0.00    +0.000 C 
ATOM     19  C   UNL     1      -0.946  11.799  22.788  0.00  0.00    +0.000 C 
ATOM     20  C   UNL     1      -1.500  12.068  20.371  0.00  0.00    +0.000 C 
ENDBRANCH  12  18
BRANCH  15  21
ATOM     21  O   UNL     1       1.429   8.428  20.933  0.00  0.00    +0.000 OA
ATOM     22  H   UNL     1       1.334   9.143  21.592  0.00  0.00    +0.000 HD
ENDBRANCH  15  21
ENDBRANCH  11  15
ENDBRANCH   1  11
BRANCH   5  23
ATOM     23  O   UNL     1       7.512   5.664  15.508  0.00  0.00    +0.000 OA
BRANCH  23  24
ATOM     24  C   UNL     1       7.192   5.019  14.333  0.00  0.00    +0.000 A 
ATOM     25  C   UNL     1       7.833   5.255  13.113  0.00  0.00    +0.000 A 
ATOM     26  C   UNL     1       7.422   4.577  11.965  0.00  0.00    +0.000 A 
ATOM     27  C   UNL     1       6.409   3.624  12.043  0.00  0.00    +0.000 A 
ATOM     28  C   UNL     1       5.809   3.342  13.270  0.00  0.00    +0.000 A 
ATOM     29  C   UNL     1       6.201   4.038  14.415  0.00  0.00    +0.000 A 
ENDBRANCH  23  24
ENDBRANCH   5  23
TORSDOF 6
ENDMDL
MODEL 8
REMARK VINA RESULT:      -7.5      4.361      6.655
REMARK  Name = 
REMARK  9 active torsions:
REMARK  status: ('A' for Active; 'I' for Inactive)
REMARK    1  A    between atoms: C_1  and  C_2
REMARK    2  A    between atoms: C_2  and  C_3
REMARK    3  A    between atoms: C_2  and  C_4
REMARK    4  A    between atoms: C_2  and  N_5
REMARK    5  A    between atoms: N_8  and  O_9
REMARK    6  A    between atoms: N_8  and  C_10
REMARK    7  A    between atoms: C_10  and  C_11
REMARK    8  A    between atoms: C_15  and  O_16
REMARK    9  A    between atoms: O_16  and  C_17
REMARK                            x       y       z     vdW  Elec       q    Type
REMARK                         _______ _______ _______ _____ _____    ______ ____
ROOT
ATOM      1  C   UNL     1       2.378   7.733  18.113  0.00  0.00    +0.000 C 
ATOM      2  C   UNL     1       3.391   7.704  17.234  0.00  0.00    +0.000 C 
ATOM      3  C   UNL     1       4.419   6.688  17.403  0.00  0.00    +0.000 A 
ATOM      4  C   UNL     1       5.422   6.509  16.445  0.00  0.00    +0.000 A 
ATOM      5  C   UNL     1       6.475   5.624  16.693  0.00  0.00    +0.000 A 
ATOM      6  C   UNL     1       6.560   4.970  17.926  0.00  0.00    +0.000 A 
ATOM      7  C   UNL     1       5.535   5.113  18.863  0.00  0.00    +0.000 A 
ATOM      8  C   UNL     1       4.459   5.956  18.593  0.00  0.00    +0.000 A 
ATOM      9  O   UNL     1       3.511   6.067  19.573  0.00  0.00    +0.000 OA
ATOM     10  C   UNL     1       2.273   6.696  19.199  0.00  0.00    +0.000 C 
ENDROOT
BRANCH   1  11
ATOM     11  C   UNL     1       1.368   8.844  18.119  0.00  0.00    +0.000 C 
BRANCH  11  15
ATOM     12  N   UNL     1       0.919  11.784  20.080  0.00  0.00    +0.000 N 
ATOM     13  C   UNL     1       1.567  11.032  19.126  0.00  0.00    +0.000 C 
ATOM     14  O   UNL     1       2.216  11.503  18.197  0.00  0.00    +0.000 OA
ATOM     15  N   UNL     1       1.423   9.655  19.328  0.00  0.00    +0.000 N 
ATOM     16  H   UNL     1       0.157  11.269  20.506  0.00  0.00    +0.000 HD
BRANCH  12  18
ATOM     17  C   UNL     1       0.160  13.779  21.358  0.00  0.00    +0.000 C 
ATOM     18  C   UNL     1       0.890  13.250  20.111  0.00  0.00    +0.000 C 
ATOM     19  C   UNL     1       0.222  13.784  18.835  0.00  0.00    +0.000 C 
ATOM     20  C   UNL     1       2.340  13.766  20.152  0.00  0.00    +0.000 C 
ENDBRANCH  12  18
BRANCH  15  21
ATOM     21  O   UNL     1       0.405   9.323  20.269  0.00  0.00    +0.000 OA
ATOM     22  H   UNL     1       0.626   9.957  20.979  0.00  0.00    +0.000 HD
ENDBRANCH  15  21
ENDBRANCH  11  15
ENDBRANCH   1  11
BRANCH   5  23
ATOM     23  O   UNL     1       7.426   5.517  15.702  0.00  0.00    +0.000 OA
BRANCH  23  24
ATOM     24  C   UNL     1       7.091   4.909  14.511  0.00  0.00    +0.000 A 
ATOM     25  C   UNL     1       6.077   3.956  14.379  0.00  0.00    +0.000 A 
ATOM     26  C   UNL     1       5.826   3.369  13.138  0.00  0.00    +0.000 A 
ATOM     27  C   UNL     1       6.549   3.772  12.018  0.00  0.00    +0.000 A 
ATOM     28  C   UNL     1       7.519   4.768  12.134  0.00  0.00    +0.000 A 
ATOM     29  C   UNL     1       7.789   5.337  13.380  0.00  0.00    +0.000 A 
ENDBRANCH  23  24
ENDBRANCH   5  23
TORSDOF 6
ENDMDL
MODEL 9
REMARK VINA RESULT:      -7.4      0.827      1.528
REMARK  Name = 
REMARK  9 active torsions:
REMARK  status: ('A' for Active; 'I' for Inactive)
REMARK    1  A    between atoms: C_1  and  C_2
REMARK    2  A    between atoms: C_2  and  C_3
REMARK    3  A    between atoms: C_2  and  C_4
REMARK    4  A    between atoms: C_2  and  N_5
REMARK    5  A    between atoms: N_8  and  O_9
REMARK    6  A    between atoms: N_8  and  C_10
REMARK    7  A    between atoms: C_10  and  C_11
REMARK    8  A    between atoms: C_15  and  O_16
REMARK    9  A    between atoms: O_16  and  C_17
REMARK                            x       y       z     vdW  Elec       q    Type
REMARK                         _______ _______ _______ _____ _____    ______ ____
ROOT
ATOM      1  C   UNL     1      -0.450  11.060  21.093  0.00  0.00    +0.000 C 
ATOM      2  C   UNL     1       0.067   9.836  21.273  0.00  0.00    +0.000 C 
ATOM      3  C   UNL     1       0.925   9.292  20.232  0.00  0.00    +0.000 A 
ATOM      4  C   UNL     1       1.611   8.087  20.418  0.00  0.00    +0.000 A 
ATOM      5  C   UNL     1       2.318   7.515  19.356  0.00  0.00    +0.000 A 
ATOM      6  C   UNL     1       2.283   8.113  18.093  0.00  0.00    +0.000 A 
ATOM      7  C   UNL     1       1.638   9.339  17.920  0.00  0.00    +0.000 A 
ATOM      8  C   UNL     1       0.977   9.934  18.992  0.00  0.00    +0.000 A 
ATOM      9  O   UNL     1       0.342  11.118  18.734  0.00  0.00    +0.000 OA
ATOM     10  C   UNL     1      -0.092  11.875  19.878  0.00  0.00    +0.000 C 
ENDROOT
BRANCH   1  11
ATOM     11  C   UNL     1      -1.476  11.631  22.028  0.00  0.00    +0.000 C 
BRANCH  11  15
ATOM     12  N   UNL     1      -2.414  14.876  23.161  0.00  0.00    +0.000 N 
ATOM     13  C   UNL     1      -2.477  13.817  22.284  0.00  0.00    +0.000 C 
ATOM     14  O   UNL     1      -3.449  13.557  21.582  0.00  0.00    +0.000 OA
ATOM     15  N   UNL     1      -1.300  13.059  22.261  0.00  0.00    +0.000 N 
ATOM     16  H   UNL     1      -1.736  14.712  23.897  0.00  0.00    +0.000 HD
BRANCH  12  18
ATOM     17  C   UNL     1      -3.918  16.555  22.108  0.00  0.00    +0.000 C 
ATOM     18  C   UNL     1      -3.502  15.830  23.400  0.00  0.00    +0.000 C 
ATOM     19  C   UNL     1      -3.078  16.847  24.470  0.00  0.00    +0.000 C 
ATOM     20  C   UNL     1      -4.724  15.055  23.927  0.00  0.00    +0.000 C 
ENDBRANCH  12  18
BRANCH  15  21
ATOM     21  O   UNL     1      -0.421  13.343  23.347  0.00  0.00    +0.000 OA
ATOM     22  H   UNL     1      -0.883  14.112  23.733  0.00  0.00    +0.000 HD
ENDBRANCH  15  21
ENDBRANCH  11  15
ENDBRANCH   1  11
BRANCH   5  23
ATOM     23  O   UNL     1       2.956   6.322  19.622  0.00  0.00    +0.000 OA
BRANCH  23  24
ATOM     24  C   UNL     1       2.248   5.144  19.520  0.00  0.00    +0.000 A 
ATOM     25  C   UNL     1       1.555   4.555  20.582  0.00  0.00    +0.000 A 
ATOM     26  C   UNL     1       0.891   3.342  20.396  0.00  0.00    +0.000 A 
ATOM     27  C   UNL     1       0.870   2.744  19.138  0.00  0.00    +0.000 A 
ATOM     28  C   UNL     1       1.508   3.361  18.062  0.00  0.00    +0.000 A 
ATOM     29  C   UNL     1       2.197   4.561  18.253  0.00  0.00    +0.000 A 
ENDBRANCH  23  24
ENDBRANCH   5  23
TORSDOF 6
ENDMDL
