MODEL 1
REMARK VINA RESULT:      -7.0      0.000      0.000
REMARK  Name = 
REMARK  4 active torsions:
REMARK  status: ('A' for Active; 'I' for Inactive)
REMARK    1  A    between atoms: C_1  and  C_2
REMARK    2  A    between atoms: C_2  and  C_14
REMARK    3  A    between atoms: N_3  and  N_4
REMARK    4  A    between atoms: C_5  and  C_7
REMARK                            x       y       z     vdW  Elec       q    Type
REMARK                         _______ _______ _______ _____ _____    ______ ____
ROOT
ATOM      1  N   UNL     1       4.507   3.138  17.418  0.00  0.00    +0.000 N 
ATOM      2  C   UNL     1       3.124   3.099  17.513  0.00  0.00    +0.000 C 
ATOM      3  O   UNL     1       2.340   3.122  16.570  0.00  0.00    +0.000 OA
ATOM      4  H   UNL     1       5.065   2.941  18.234  0.00  0.00    +0.000 HD
ENDROOT
BRANCH   2   5
ATOM      5  C   UNL     1       2.590   2.989  18.903  0.00  0.00    +0.000 A 
ATOM      6  C   UNL     1       3.409   2.638  19.990  0.00  0.00    +0.000 A 
ATOM      7  C   UNL     1       2.864   2.540  21.273  0.00  0.00    +0.000 A 
ATOM      8  C   UNL     1       1.513   2.803  21.470  0.00  0.00    +0.000 A 
ATOM      9  F   UNL     1       0.996   2.708  22.702  0.00  0.00    +0.000 F 
ATOM     10  C   UNL     1       0.694   3.172  20.409  0.00  0.00    +0.000 A 
ATOM     11  C   UNL     1       1.233   3.270  19.124  0.00  0.00    +0.000 A 
ENDBRANCH   2   5
BRANCH   1  14
ATOM     12  C   UNL     1       5.328   5.711  16.439  0.00  0.00    +0.000 C 
ATOM     13  C   UNL     1       5.505   4.378  15.737  0.00  0.00    +0.000 C 
ATOM     14  N   UNL     1       5.105   3.227  16.199  0.00  0.00    +0.000 NA
BRANCH  13  15
ATOM     15  C   UNL     1       6.185   4.400  14.393  0.00  0.00    +0.000 A 
ATOM     16  C   UNL     1       5.763   3.584  13.339  0.00  0.00    +0.000 A 
ATOM     17  C   UNL     1       6.442   3.658  12.135  0.00  0.00    +0.000 A 
ATOM     18  N   UNL     1       7.491   4.474  11.915  0.00  0.00    +0.000 NA
ATOM     19  C   UNL     1       7.882   5.256  12.946  0.00  0.00    +0.000 A 
ATOM     20  C   UNL     1       7.269   5.255  14.187  0.00  0.00    +0.000 A 
ENDBRANCH  13  15
ENDBRANCH   1  14
TORSDOF 3
ENDMDL
MODEL 2
REMARK VINA RESULT:      -7.0      0.070      1.081
REMARK  Name = 
REMARK  4 active torsions:
REMARK  status: ('A' for Active; 'I' for Inactive)
REMARK    1  A    between atoms: C_1  and  C_2
REMARK    2  A    between atoms: C_2  and  C_14
REMARK    3  A    between atoms: N_3  and  N_4
REMARK    4  A    between atoms: C_5  and  C_7
REMARK                            x       y       z     vdW  Elec       q    Type
REMARK                         _______ _______ _______ _____ _____    ______ ____
ROOT
ATOM      1  N   UNL     1       4.559   3.206  17.436  0.00  0.00    +0.000 N 
ATOM      2  C   UNL     1       3.179   3.083  17.515  0.00  0.00    +0.000 C 
ATOM      3  O   UNL     1       2.409   3.030  16.562  0.00  0.00    +0.000 OA
ATOM      4  H   UNL     1       5.116   3.068  18.265  0.00  0.00    +0.000 HD
ENDROOT
BRANCH   2   5
ATOM      5  C   UNL     1       2.633   2.979  18.902  0.00  0.00    +0.000 A 
ATOM      6  C   UNL     1       3.441   2.629  19.996  0.00  0.00    +0.000 A 
ATOM      7  C   UNL     1       2.886   2.537  21.275  0.00  0.00    +0.000 A 
ATOM      8  C   UNL     1       1.535   2.806  21.459  0.00  0.00    +0.000 A 
ATOM      9  F   UNL     1       1.007   2.717  22.687  0.00  0.00    +0.000 F 
ATOM     10  C   UNL     1       0.725   3.174  20.391  0.00  0.00    +0.000 A 
ATOM     11  C   UNL     1       1.276   3.266  19.109  0.00  0.00    +0.000 A 
ENDBRANCH   2   5
BRANCH   1  14
ATOM     12  C   UNL     1       5.366   5.783  16.459  0.00  0.00    +0.000 C 
ATOM     13  C   UNL     1       5.561   4.450  15.762  0.00  0.00    +0.000 C 
ATOM     14  N   UNL     1       5.167   3.297  16.223  0.00  0.00    +0.000 NA
BRANCH  13  15
ATOM     15  C   UNL     1       6.254   4.475  14.424  0.00  0.00    +0.000 A 
ATOM     16  C   UNL     1       7.347   5.309  14.176  0.00  0.00    +0.000 A 
ATOM     17  C   UNL     1       7.927   5.279  12.919  0.00  0.00    +0.000 A 
ATOM     18  N   UNL     1       7.500   4.488  11.915  0.00  0.00    +0.000 NA
ATOM     19  C   UNL     1       6.444   3.688  12.176  0.00  0.00    +0.000 A 
ATOM     20  C   UNL     1       5.795   3.645  13.399  0.00  0.00    +0.000 A 
ENDBRANCH  13  15
ENDBRANCH   1  14
TORSDOF 3
ENDMDL
MODEL 3
REMARK VINA RESULT:      -7.0      0.067      1.550
REMARK  Name = 
REMARK  4 active torsions:
REMARK  status: ('A' for Active; 'I' for Inactive)
REMARK    1  A    between atoms: C_1  and  C_2
REMARK    2  A    between atoms: C_2  and  C_14
REMARK    3  A    between atoms: N_3  and  N_4
REMARK    4  A    between atoms: C_5  and  C_7
REMARK                            x       y       z     vdW  Elec       q    Type
REMARK                         _______ _______ _______ _____ _____    ______ ____
ROOT
ATOM      1  N   UNL     1       4.501   3.174  17.423  0.00  0.00    +0.000 N 
ATOM      2  C   UNL     1       3.115   3.141  17.484  0.00  0.00    +0.000 C 
ATOM      3  O   UNL     1       2.355   3.168  16.521  0.00  0.00    +0.000 OA
ATOM      4  H   UNL     1       5.036   2.974  18.254  0.00  0.00    +0.000 HD
ENDROOT
BRANCH   2   5
ATOM      5  C   UNL     1       2.545   3.034  18.860  0.00  0.00    +0.000 A 
ATOM      6  C   UNL     1       1.187   3.276  19.125  0.00  0.00    +0.000 A 
ATOM      7  C   UNL     1       0.699   3.171  20.430  0.00  0.00    +0.000 A 
ATOM      8  C   UNL     1       1.561   2.814  21.461  0.00  0.00    +0.000 A 
ATOM      9  F   UNL     1       1.088   2.715  22.710  0.00  0.00    +0.000 F 
ATOM     10  C   UNL     1       2.903   2.550  21.213  0.00  0.00    +0.000 A 
ATOM     11  C   UNL     1       3.397   2.655  19.909  0.00  0.00    +0.000 A 
ENDBRANCH   2   5
BRANCH   1  14
ATOM     12  C   UNL     1       5.169   5.760  16.368  0.00  0.00    +0.000 C 
ATOM     13  C   UNL     1       5.461   4.417  15.725  0.00  0.00    +0.000 C 
ATOM     14  N   UNL     1       5.129   3.259  16.220  0.00  0.00    +0.000 NA
BRANCH  13  15
ATOM     15  C   UNL     1       6.181   4.437  14.401  0.00  0.00    +0.000 A 
ATOM     16  C   UNL     1       7.277   5.273  14.171  0.00  0.00    +0.000 A 
ATOM     17  C   UNL     1       7.883   5.238  12.926  0.00  0.00    +0.000 A 
ATOM     18  N   UNL     1       7.479   4.441  11.918  0.00  0.00    +0.000 NA
ATOM     19  C   UNL     1       6.419   3.640  12.162  0.00  0.00    +0.000 A 
ATOM     20  C   UNL     1       5.746   3.602  13.371  0.00  0.00    +0.000 A 
ENDBRANCH  13  15
ENDBRANCH   1  14
TORSDOF 3
ENDMDL
MODEL 4
REMARK VINA RESULT:      -7.0      0.073      1.113
REMARK  Name = 
REMARK  4 active torsions:
REMARK  status: ('A' for Active; 'I' for Inactive)
REMARK    1  A    between atoms: C_1  and  C_2
REMARK    2  A    between atoms: C_2  and  C_14
REMARK    3  A    between atoms: N_3  and  N_4
REMARK    4  A    between atoms: C_5  and  C_7
REMARK                            x       y       z     vdW  Elec       q    Type
REMARK                         _______ _______ _______ _____ _____    ______ ____
ROOT
ATOM      1  N   UNL     1       4.471   3.178  17.408  0.00  0.00    +0.000 N 
ATOM      2  C   UNL     1       3.087   3.116  17.475  0.00  0.00    +0.000 C 
ATOM      3  O   UNL     1       2.323   3.105  16.516  0.00  0.00    +0.000 OA
ATOM      4  H   UNL     1       5.015   3.009  18.240  0.00  0.00    +0.000 HD
ENDROOT
BRANCH   2   5
ATOM      5  C   UNL     1       2.526   3.025  18.856  0.00  0.00    +0.000 A 
ATOM      6  C   UNL     1       1.177   3.303  19.132  0.00  0.00    +0.000 A 
ATOM      7  C   UNL     1       0.697   3.211  20.441  0.00  0.00    +0.000 A 
ATOM      8  C   UNL     1       1.557   2.832  21.465  0.00  0.00    +0.000 A 
ATOM      9  F   UNL     1       1.092   2.746  22.718  0.00  0.00    +0.000 F 
ATOM     10  C   UNL     1       2.890   2.533  21.206  0.00  0.00    +0.000 A 
ATOM     11  C   UNL     1       3.375   2.624  19.899  0.00  0.00    +0.000 A 
ENDBRANCH   2   5
BRANCH   1  14
ATOM     12  C   UNL     1       5.170   5.753  16.344  0.00  0.00    +0.000 C 
ATOM     13  C   UNL     1       5.438   4.405  15.700  0.00  0.00    +0.000 C 
ATOM     14  N   UNL     1       5.093   3.253  16.200  0.00  0.00    +0.000 NA
BRANCH  13  15
ATOM     15  C   UNL     1       6.149   4.413  14.372  0.00  0.00    +0.000 A 
ATOM     16  C   UNL     1       5.746   3.592  13.316  0.00  0.00    +0.000 A 
ATOM     17  C   UNL     1       6.454   3.653  12.127  0.00  0.00    +0.000 A 
ATOM     18  N   UNL     1       7.512   4.461  11.925  0.00  0.00    +0.000 NA
ATOM     19  C   UNL     1       7.884   5.248  12.958  0.00  0.00    +0.000 A 
ATOM     20  C   UNL     1       7.243   5.261  14.184  0.00  0.00    +0.000 A 
ENDBRANCH  13  15
ENDBRANCH   1  14
TORSDOF 3
ENDMDL
MODEL 5
REMARK VINA RESULT:      -6.9      5.889      8.862
REMARK  Name = 
REMARK  4 active torsions:
REMARK  status: ('A' for Active; 'I' for Inactive)
REMARK    1  A    between atoms: C_1  and  C_2
REMARK    2  A    between atoms: C_2  and  C_14
REMARK    3  A    between atoms: N_3  and  N_4
REMARK    4  A    between atoms: C_5  and  C_7
REMARK                            x       y       z     vdW  Elec       q    Type
REMARK                         _______ _______ _______ _____ _____    ______ ____
ROOT
ATOM      1  N   UNL     1       2.576   7.566  18.961  0.00  0.00    +0.000 N 
ATOM      2  C   UNL     1       3.092   6.283  19.083  0.00  0.00    +0.000 C 
ATOM      3  O   UNL     1       2.978   5.556  20.064  0.00  0.00    +0.000 OA
ATOM      4  H   UNL     1       2.575   8.013  18.058  0.00  0.00    +0.000 HD
ENDROOT
BRANCH   2   5
ATOM      5  C   UNL     1       3.815   5.776  17.878  0.00  0.00    +0.000 A 
ATOM      6  C   UNL     1       4.534   6.631  17.027  0.00  0.00    +0.000 A 
ATOM      7  C   UNL     1       5.189   6.113  15.907  0.00  0.00    +0.000 A 
ATOM      8  C   UNL     1       5.137   4.749  15.648  0.00  0.00    +0.000 A 
ATOM      9  F   UNL     1       5.767   4.257  14.573  0.00  0.00    +0.000 F 
ATOM     10  C   UNL     1       4.447   3.886  16.492  0.00  0.00    +0.000 A 
ATOM     11  C   UNL     1       3.788   4.399  17.613  0.00  0.00    +0.000 A 
ENDBRANCH   2   5
BRANCH   1  14
ATOM     12  C   UNL     1       1.014   9.929  18.490  0.00  0.00    +0.000 C 
ATOM     13  C   UNL     1       1.157   9.187  19.806  0.00  0.00    +0.000 C 
ATOM     14  N   UNL     1       1.889   8.125  19.992  0.00  0.00    +0.000 NA
BRANCH  13  15
ATOM     15  C   UNL     1       0.399   9.738  20.986  0.00  0.00    +0.000 A 
ATOM     16  C   UNL     1      -0.355  10.910  20.895  0.00  0.00    +0.000 A 
ATOM     17  C   UNL     1      -1.020  11.356  22.025  0.00  0.00    +0.000 A 
ATOM     18  N   UNL     1      -0.984  10.723  23.214  0.00  0.00    +0.000 NA
ATOM     19  C   UNL     1      -0.250   9.590  23.280  0.00  0.00    +0.000 A 
ATOM     20  C   UNL     1       0.449   9.064  22.208  0.00  0.00    +0.000 A 
ENDBRANCH  13  15
ENDBRANCH   1  14
TORSDOF 3
ENDMDL
MODEL 6
REMARK VINA RESULT:      -6.9      5.725      8.672
REMARK  Name = 
REMARK  4 active torsions:
REMARK  status: ('A' for Active; 'I' for Inactive)
REMARK    1  A    between atoms: C_1  and  C_2
REMARK    2  A    between atoms: C_2  and  C_14
REMARK    3  A    between atoms: N_3  and  N_4
REMARK    4  A    between atoms: C_5  and  C_7
REMARK                            x       y       z     vdW  Elec       q    Type
REMARK                         _______ _______ _______ _____ _____    ______ ____
ROOT
ATOM      1  N   UNL     1       2.709   7.264  18.667  0.00  0.00    +0.000 N 
ATOM      2  C   UNL     1       3.503   6.144  18.864  0.00  0.00    +0.000 C 
ATOM      3  O   UNL     1       3.696   5.583  19.938  0.00  0.00    +0.000 OA
ATOM      4  H   UNL     1       2.477   7.546  17.727  0.00  0.00    +0.000 HD
ENDROOT
BRANCH   2   5
ATOM      5  C   UNL     1       4.133   5.591  17.628  0.00  0.00    +0.000 A 
ATOM      6  C   UNL     1       4.158   4.213  17.357  0.00  0.00    +0.000 A 
ATOM      7  C   UNL     1       4.765   3.740  16.191  0.00  0.00    +0.000 A 
ATOM      8  C   UNL     1       5.332   4.639  15.297  0.00  0.00    +0.000 A 
ATOM      9  F   UNL     1       5.912   4.181  14.180  0.00  0.00    +0.000 F 
ATOM     10  C   UNL     1       5.298   6.008  15.538  0.00  0.00    +0.000 A 
ATOM     11  C   UNL     1       4.693   6.486  16.704  0.00  0.00    +0.000 A 
ENDBRANCH   2   5
BRANCH   1  14
ATOM     12  C   UNL     1       1.464   9.829  18.317  0.00  0.00    +0.000 C 
ATOM     13  C   UNL     1       1.487   9.000  19.588  0.00  0.00    +0.000 C 
ATOM     14  N   UNL     1       2.077   7.846  19.721  0.00  0.00    +0.000 NA
BRANCH  13  15
ATOM     15  C   UNL     1       0.781   9.574  20.789  0.00  0.00    +0.000 A 
ATOM     16  C   UNL     1       0.079  10.781  20.725  0.00  0.00    +0.000 A 
ATOM     17  C   UNL     1      -0.541  11.245  21.873  0.00  0.00    +0.000 A 
ATOM     18  N   UNL     1      -0.509  10.599  23.055  0.00  0.00    +0.000 NA
ATOM     19  C   UNL     1       0.173   9.434  23.095  0.00  0.00    +0.000 A 
ATOM     20  C   UNL     1       0.825   8.887  22.004  0.00  0.00    +0.000 A 
ENDBRANCH  13  15
ENDBRANCH   1  14
TORSDOF 3
ENDMDL
MODEL 7
REMARK VINA RESULT:      -6.8      5.796      8.765
REMARK  Name = 
REMARK  4 active torsions:
REMARK  status: ('A' for Active; 'I' for Inactive)
REMARK    1  A    between atoms: C_1  and  C_2
REMARK    2  A    between atoms: C_2  and  C_14
REMARK    3  A    between atoms: N_3  and  N_4
REMARK    4  A    between atoms: C_5  and  C_7
REMARK                            x       y       z     vdW  Elec       q    Type
REMARK                         _______ _______ _______ _____ _____    ______ ____
ROOT
ATOM      1  N   UNL     1       2.658   7.434  18.711  0.00  0.00    +0.000 N 
ATOM      2  C   UNL     1       3.322   6.227  18.875  0.00  0.00    +0.000 C 
ATOM      3  O   UNL     1       3.342   5.554  19.900  0.00  0.00    +0.000 OA
ATOM      4  H   UNL     1       2.560   7.822  17.785  0.00  0.00    +0.000 HD
ENDROOT
BRANCH   2   5
ATOM      5  C   UNL     1       4.036   5.729  17.662  0.00  0.00    +0.000 A 
ATOM      6  C   UNL     1       4.137   4.359  17.367  0.00  0.00    +0.000 A 
ATOM      7  C   UNL     1       4.821   3.938  16.223  0.00  0.00    +0.000 A 
ATOM      8  C   UNL     1       5.389   4.881  15.375  0.00  0.00    +0.000 A 
ATOM      9  F   UNL     1       6.044   4.472  14.280  0.00  0.00    +0.000 F 
ATOM     10  C   UNL     1       5.281   6.241  15.641  0.00  0.00    +0.000 A 
ATOM     11  C   UNL     1       4.599   6.668  16.784  0.00  0.00    +0.000 A 
ENDBRANCH   2   5
BRANCH   1  14
ATOM     12  C   UNL     1       1.215   9.884  18.304  0.00  0.00    +0.000 C 
ATOM     13  C   UNL     1       1.286   9.078  19.588  0.00  0.00    +0.000 C 
ATOM     14  N   UNL     1       1.965   7.978  19.747  0.00  0.00    +0.000 NA
BRANCH  13  15
ATOM     15  C   UNL     1       0.517   9.609  20.770  0.00  0.00    +0.000 A 
ATOM     16  C   UNL     1       0.540   8.969  22.012  0.00  0.00    +0.000 A 
ATOM     17  C   UNL     1      -0.197   9.516  23.049  0.00  0.00    +0.000 A 
ATOM     18  N   UNL     1      -0.938  10.635  22.933  0.00  0.00    +0.000 NA
ATOM     19  C   UNL     1      -0.945  11.240  21.725  0.00  0.00    +0.000 A 
ATOM     20  C   UNL     1      -0.243  10.772  20.628  0.00  0.00    +0.000 A 
ENDBRANCH  13  15
ENDBRANCH   1  14
TORSDOF 3
ENDMDL
MODEL 8
REMARK VINA RESULT:      -6.7      5.930      8.820
REMARK  Name = 
REMARK  4 active torsions:
REMARK  status: ('A' for Active; 'I' for Inactive)
REMARK    1  A    between atoms: C_1  and  C_2
REMARK    2  A    between atoms: C_2  and  C_14
REMARK    3  A    between atoms: N_3  and  N_4
REMARK    4  A    between atoms: C_5  and  C_7
REMARK                            x       y       z     vdW  Elec       q    Type
REMARK                         _______ _______ _______ _____ _____    ______ ____
ROOT
ATOM      1  N   UNL     1       2.522   7.511  19.104  0.00  0.00    +0.000 N 
ATOM      2  C   UNL     1       2.947   6.198  19.247  0.00  0.00    +0.000 C 
ATOM      3  O   UNL     1       2.759   5.488  20.229  0.00  0.00    +0.000 OA
ATOM      4  H   UNL     1       2.574   7.951  18.199  0.00  0.00    +0.000 HD
ENDROOT
BRANCH   2   5
ATOM      5  C   UNL     1       3.664   5.634  18.065  0.00  0.00    +0.000 A 
ATOM      6  C   UNL     1       4.422   6.441  17.199  0.00  0.00    +0.000 A 
ATOM      7  C   UNL     1       5.071   5.871  16.101  0.00  0.00    +0.000 A 
ATOM      8  C   UNL     1       4.973   4.503  15.877  0.00  0.00    +0.000 A 
ATOM      9  F   UNL     1       5.598   3.961  14.823  0.00  0.00    +0.000 F 
ATOM     10  C   UNL     1       4.246   3.687  16.736  0.00  0.00    +0.000 A 
ATOM     11  C   UNL     1       3.593   4.252  17.835  0.00  0.00    +0.000 A 
ENDBRANCH   2   5
BRANCH   1  14
ATOM     12  C   UNL     1       0.982   9.869  18.539  0.00  0.00    +0.000 C 
ATOM     13  C   UNL     1       1.127   9.184  19.885  0.00  0.00    +0.000 C 
ATOM     14  N   UNL     1       1.848   8.124  20.114  0.00  0.00    +0.000 NA
BRANCH  13  15
ATOM     15  C   UNL     1       0.383   9.795  21.045  0.00  0.00    +0.000 A 
ATOM     16  C   UNL     1       0.146   9.085  22.225  0.00  0.00    +0.000 A 
ATOM     17  C   UNL     1      -0.549   9.714  23.244  0.00  0.00    +0.000 A 
ATOM     18  N   UNL     1      -1.012  10.976  23.167  0.00  0.00    +0.000 NA
ATOM     19  C   UNL     1      -0.772  11.646  22.019  0.00  0.00    +0.000 A 
ATOM     20  C   UNL     1      -0.087  11.106  20.943  0.00  0.00    +0.000 A 
ENDBRANCH  13  15
ENDBRANCH   1  14
TORSDOF 3
ENDMDL
MODEL 9
REMARK VINA RESULT:      -6.7      6.119      8.921
REMARK  Name = 
REMARK  4 active torsions:
REMARK  status: ('A' for Active; 'I' for Inactive)
REMARK    1  A    between atoms: C_1  and  C_2
REMARK    2  A    between atoms: C_2  and  C_14
REMARK    3  A    between atoms: N_3  and  N_4
REMARK    4  A    between atoms: C_5  and  C_7
REMARK                            x       y       z     vdW  Elec       q    Type
REMARK                         _______ _______ _______ _____ _____    ______ ____
ROOT
ATOM      1  N   UNL     1       2.318   7.611  19.361  0.00  0.00    +0.000 N 
ATOM      2  C   UNL     1       2.536   6.251  19.525  0.00  0.00    +0.000 C 
ATOM      3  O   UNL     1       2.160   5.575  20.477  0.00  0.00    +0.000 OA
ATOM      4  H   UNL     1       2.514   8.038  18.469  0.00  0.00    +0.000 HD
ENDROOT
BRANCH   2   5
ATOM      5  C   UNL     1       3.271   5.589  18.405  0.00  0.00    +0.000 A 
ATOM      6  C   UNL     1       3.124   4.221  18.124  0.00  0.00    +0.000 A 
ATOM      7  C   UNL     1       3.837   3.643  17.070  0.00  0.00    +0.000 A 
ATOM      8  C   UNL     1       4.680   4.430  16.296  0.00  0.00    +0.000 A 
ATOM      9  F   UNL     1       5.361   3.871  15.287  0.00  0.00    +0.000 F 
ATOM     10  C   UNL     1       4.821   5.790  16.547  0.00  0.00    +0.000 A 
ATOM     11  C   UNL     1       4.111   6.373  17.601  0.00  0.00    +0.000 A 
ENDBRANCH   2   5
BRANCH   1  14
ATOM     12  C   UNL     1       0.954  10.029  18.624  0.00  0.00    +0.000 C 
ATOM     13  C   UNL     1       1.006   9.405  20.006  0.00  0.00    +0.000 C 
ATOM     14  N   UNL     1       1.649   8.314  20.313  0.00  0.00    +0.000 NA
BRANCH  13  15
ATOM     15  C   UNL     1       0.262  10.118  21.105  0.00  0.00    +0.000 A 
ATOM     16  C   UNL     1      -0.031  11.482  21.031  0.00  0.00    +0.000 A 
ATOM     17  C   UNL     1      -0.714  12.068  22.084  0.00  0.00    +0.000 A 
ATOM     18  N   UNL     1      -1.116  11.398  23.182  0.00  0.00    +0.000 NA
ATOM     19  C   UNL     1      -0.824  10.080  23.233  0.00  0.00    +0.000 A 
ATOM     20  C   UNL     1      -0.147   9.403  22.233  0.00  0.00    +0.000 A 
ENDBRANCH  13  15
ENDBRANCH   1  14
TORSDOF 3
ENDMDL
