MODEL 1
REMARK VINA RESULT:      -7.8      0.000      0.000
REMARK  Name = 
REMARK  3 active torsions:
REMARK  status: ('A' for Active; 'I' for Inactive)
REMARK    1  A    between atoms: C_1  and  O_2
REMARK    2  A    between atoms: O_2  and  C_3
REMARK    3  A    between atoms: C_5  and  C_6
REMARK                            x       y       z     vdW  Elec       q    Type
REMARK                         _______ _______ _______ _____ _____    ______ ____
ROOT
ATOM      1  C   UNL     1       5.982   6.368  17.044  0.00  0.00    +0.000 A 
ATOM      2  C   UNL     1       4.898   6.077  17.878  0.00  0.00    +0.000 A 
ATOM      3  C   UNL     1       4.116   4.918  17.707  0.00  0.00    +0.000 A 
ATOM      4  C   UNL     1       4.425   4.083  16.619  0.00  0.00    +0.000 A 
ATOM      5  C   UNL     1       5.454   4.401  15.721  0.00  0.00    +0.000 A 
ATOM      6  C   UNL     1       6.231   5.541  15.942  0.00  0.00    +0.000 A 
ATOM      7  N   UNL     1       7.292   5.825  15.072  0.00  0.00    +0.000 N 
ATOM      8  C   UNL     1       7.510   5.176  13.884  0.00  0.00    +0.000 C 
ATOM      9  O   UNL     1       8.493   5.423  13.189  0.00  0.00    +0.000 OA
ATOM     10  C   UNL     1       6.410   4.247  13.430  0.00  0.00    +0.000 C 
ATOM     11  C   UNL     1       5.820   3.473  14.596  0.00  0.00    +0.000 C 
ATOM     12  H   UNL     1       7.934   6.566  15.324  0.00  0.00    +0.000 HD
ENDROOT
BRANCH   3  13
ATOM     13  C   UNL     1       3.035   4.582  18.665  0.00  0.00    +0.000 A 
ATOM     14  C   UNL     1       2.058   3.621  18.376  0.00  0.00    +0.000 A 
ATOM     15  C   UNL     1       1.082   3.331  19.317  0.00  0.00    +0.000 A 
ATOM     16  N   UNL     1       0.996   3.932  20.520  0.00  0.00    +0.000 NA
ATOM     17  C   UNL     1       1.931   4.861  20.793  0.00  0.00    +0.000 A 
ATOM     18  C   UNL     1       2.951   5.206  19.919  0.00  0.00    +0.000 A 
ENDBRANCH   3  13
BRANCH   1  20
ATOM     19  C   UNL     1       7.853   7.251  18.182  0.00  0.00    +0.000 C 
ATOM     20  O   UNL     1       6.817   7.445  17.221  0.00  0.00    +0.000 OA
ENDBRANCH   1  20
TORSDOF 2
ENDMDL
MODEL 2
REMARK VINA RESULT:      -7.8      0.203      1.089
REMARK  Name = 
REMARK  3 active torsions:
REMARK  status: ('A' for Active; 'I' for Inactive)
REMARK    1  A    between atoms: C_1  and  O_2
REMARK    2  A    between atoms: O_2  and  C_3
REMARK    3  A    between atoms: C_5  and  C_6
REMARK                            x       y       z     vdW  Elec       q    Type
REMARK                         _______ _______ _______ _____ _____    ______ ____
ROOT
ATOM      1  C   UNL     1       5.956   6.258  17.227  0.00  0.00    +0.000 A 
ATOM      2  C   UNL     1       4.872   5.930  18.046  0.00  0.00    +0.000 A 
ATOM      3  C   UNL     1       4.090   4.778  17.823  0.00  0.00    +0.000 A 
ATOM      4  C   UNL     1       4.401   3.994  16.698  0.00  0.00    +0.000 A 
ATOM      5  C   UNL     1       5.431   4.353  15.816  0.00  0.00    +0.000 A 
ATOM      6  C   UNL     1       6.206   5.483  16.089  0.00  0.00    +0.000 A 
ATOM      7  N   UNL     1       7.268   5.806  15.233  0.00  0.00    +0.000 N 
ATOM      8  C   UNL     1       7.487   5.212  14.017  0.00  0.00    +0.000 C 
ATOM      9  O   UNL     1       8.470   5.491  13.335  0.00  0.00    +0.000 OA
ATOM     10  C   UNL     1       6.387   4.304  13.520  0.00  0.00    +0.000 C 
ATOM     11  C   UNL     1       5.797   3.477  14.650  0.00  0.00    +0.000 C 
ATOM     12  H   UNL     1       7.909   6.535  15.519  0.00  0.00    +0.000 HD
ENDROOT
BRANCH   3  13
ATOM     13  C   UNL     1       3.009   4.399  18.764  0.00  0.00    +0.000 A 
ATOM     14  C   UNL     1       2.947   4.907  20.067  0.00  0.00    +0.000 A 
ATOM     15  C   UNL     1       1.901   4.534  20.898  0.00  0.00    +0.000 A 
ATOM     16  N   UNL     1       0.920   3.684  20.537  0.00  0.00    +0.000 NA
ATOM     17  C   UNL     1       0.986   3.191  19.286  0.00  0.00    +0.000 A 
ATOM     18  C   UNL     1       1.986   3.518  18.382  0.00  0.00    +0.000 A 
ENDBRANCH   3  13
BRANCH   1  20
ATOM     19  C   UNL     1       7.896   7.054  18.313  0.00  0.00    +0.000 C 
ATOM     20  O   UNL     1       6.791   7.326  17.453  0.00  0.00    +0.000 OA
ENDBRANCH   1  20
TORSDOF 2
ENDMDL
MODEL 3
REMARK VINA RESULT:      -7.7      1.229      1.229
REMARK  Name = 
REMARK  3 active torsions:
REMARK  status: ('A' for Active; 'I' for Inactive)
REMARK    1  A    between atoms: C_1  and  O_2
REMARK    2  A    between atoms: O_2  and  C_3
REMARK    3  A    between atoms: C_5  and  C_6
REMARK                            x       y       z     vdW  Elec       q    Type
REMARK                         _______ _______ _______ _____ _____    ______ ____
ROOT
ATOM      1  C   UNL     1       6.205   5.618  17.974  0.00  0.00    +0.000 A 
ATOM      2  C   UNL     1       5.157   5.246  18.822  0.00  0.00    +0.000 A 
ATOM      3  C   UNL     1       4.184   4.303  18.434  0.00  0.00    +0.000 A 
ATOM      4  C   UNL     1       4.266   3.789  17.129  0.00  0.00    +0.000 A 
ATOM      5  C   UNL     1       5.259   4.213  16.235  0.00  0.00    +0.000 A 
ATOM      6  C   UNL     1       6.227   5.124  16.666  0.00  0.00    +0.000 A 
ATOM      7  N   UNL     1       7.250   5.502  15.784  0.00  0.00    +0.000 N 
ATOM      8  C   UNL     1       7.264   5.205  14.446  0.00  0.00    +0.000 C 
ATOM      9  O   UNL     1       8.217   5.510  13.732  0.00  0.00    +0.000 OA
ATOM     10  C   UNL     1       5.994   4.607  13.891  0.00  0.00    +0.000 C 
ATOM     11  C   UNL     1       5.378   3.613  14.861  0.00  0.00    +0.000 C 
ATOM     12  H   UNL     1       8.022   6.044  16.151  0.00  0.00    +0.000 HD
ENDROOT
BRANCH   3  13
ATOM     13  C   UNL     1       3.141   3.851  19.387  0.00  0.00    +0.000 A 
ATOM     14  C   UNL     1       1.799   4.228  19.252  0.00  0.00    +0.000 A 
ATOM     15  C   UNL     1       0.862   3.759  20.160  0.00  0.00    +0.000 A 
ATOM     16  N   UNL     1       1.159   2.954  21.199  0.00  0.00    +0.000 NA
ATOM     17  C   UNL     1       2.451   2.599  21.331  0.00  0.00    +0.000 A 
ATOM     18  C   UNL     1       3.453   3.008  20.464  0.00  0.00    +0.000 A 
ENDBRANCH   3  13
BRANCH   1  20
ATOM     19  C   UNL     1       8.108   5.963  19.330  0.00  0.00    +0.000 C 
ATOM     20  O   UNL     1       7.217   6.473  18.339  0.00  0.00    +0.000 OA
ENDBRANCH   1  20
TORSDOF 2
ENDMDL
MODEL 4
REMARK VINA RESULT:      -7.6      2.255      6.174
REMARK  Name = 
REMARK  3 active torsions:
REMARK  status: ('A' for Active; 'I' for Inactive)
REMARK    1  A    between atoms: C_1  and  O_2
REMARK    2  A    between atoms: O_2  and  C_3
REMARK    3  A    between atoms: C_5  and  C_6
REMARK                            x       y       z     vdW  Elec       q    Type
REMARK                         _______ _______ _______ _____ _____    ______ ____
ROOT
ATOM      1  C   UNL     1       5.904   4.737  18.339  0.00  0.00    +0.000 A 
ATOM      2  C   UNL     1       6.432   4.598  17.051  0.00  0.00    +0.000 A 
ATOM      3  C   UNL     1       5.610   4.378  15.928  0.00  0.00    +0.000 A 
ATOM      4  C   UNL     1       4.230   4.239  16.155  0.00  0.00    +0.000 A 
ATOM      5  C   UNL     1       3.690   4.291  17.448  0.00  0.00    +0.000 A 
ATOM      6  C   UNL     1       4.532   4.545  18.534  0.00  0.00    +0.000 A 
ATOM      7  N   UNL     1       3.979   4.649  19.818  0.00  0.00    +0.000 N 
ATOM      8  C   UNL     1       2.687   4.316  20.130  0.00  0.00    +0.000 C 
ATOM      9  O   UNL     1       2.237   4.486  21.261  0.00  0.00    +0.000 OA
ATOM     10  C   UNL     1       1.907   3.614  19.045  0.00  0.00    +0.000 C 
ATOM     11  C   UNL     1       2.207   4.202  17.676  0.00  0.00    +0.000 C 
ATOM     12  H   UNL     1       4.573   4.976  20.570  0.00  0.00    +0.000 HD
ENDROOT
BRANCH   3  13
ATOM     13  C   UNL     1       6.185   4.333  14.562  0.00  0.00    +0.000 A 
ATOM     14  C   UNL     1       5.629   3.543  13.548  0.00  0.00    +0.000 A 
ATOM     15  C   UNL     1       6.196   3.556  12.283  0.00  0.00    +0.000 A 
ATOM     16  N   UNL     1       7.279   4.284  11.951  0.00  0.00    +0.000 NA
ATOM     17  C   UNL     1       7.816   5.037  12.929  0.00  0.00    +0.000 A 
ATOM     18  C   UNL     1       7.310   5.098  14.219  0.00  0.00    +0.000 A 
ENDBRANCH   3  13
BRANCH   1  20
ATOM     19  C   UNL     1       7.871   5.735  19.183  0.00  0.00    +0.000 C 
ATOM     20  O   UNL     1       6.660   5.030  19.449  0.00  0.00    +0.000 OA
ENDBRANCH   1  20
TORSDOF 2
ENDMDL
MODEL 5
REMARK VINA RESULT:      -7.6      2.262      6.250
REMARK  Name = 
REMARK  3 active torsions:
REMARK  status: ('A' for Active; 'I' for Inactive)
REMARK    1  A    between atoms: C_1  and  O_2
REMARK    2  A    between atoms: O_2  and  C_3
REMARK    3  A    between atoms: C_5  and  C_6
REMARK                            x       y       z     vdW  Elec       q    Type
REMARK                         _______ _______ _______ _____ _____    ______ ____
ROOT
ATOM      1  C   UNL     1       5.778   4.805  18.465  0.00  0.00    +0.000 A 
ATOM      2  C   UNL     1       6.328   4.676  17.186  0.00  0.00    +0.000 A 
ATOM      3  C   UNL     1       5.530   4.410  16.055  0.00  0.00    +0.000 A 
ATOM      4  C   UNL     1       4.154   4.213  16.265  0.00  0.00    +0.000 A 
ATOM      5  C   UNL     1       3.597   4.254  17.551  0.00  0.00    +0.000 A 
ATOM      6  C   UNL     1       4.413   4.555  18.645  0.00  0.00    +0.000 A 
ATOM      7  N   UNL     1       3.840   4.648  19.921  0.00  0.00    +0.000 N 
ATOM      8  C   UNL     1       2.559   4.263  20.221  0.00  0.00    +0.000 C 
ATOM      9  O   UNL     1       2.088   4.424  21.344  0.00  0.00    +0.000 OA
ATOM     10  C   UNL     1       1.824   3.517  19.133  0.00  0.00    +0.000 C 
ATOM     11  C   UNL     1       2.116   4.105  17.763  0.00  0.00    +0.000 C 
ATOM     12  H   UNL     1       4.409   5.008  20.676  0.00  0.00    +0.000 HD
ENDROOT
BRANCH   3  13
ATOM     13  C   UNL     1       6.124   4.376  14.696  0.00  0.00    +0.000 A 
ATOM     14  C   UNL     1       7.265   5.118  14.366  0.00  0.00    +0.000 A 
ATOM     15  C   UNL     1       7.789   5.033  13.085  0.00  0.00    +0.000 A 
ATOM     16  N   UNL     1       7.260   4.277  12.104  0.00  0.00    +0.000 NA
ATOM     17  C   UNL     1       6.159   3.571  12.422  0.00  0.00    +0.000 A 
ATOM     18  C   UNL     1       5.573   3.583  13.678  0.00  0.00    +0.000 A 
ENDBRANCH   3  13
BRANCH   1  20
ATOM     19  C   UNL     1       7.791   5.701  19.315  0.00  0.00    +0.000 C 
ATOM     20  O   UNL     1       6.507   5.140  19.581  0.00  0.00    +0.000 OA
ENDBRANCH   1  20
TORSDOF 2
ENDMDL
MODEL 6
REMARK VINA RESULT:      -7.6      1.296      1.334
REMARK  Name = 
REMARK  3 active torsions:
REMARK  status: ('A' for Active; 'I' for Inactive)
REMARK    1  A    between atoms: C_1  and  O_2
REMARK    2  A    between atoms: O_2  and  C_3
REMARK    3  A    between atoms: C_5  and  C_6
REMARK                            x       y       z     vdW  Elec       q    Type
REMARK                         _______ _______ _______ _____ _____    ______ ____
ROOT
ATOM      1  C   UNL     1       6.761   5.714  17.826  0.00  0.00    +0.000 A 
ATOM      2  C   UNL     1       5.827   5.364  18.806  0.00  0.00    +0.000 A 
ATOM      3  C   UNL     1       4.815   4.412  18.566  0.00  0.00    +0.000 A 
ATOM      4  C   UNL     1       4.736   3.865  17.273  0.00  0.00    +0.000 A 
ATOM      5  C   UNL     1       5.609   4.266  16.252  0.00  0.00    +0.000 A 
ATOM      6  C   UNL     1       6.621   5.187  16.537  0.00  0.00    +0.000 A 
ATOM      7  N   UNL     1       7.525   5.543  15.526  0.00  0.00    +0.000 N 
ATOM      8  C   UNL     1       7.374   5.212  14.204  0.00  0.00    +0.000 C 
ATOM      9  O   UNL     1       8.230   5.498  13.370  0.00  0.00    +0.000 OA
ATOM     10  C   UNL     1       6.046   4.602  13.826  0.00  0.00    +0.000 C 
ATOM     11  C   UNL     1       5.558   3.633  14.890  0.00  0.00    +0.000 C 
ATOM     12  H   UNL     1       8.336   6.093  15.781  0.00  0.00    +0.000 HD
ENDROOT
BRANCH   3  13
ATOM     13  C   UNL     1       3.900   3.985  19.651  0.00  0.00    +0.000 A 
ATOM     14  C   UNL     1       3.959   2.703  20.210  0.00  0.00    +0.000 A 
ATOM     15  C   UNL     1       3.092   2.363  21.238  0.00  0.00    +0.000 A 
ATOM     16  N   UNL     1       2.163   3.197  21.745  0.00  0.00    +0.000 NA
ATOM     17  C   UNL     1       2.103   4.427  21.200  0.00  0.00    +0.000 A 
ATOM     18  C   UNL     1       2.937   4.858  20.180  0.00  0.00    +0.000 A 
ENDBRANCH   3  13
BRANCH   1  20
ATOM     19  C   UNL     1       7.565   7.927  17.650  0.00  0.00    +0.000 C 
ATOM     20  O   UNL     1       7.808   6.577  18.040  0.00  0.00    +0.000 OA
ENDBRANCH   1  20
TORSDOF 2
ENDMDL
MODEL 7
REMARK VINA RESULT:      -7.1      3.681      5.685
REMARK  Name = 
REMARK  3 active torsions:
REMARK  status: ('A' for Active; 'I' for Inactive)
REMARK    1  A    between atoms: C_1  and  O_2
REMARK    2  A    between atoms: O_2  and  C_3
REMARK    3  A    between atoms: C_5  and  C_6
REMARK                            x       y       z     vdW  Elec       q    Type
REMARK                         _______ _______ _______ _____ _____    ______ ____
ROOT
ATOM      1  C   UNL     1       3.188   5.927  18.293  0.00  0.00    +0.000 A 
ATOM      2  C   UNL     1       2.638   7.113  18.791  0.00  0.00    +0.000 A 
ATOM      3  C   UNL     1       1.874   7.141  19.975  0.00  0.00    +0.000 A 
ATOM      4  C   UNL     1       1.628   5.913  20.615  0.00  0.00    +0.000 A 
ATOM      5  C   UNL     1       2.100   4.703  20.086  0.00  0.00    +0.000 A 
ATOM      6  C   UNL     1       2.882   4.719  18.929  0.00  0.00    +0.000 A 
ATOM      7  N   UNL     1       3.396   3.511  18.435  0.00  0.00    +0.000 N 
ATOM      8  C   UNL     1       3.021   2.272  18.885  0.00  0.00    +0.000 C 
ATOM      9  O   UNL     1       3.550   1.248  18.458  0.00  0.00    +0.000 OA
ATOM     10  C   UNL     1       1.841   2.243  19.827  0.00  0.00    +0.000 C 
ATOM     11  C   UNL     1       1.886   3.402  20.808  0.00  0.00    +0.000 C 
ATOM     12  H   UNL     1       4.077   3.551  17.687  0.00  0.00    +0.000 HD
ENDROOT
BRANCH   3  13
ATOM     13  C   UNL     1       1.386   8.424  20.535  0.00  0.00    +0.000 A 
ATOM     14  C   UNL     1       1.116   9.533  19.725  0.00  0.00    +0.000 A 
ATOM     15  C   UNL     1       0.641  10.702  20.300  0.00  0.00    +0.000 A 
ATOM     16  N   UNL     1       0.426  10.857  21.621  0.00  0.00    +0.000 NA
ATOM     17  C   UNL     1       0.693   9.792  22.399  0.00  0.00    +0.000 A 
ATOM     18  C   UNL     1       1.158   8.580  21.911  0.00  0.00    +0.000 A 
ENDBRANCH   3  13
BRANCH   1  20
ATOM     19  C   UNL     1       5.216   6.607  17.293  0.00  0.00    +0.000 C 
ATOM     20  O   UNL     1       4.002   5.867  17.188  0.00  0.00    +0.000 OA
ENDBRANCH   1  20
TORSDOF 2
ENDMDL
MODEL 8
REMARK VINA RESULT:      -7.1      3.677      5.708
REMARK  Name = 
REMARK  3 active torsions:
REMARK  status: ('A' for Active; 'I' for Inactive)
REMARK    1  A    between atoms: C_1  and  O_2
REMARK    2  A    between atoms: O_2  and  C_3
REMARK    3  A    between atoms: C_5  and  C_6
REMARK                            x       y       z     vdW  Elec       q    Type
REMARK                         _______ _______ _______ _____ _____    ______ ____
ROOT
ATOM      1  C   UNL     1       3.203   5.906  18.279  0.00  0.00    +0.000 A 
ATOM      2  C   UNL     1       2.647   7.091  18.773  0.00  0.00    +0.000 A 
ATOM      3  C   UNL     1       1.880   7.119  19.955  0.00  0.00    +0.000 A 
ATOM      4  C   UNL     1       1.637   5.892  20.597  0.00  0.00    +0.000 A 
ATOM      5  C   UNL     1       2.114   4.682  20.072  0.00  0.00    +0.000 A 
ATOM      6  C   UNL     1       2.899   4.698  18.916  0.00  0.00    +0.000 A 
ATOM      7  N   UNL     1       3.418   3.491  18.427  0.00  0.00    +0.000 N 
ATOM      8  C   UNL     1       3.045   2.251  18.879  0.00  0.00    +0.000 C 
ATOM      9  O   UNL     1       3.579   1.228  18.455  0.00  0.00    +0.000 OA
ATOM     10  C   UNL     1       1.864   2.220  19.818  0.00  0.00    +0.000 C 
ATOM     11  C   UNL     1       1.902   3.382  20.796  0.00  0.00    +0.000 C 
ATOM     12  H   UNL     1       4.100   3.531  17.680  0.00  0.00    +0.000 HD
ENDROOT
BRANCH   3  13
ATOM     13  C   UNL     1       1.387   8.401  20.511  0.00  0.00    +0.000 A 
ATOM     14  C   UNL     1       1.175   8.583  21.883  0.00  0.00    +0.000 A 
ATOM     15  C   UNL     1       0.732   9.811  22.350  0.00  0.00    +0.000 A 
ATOM     16  N   UNL     1       0.471  10.869  21.557  0.00  0.00    +0.000 NA
ATOM     17  C   UNL     1       0.668  10.689  20.237  0.00  0.00    +0.000 A 
ATOM     18  C   UNL     1       1.122   9.502  19.682  0.00  0.00    +0.000 A 
ENDBRANCH   3  13
BRANCH   1  20
ATOM     19  C   UNL     1       5.118   6.755  17.189  0.00  0.00    +0.000 C 
ATOM     20  O   UNL     1       4.019   5.845  17.176  0.00  0.00    +0.000 OA
ENDBRANCH   1  20
TORSDOF 2
ENDMDL
MODEL 9
REMARK VINA RESULT:      -7.1      1.293      1.425
REMARK  Name = 
REMARK  3 active torsions:
REMARK  status: ('A' for Active; 'I' for Inactive)
REMARK    1  A    between atoms: C_1  and  O_2
REMARK    2  A    between atoms: O_2  and  C_3
REMARK    3  A    between atoms: C_5  and  C_6
REMARK                            x       y       z     vdW  Elec       q    Type
REMARK                         _______ _______ _______ _____ _____    ______ ____
ROOT
ATOM      1  C   UNL     1       6.546   5.512  16.919  0.00  0.00    +0.000 A 
ATOM      2  C   UNL     1       5.421   5.053  17.612  0.00  0.00    +0.000 A 
ATOM      3  C   UNL     1       4.520   4.130  17.043  0.00  0.00    +0.000 A 
ATOM      4  C   UNL     1       4.758   3.727  15.717  0.00  0.00    +0.000 A 
ATOM      5  C   UNL     1       5.832   4.241  14.976  0.00  0.00    +0.000 A 
ATOM      6  C   UNL     1       6.724   5.128  15.585  0.00  0.00    +0.000 A 
ATOM      7  N   UNL     1       7.827   5.596  14.857  0.00  0.00    +0.000 N 
ATOM      8  C   UNL     1       7.995   5.412  13.509  0.00  0.00    +0.000 C 
ATOM      9  O   UNL     1       9.012   5.791  12.932  0.00  0.00    +0.000 OA
ATOM     10  C   UNL     1       6.809   4.842  12.769  0.00  0.00    +0.000 C 
ATOM     11  C   UNL     1       6.116   3.760  13.581  0.00  0.00    +0.000 C 
ATOM     12  H   UNL     1       8.540   6.118  15.350  0.00  0.00    +0.000 HD
ENDROOT
BRANCH   3  13
ATOM     13  C   UNL     1       3.392   3.583  17.833  0.00  0.00    +0.000 A 
ATOM     14  C   UNL     1       2.095   4.102  17.734  0.00  0.00    +0.000 A 
ATOM     15  C   UNL     1       1.072   3.538  18.481  0.00  0.00    +0.000 A 
ATOM     16  N   UNL     1       1.242   2.505  19.330  0.00  0.00    +0.000 NA
ATOM     17  C   UNL     1       2.491   2.013  19.430  0.00  0.00    +0.000 A 
ATOM     18  C   UNL     1       3.571   2.503  18.712  0.00  0.00    +0.000 A 
ENDBRANCH   3  13
BRANCH   1  20
ATOM     19  C   UNL     1       7.134   7.731  17.471  0.00  0.00    +0.000 C 
ATOM     20  O   UNL     1       7.490   6.350  17.462  0.00  0.00    +0.000 OA
ENDBRANCH   1  20
TORSDOF 2
ENDMDL
