MODEL 1
REMARK VINA RESULT:      -7.1      0.000      0.000
REMARK  Name = 
REMARK  2 active torsions:
REMARK  status: ('A' for Active; 'I' for Inactive)
REMARK    1  A    between atoms: C_2  and  C_4
REMARK    2  A    between atoms: C_4  and  C_5
REMARK                            x       y       z     vdW  Elec       q    Type
REMARK                         _______ _______ _______ _____ _____    ______ ____
ROOT
ATOM      1  C   UNL     1       1.061   8.483  20.302  0.00  0.00    +0.000 A 
ATOM      2  C   UNL     1       1.095   9.643  19.509  0.00  0.00    +0.000 A 
ATOM      3  C   UNL     1       1.803   9.664  18.313  0.00  0.00    +0.000 A 
ATOM      4  C   UNL     1       2.485   8.525  17.895  0.00  0.00    +0.000 A 
ATOM      5  C   UNL     1       2.466   7.354  18.666  0.00  0.00    +0.000 A 
ATOM      6  C   UNL     1       1.754   7.328  19.871  0.00  0.00    +0.000 A 
ATOM      7  O   UNL     1       1.654   6.236  20.701  0.00  0.00    +0.000 OA
ATOM      8  C   UNL     1       2.312   5.060  20.441  0.00  0.00    +0.000 A 
ATOM      9  C   UNL     1       2.145   4.074  21.423  0.00  0.00    +0.000 A 
ATOM     10  C   UNL     1       2.749   2.824  21.291  0.00  0.00    +0.000 A 
ATOM     11  C   UNL     1       3.526   2.548  20.170  0.00  0.00    +0.000 A 
ATOM     12  C   UNL     1       3.697   3.527  19.190  0.00  0.00    +0.000 A 
ATOM     13  C   UNL     1       3.094   4.787  19.318  0.00  0.00    +0.000 A 
ATOM     14  S   UNL     1       3.360   5.963  18.030  0.00  0.00    +0.000 S 
ENDROOT
BRANCH   1  15
ATOM     15  C   UNL     1       0.245   8.502  21.575  0.00  0.00    +0.000 C 
BRANCH  15  17
ATOM     16  O   UNL     1       0.006  10.103  23.357  0.00  0.00    +0.000 OA
ATOM     17  C   UNL     1       0.790   9.418  22.633  0.00  0.00    +0.000 C 
ATOM     18  O   UNL     1       2.041   9.458  22.841  0.00  0.00    +0.000 OA
ENDBRANCH  15  17
ENDBRANCH   1  15
TORSDOF 2
ENDMDL
MODEL 2
REMARK VINA RESULT:      -7.0      3.912      5.767
REMARK  Name = 
REMARK  2 active torsions:
REMARK  status: ('A' for Active; 'I' for Inactive)
REMARK    1  A    between atoms: C_2  and  C_4
REMARK    2  A    between atoms: C_4  and  C_5
REMARK                            x       y       z     vdW  Elec       q    Type
REMARK                         _______ _______ _______ _____ _____    ______ ____
ROOT
ATOM      1  C   UNL     1       6.026   5.985  16.736  0.00  0.00    +0.000 A 
ATOM      2  C   UNL     1       6.800   5.449  15.693  0.00  0.00    +0.000 A 
ATOM      3  C   UNL     1       6.530   4.183  15.187  0.00  0.00    +0.000 A 
ATOM      4  C   UNL     1       5.481   3.438  15.717  0.00  0.00    +0.000 A 
ATOM      5  C   UNL     1       4.691   3.949  16.757  0.00  0.00    +0.000 A 
ATOM      6  C   UNL     1       4.960   5.223  17.270  0.00  0.00    +0.000 A 
ATOM      7  O   UNL     1       4.247   5.831  18.277  0.00  0.00    +0.000 OA
ATOM      8  C   UNL     1       3.217   5.198  18.926  0.00  0.00    +0.000 A 
ATOM      9  C   UNL     1       2.642   5.943  19.964  0.00  0.00    +0.000 A 
ATOM     10  C   UNL     1       1.581   5.430  20.709  0.00  0.00    +0.000 A 
ATOM     11  C   UNL     1       1.081   4.165  20.419  0.00  0.00    +0.000 A 
ATOM     12  C   UNL     1       1.651   3.418  19.386  0.00  0.00    +0.000 A 
ATOM     13  C   UNL     1       2.721   3.927  18.635  0.00  0.00    +0.000 A 
ATOM     14  S   UNL     1       3.378   2.916  17.346  0.00  0.00    +0.000 S 
ENDROOT
BRANCH   1  15
ATOM     15  C   UNL     1       6.339   7.382  17.224  0.00  0.00    +0.000 C 
BRANCH  15  17
ATOM     16  O   UNL     1       8.330   8.553  17.901  0.00  0.00    +0.000 OA
ATOM     17  C   UNL     1       7.642   7.490  17.963  0.00  0.00    +0.000 C 
ATOM     18  O   UNL     1       8.023   6.531  18.700  0.00  0.00    +0.000 OA
ENDBRANCH  15  17
ENDBRANCH   1  15
TORSDOF 2
ENDMDL
MODEL 3
REMARK VINA RESULT:      -7.0      3.135      5.029
REMARK  Name = 
REMARK  2 active torsions:
REMARK  status: ('A' for Active; 'I' for Inactive)
REMARK    1  A    between atoms: C_2  and  C_4
REMARK    2  A    between atoms: C_4  and  C_5
REMARK                            x       y       z     vdW  Elec       q    Type
REMARK                         _______ _______ _______ _____ _____    ______ ____
ROOT
ATOM      1  C   UNL     1       2.009   4.616  19.884  0.00  0.00    +0.000 A 
ATOM      2  C   UNL     1       1.322   5.480  20.754  0.00  0.00    +0.000 A 
ATOM      3  C   UNL     1       1.450   6.859  20.633  0.00  0.00    +0.000 A 
ATOM      4  C   UNL     1       2.265   7.391  19.639  0.00  0.00    +0.000 A 
ATOM      5  C   UNL     1       2.960   6.553  18.755  0.00  0.00    +0.000 A 
ATOM      6  C   UNL     1       2.835   5.164  18.874  0.00  0.00    +0.000 A 
ATOM      7  O   UNL     1       3.456   4.247  18.059  0.00  0.00    +0.000 OA
ATOM      8  C   UNL     1       4.326   4.624  17.067  0.00  0.00    +0.000 A 
ATOM      9  C   UNL     1       4.913   3.557  16.374  0.00  0.00    +0.000 A 
ATOM     10  C   UNL     1       5.813   3.788  15.334  0.00  0.00    +0.000 A 
ATOM     11  C   UNL     1       6.132   5.093  14.975  0.00  0.00    +0.000 A 
ATOM     12  C   UNL     1       5.552   6.160  15.663  0.00  0.00    +0.000 A 
ATOM     13  C   UNL     1       4.648   5.935  16.712  0.00  0.00    +0.000 A 
ATOM     14  S   UNL     1       3.959   7.342  17.524  0.00  0.00    +0.000 S 
ENDROOT
BRANCH   1  15
ATOM     15  C   UNL     1       1.806   3.125  20.035  0.00  0.00    +0.000 C 
BRANCH  15  17
ATOM     16  O   UNL     1       3.466   2.338  21.590  0.00  0.00    +0.000 OA
ATOM     17  C   UNL     1       2.243   2.584  21.366  0.00  0.00    +0.000 C 
ATOM     18  O   UNL     1       1.386   2.432  22.290  0.00  0.00    +0.000 OA
ENDBRANCH  15  17
ENDBRANCH   1  15
TORSDOF 2
ENDMDL
MODEL 4
REMARK VINA RESULT:      -6.9      4.004      5.876
REMARK  Name = 
REMARK  2 active torsions:
REMARK  status: ('A' for Active; 'I' for Inactive)
REMARK    1  A    between atoms: C_2  and  C_4
REMARK    2  A    between atoms: C_4  and  C_5
REMARK                            x       y       z     vdW  Elec       q    Type
REMARK                         _______ _______ _______ _____ _____    ______ ____
ROOT
ATOM      1  C   UNL     1       6.652   5.158  17.497  0.00  0.00    +0.000 A 
ATOM      2  C   UNL     1       7.328   4.836  16.307  0.00  0.00    +0.000 A 
ATOM      3  C   UNL     1       6.708   4.076  15.322  0.00  0.00    +0.000 A 
ATOM      4  C   UNL     1       5.404   3.630  15.513  0.00  0.00    +0.000 A 
ATOM      5  C   UNL     1       4.705   3.938  16.689  0.00  0.00    +0.000 A 
ATOM      6  C   UNL     1       5.325   4.702  17.684  0.00  0.00    +0.000 A 
ATOM      7  O   UNL     1       4.735   5.075  18.869  0.00  0.00    +0.000 OA
ATOM      8  C   UNL     1       3.471   4.669  19.215  0.00  0.00    +0.000 A 
ATOM      9  C   UNL     1       3.053   5.093  20.483  0.00  0.00    +0.000 A 
ATOM     10  C   UNL     1       1.787   4.761  20.967  0.00  0.00    +0.000 A 
ATOM     11  C   UNL     1       0.926   4.001  20.182  0.00  0.00    +0.000 A 
ATOM     12  C   UNL     1       1.339   3.574  18.919  0.00  0.00    +0.000 A 
ATOM     13  C   UNL     1       2.611   3.903  18.427  0.00  0.00    +0.000 A 
ATOM     14  S   UNL     1       3.048   3.325  16.818  0.00  0.00    +0.000 S 
ENDROOT
BRANCH   1  15
ATOM     15  C   UNL     1       7.358   6.018  18.520  0.00  0.00    +0.000 C 
BRANCH  15  17
ATOM     16  O   UNL     1       8.572   8.094  18.621  0.00  0.00    +0.000 OA
ATOM     17  C   UNL     1       7.697   7.395  18.027  0.00  0.00    +0.000 C 
ATOM     18  O   UNL     1       7.145   7.834  16.972  0.00  0.00    +0.000 OA
ENDBRANCH  15  17
ENDBRANCH   1  15
TORSDOF 2
ENDMDL
MODEL 5
REMARK VINA RESULT:      -6.8      4.640      6.859
REMARK  Name = 
REMARK  2 active torsions:
REMARK  status: ('A' for Active; 'I' for Inactive)
REMARK    1  A    between atoms: C_2  and  C_4
REMARK    2  A    between atoms: C_4  and  C_5
REMARK                            x       y       z     vdW  Elec       q    Type
REMARK                         _______ _______ _______ _____ _____    ______ ____
ROOT
ATOM      1  C   UNL     1       6.043   4.543  16.184  0.00  0.00    +0.000 A 
ATOM      2  C   UNL     1       7.040   5.534  16.166  0.00  0.00    +0.000 A 
ATOM      3  C   UNL     1       7.067   6.532  17.133  0.00  0.00    +0.000 A 
ATOM      4  C   UNL     1       6.098   6.551  18.131  0.00  0.00    +0.000 A 
ATOM      5  C   UNL     1       5.092   5.575  18.175  0.00  0.00    +0.000 A 
ATOM      6  C   UNL     1       5.061   4.568  17.203  0.00  0.00    +0.000 A 
ATOM      7  O   UNL     1       4.134   3.554  17.153  0.00  0.00    +0.000 OA
ATOM      8  C   UNL     1       3.093   3.473  18.043  0.00  0.00    +0.000 A 
ATOM      9  C   UNL     1       2.211   2.410  17.807  0.00  0.00    +0.000 A 
ATOM     10  C   UNL     1       1.109   2.197  18.635  0.00  0.00    +0.000 A 
ATOM     11  C   UNL     1       0.881   3.049  19.711  0.00  0.00    +0.000 A 
ATOM     12  C   UNL     1       1.755   4.110  19.950  0.00  0.00    +0.000 A 
ATOM     13  C   UNL     1       2.864   4.331  19.119  0.00  0.00    +0.000 A 
ATOM     14  S   UNL     1       3.919   5.694  19.496  0.00  0.00    +0.000 S 
ENDROOT
BRANCH   1  15
ATOM     15  C   UNL     1       6.081   3.459  15.131  0.00  0.00    +0.000 C 
BRANCH  15  17
ATOM     16  O   UNL     1       7.059   4.535  13.213  0.00  0.00    +0.000 OA
ATOM     17  C   UNL     1       6.041   3.978  13.723  0.00  0.00    +0.000 C 
ATOM     18  O   UNL     1       4.998   3.802  13.022  0.00  0.00    +0.000 OA
ENDBRANCH  15  17
ENDBRANCH   1  15
TORSDOF 2
ENDMDL
MODEL 6
REMARK VINA RESULT:      -6.8      5.029      5.880
REMARK  Name = 
REMARK  2 active torsions:
REMARK  status: ('A' for Active; 'I' for Inactive)
REMARK    1  A    between atoms: C_2  and  C_4
REMARK    2  A    between atoms: C_4  and  C_5
REMARK                            x       y       z     vdW  Elec       q    Type
REMARK                         _______ _______ _______ _____ _____    ______ ____
ROOT
ATOM      1  C   UNL     1       6.811   4.513  17.199  0.00  0.00    +0.000 A 
ATOM      2  C   UNL     1       7.103   4.904  15.881  0.00  0.00    +0.000 A 
ATOM      3  C   UNL     1       6.106   4.932  14.912  0.00  0.00    +0.000 A 
ATOM      4  C   UNL     1       4.805   4.572  15.250  0.00  0.00    +0.000 A 
ATOM      5  C   UNL     1       4.486   4.180  16.558  0.00  0.00    +0.000 A 
ATOM      6  C   UNL     1       5.486   4.149  17.536  0.00  0.00    +0.000 A 
ATOM      7  O   UNL     1       5.288   3.795  18.850  0.00  0.00    +0.000 OA
ATOM      8  C   UNL     1       4.069   3.371  19.316  0.00  0.00    +0.000 A 
ATOM      9  C   UNL     1       4.064   2.994  20.666  0.00  0.00    +0.000 A 
ATOM     10  C   UNL     1       2.893   2.548  21.279  0.00  0.00    +0.000 A 
ATOM     11  C   UNL     1       1.713   2.478  20.545  0.00  0.00    +0.000 A 
ATOM     12  C   UNL     1       1.713   2.851  19.200  0.00  0.00    +0.000 A 
ATOM     13  C   UNL     1       2.888   3.298  18.577  0.00  0.00    +0.000 A 
ATOM     14  S   UNL     1       2.796   3.752  16.874  0.00  0.00    +0.000 S 
ENDROOT
BRANCH   1  15
ATOM     15  C   UNL     1       7.923   4.536  18.223  0.00  0.00    +0.000 C 
BRANCH  15  17
ATOM     16  O   UNL     1       7.703   5.559  20.390  0.00  0.00    +0.000 OA
ATOM     17  C   UNL     1       7.877   5.720  19.145  0.00  0.00    +0.000 C 
ATOM     18  O   UNL     1       8.075   6.883  18.678  0.00  0.00    +0.000 OA
ENDBRANCH  15  17
ENDBRANCH   1  15
TORSDOF 2
ENDMDL
MODEL 7
REMARK VINA RESULT:      -6.7      1.764      5.377
REMARK  Name = 
REMARK  2 active torsions:
REMARK  status: ('A' for Active; 'I' for Inactive)
REMARK    1  A    between atoms: C_2  and  C_4
REMARK    2  A    between atoms: C_4  and  C_5
REMARK                            x       y       z     vdW  Elec       q    Type
REMARK                         _______ _______ _______ _____ _____    ______ ____
ROOT
ATOM      1  C   UNL     1       2.730   5.324  19.966  0.00  0.00    +0.000 A 
ATOM      2  C   UNL     1       3.481   4.694  18.959  0.00  0.00    +0.000 A 
ATOM      3  C   UNL     1       3.771   5.354  17.771  0.00  0.00    +0.000 A 
ATOM      4  C   UNL     1       3.313   6.653  17.575  0.00  0.00    +0.000 A 
ATOM      5  C   UNL     1       2.562   7.307  18.563  0.00  0.00    +0.000 A 
ATOM      6  C   UNL     1       2.269   6.646  19.761  0.00  0.00    +0.000 A 
ATOM      7  O   UNL     1       1.554   7.189  20.803  0.00  0.00    +0.000 OA
ATOM      8  C   UNL     1       1.000   8.443  20.732  0.00  0.00    +0.000 A 
ATOM      9  C   UNL     1       0.257   8.812  21.861  0.00  0.00    +0.000 A 
ATOM     10  C   UNL     1      -0.359  10.061  21.934  0.00  0.00    +0.000 A 
ATOM     11  C   UNL     1      -0.234  10.955  20.877  0.00  0.00    +0.000 A 
ATOM     12  C   UNL     1       0.505  10.592  19.749  0.00  0.00    +0.000 A 
ATOM     13  C   UNL     1       1.125   9.337  19.668  0.00  0.00    +0.000 A 
ATOM     14  S   UNL     1       2.042   8.962  18.208  0.00  0.00    +0.000 S 
ENDROOT
BRANCH   1  15
ATOM     15  C   UNL     1       2.475   4.575  21.255  0.00  0.00    +0.000 C 
BRANCH  15  17
ATOM     16  O   UNL     1       1.455   2.517  21.974  0.00  0.00    +0.000 OA
ATOM     17  C   UNL     1       1.486   3.453  21.120  0.00  0.00    +0.000 C 
ATOM     18  O   UNL     1       0.637   3.479  20.177  0.00  0.00    +0.000 OA
ENDBRANCH  15  17
ENDBRANCH   1  15
TORSDOF 2
ENDMDL
MODEL 8
REMARK VINA RESULT:      -6.6      3.766      5.756
REMARK  Name = 
REMARK  2 active torsions:
REMARK  status: ('A' for Active; 'I' for Inactive)
REMARK    1  A    between atoms: C_2  and  C_4
REMARK    2  A    between atoms: C_4  and  C_5
REMARK                            x       y       z     vdW  Elec       q    Type
REMARK                         _______ _______ _______ _____ _____    ______ ____
ROOT
ATOM      1  C   UNL     1       4.896   5.331  16.691  0.00  0.00    +0.000 A 
ATOM      2  C   UNL     1       5.075   6.592  16.096  0.00  0.00    +0.000 A 
ATOM      3  C   UNL     1       4.396   7.706  16.576  0.00  0.00    +0.000 A 
ATOM      4  C   UNL     1       3.531   7.573  17.658  0.00  0.00    +0.000 A 
ATOM      5  C   UNL     1       3.335   6.327  18.272  0.00  0.00    +0.000 A 
ATOM      6  C   UNL     1       4.016   5.203  17.791  0.00  0.00    +0.000 A 
ATOM      7  O   UNL     1       3.913   3.938  18.319  0.00  0.00    +0.000 OA
ATOM      8  C   UNL     1       3.062   3.647  19.357  0.00  0.00    +0.000 A 
ATOM      9  C   UNL     1       3.042   2.296  19.728  0.00  0.00    +0.000 A 
ATOM     10  C   UNL     1       2.230   1.853  20.772  0.00  0.00    +0.000 A 
ATOM     11  C   UNL     1       1.431   2.762  21.457  0.00  0.00    +0.000 A 
ATOM     12  C   UNL     1       1.446   4.109  21.090  0.00  0.00    +0.000 A 
ATOM     13  C   UNL     1       2.259   4.560  20.040  0.00  0.00    +0.000 A 
ATOM     14  S   UNL     1       2.218   6.280  19.646  0.00  0.00    +0.000 S 
ENDROOT
BRANCH   1  15
ATOM     15  C   UNL     1       5.686   4.160  16.153  0.00  0.00    +0.000 C 
BRANCH  15  17
ATOM     16  O   UNL     1       7.945   4.332  16.967  0.00  0.00    +0.000 OA
ATOM     17  C   UNL     1       7.152   4.441  15.985  0.00  0.00    +0.000 C 
ATOM     18  O   UNL     1       7.604   4.732  14.835  0.00  0.00    +0.000 OA
ENDBRANCH  15  17
ENDBRANCH   1  15
TORSDOF 2
ENDMDL
MODEL 9
REMARK VINA RESULT:      -6.6      3.353      5.446
REMARK  Name = 
REMARK  2 active torsions:
REMARK  status: ('A' for Active; 'I' for Inactive)
REMARK    1  A    between atoms: C_2  and  C_4
REMARK    2  A    between atoms: C_4  and  C_5
REMARK                            x       y       z     vdW  Elec       q    Type
REMARK                         _______ _______ _______ _____ _____    ______ ____
ROOT
ATOM      1  C   UNL     1       2.283   4.409  19.905  0.00  0.00    +0.000 A 
ATOM      2  C   UNL     1       1.549   5.209  20.798  0.00  0.00    +0.000 A 
ATOM      3  C   UNL     1       1.551   6.593  20.675  0.00  0.00    +0.000 A 
ATOM      4  C   UNL     1       2.285   7.195  19.658  0.00  0.00    +0.000 A 
ATOM      5  C   UNL     1       3.026   6.421  18.753  0.00  0.00    +0.000 A 
ATOM      6  C   UNL     1       3.027   5.027  18.872  0.00  0.00    +0.000 A 
ATOM      7  O   UNL     1       3.703   4.168  18.037  0.00  0.00    +0.000 OA
ATOM      8  C   UNL     1       4.506   4.620  17.021  0.00  0.00    +0.000 A 
ATOM      9  C   UNL     1       5.164   3.608  16.308  0.00  0.00    +0.000 A 
ATOM     10  C   UNL     1       6.008   3.917  15.243  0.00  0.00    +0.000 A 
ATOM     11  C   UNL     1       6.200   5.246  14.877  0.00  0.00    +0.000 A 
ATOM     12  C   UNL     1       5.549   6.257  15.584  0.00  0.00    +0.000 A 
ATOM     13  C   UNL     1       4.700   5.954  16.659  0.00  0.00    +0.000 A 
ATOM     14  S   UNL     1       3.914   7.295  17.493  0.00  0.00    +0.000 S 
ENDROOT
BRANCH   1  15
ATOM     15  C   UNL     1       2.217   2.906  20.059  0.00  0.00    +0.000 C 
BRANCH  15  17
ATOM     16  O   UNL     1       0.207   2.281  18.894  0.00  0.00    +0.000 OA
ATOM     17  C   UNL     1       1.471   2.214  18.955  0.00  0.00    +0.000 C 
ATOM     18  O   UNL     1       2.118   1.609  18.047  0.00  0.00    +0.000 OA
ENDBRANCH  15  17
ENDBRANCH   1  15
TORSDOF 2
ENDMDL
