MODEL 1
REMARK VINA RESULT:      -7.7      0.000      0.000
REMARK  Name = 
REMARK  6 active torsions:
REMARK  status: ('A' for Active; 'I' for Inactive)
REMARK    1  A    between atoms: C_2  and  O_3
REMARK    2  A    between atoms: C_2  and  C_4
REMARK    3  A    between atoms: C_8  and  N_9
REMARK    4  A    between atoms: C_13  and  C_15
REMARK    5  A    between atoms: C_15  and  O_16
REMARK    6  A    between atoms: O_16  and  C_17
REMARK                            x       y       z     vdW  Elec       q    Type
REMARK                         _______ _______ _______ _____ _____    ______ ____
ROOT
ATOM      1  N   UNL     1       5.148   4.949  16.080  0.00  0.00    +0.000 N 
ATOM      2  C   UNL     1       5.195   6.256  16.754  0.00  0.00    +0.000 C 
ATOM      3  C   UNL     1       3.778   6.631  17.227  0.00  0.00    +0.000 C 
ATOM      4  N   UNL     1       3.173   5.569  18.044  0.00  0.00    +0.000 N 
ATOM      5  C   UNL     1       2.503   5.762  19.242  0.00  0.00    +0.000 C 
ATOM      6  O   UNL     1       1.981   4.828  19.855  0.00  0.00    +0.000 OA
ATOM      7  C   UNL     1       3.204   4.233  17.428  0.00  0.00    +0.000 C 
ATOM      8  C   UNL     1       4.613   3.860  16.921  0.00  0.00    +0.000 C 
ENDROOT
BRANCH   1  13
ATOM      9  C   UNL     1       5.884   3.605  12.690  0.00  0.00    +0.000 A 
ATOM     10  C   UNL     1       7.137   4.166  12.438  0.00  0.00    +0.000 A 
ATOM     11  C   UNL     1       7.715   4.993  13.396  0.00  0.00    +0.000 A 
ATOM     12  C   UNL     1       7.039   5.260  14.593  0.00  0.00    +0.000 A 
ATOM     13  C   UNL     1       5.772   4.723  14.871  0.00  0.00    +0.000 A 
ATOM     14  C   UNL     1       5.209   3.903  13.884  0.00  0.00    +0.000 A 
BRANCH   9  16
ATOM     15  O   UNL     1       4.146   2.972  11.195  0.00  0.00    +0.000 OA
ATOM     16  C   UNL     1       5.214   2.708  11.719  0.00  0.00    +0.000 C 
BRANCH  16  17
ATOM     17  O   UNL     1       5.867   1.544  11.520  0.00  0.00    +0.000 OA
ATOM     18  H   UNL     1       6.836   1.623  11.460  0.00  0.00    +0.000 HD
ENDBRANCH  16  17
ENDBRANCH   9  16
ENDBRANCH   1  13
BRANCH   5  19
ATOM     19  C   UNL     1       2.409   7.189  19.790  0.00  0.00    +0.000 C 
BRANCH  19  20
ATOM     20  O   UNL     1       1.428   7.229  20.824  0.00  0.00    +0.000 OA
BRANCH  20  21
ATOM     21  C   UNL     1       0.937   8.472  21.113  0.00  0.00    +0.000 A 
ATOM     22  C   UNL     1       0.858   9.364  20.043  0.00  0.00    +0.000 A 
ATOM     23  C   UNL     1       0.320  10.641  20.222  0.00  0.00    +0.000 A 
ATOM     24  C   UNL     1      -0.157  11.020  21.475  0.00  0.00    +0.000 A 
ATOM     25 CL   UNL     1      -0.835  12.584  21.702  0.00  0.00    +0.000 Cl
ATOM     26  C   UNL     1      -0.097  10.128  22.545  0.00  0.00    +0.000 A 
ATOM     27  C   UNL     1       0.447   8.853  22.366  0.00  0.00    +0.000 A 
ENDBRANCH  20  21
ENDBRANCH  19  20
ENDBRANCH   5  19
TORSDOF 6
ENDMDL
MODEL 2
REMARK VINA RESULT:      -7.7      3.619      8.958
REMARK  Name = 
REMARK  6 active torsions:
REMARK  status: ('A' for Active; 'I' for Inactive)
REMARK    1  A    between atoms: C_2  and  O_3
REMARK    2  A    between atoms: C_2  and  C_4
REMARK    3  A    between atoms: C_8  and  N_9
REMARK    4  A    between atoms: C_13  and  C_15
REMARK    5  A    between atoms: C_15  and  O_16
REMARK    6  A    between atoms: O_16  and  C_17
REMARK                            x       y       z     vdW  Elec       q    Type
REMARK                         _______ _______ _______ _____ _____    ______ ____
ROOT
ATOM      1  N   UNL     1       1.906   7.563  19.376  0.00  0.00    +0.000 N 
ATOM      2  C   UNL     1       2.323   7.395  17.976  0.00  0.00    +0.000 C 
ATOM      3  C   UNL     1       3.717   6.740  17.939  0.00  0.00    +0.000 C 
ATOM      4  N   UNL     1       3.759   5.495  18.719  0.00  0.00    +0.000 N 
ATOM      5  C   UNL     1       4.328   4.303  18.297  0.00  0.00    +0.000 C 
ATOM      6  O   UNL     1       4.366   3.307  19.022  0.00  0.00    +0.000 OA
ATOM      7  C   UNL     1       3.254   5.620  20.096  0.00  0.00    +0.000 C 
ATOM      8  C   UNL     1       1.872   6.304  20.147  0.00  0.00    +0.000 C 
ENDROOT
BRANCH   1  13
ATOM      9  C   UNL     1       0.238  10.038  21.597  0.00  0.00    +0.000 A 
ATOM     10  C   UNL     1       0.141  11.144  20.752  0.00  0.00    +0.000 A 
ATOM     11  C   UNL     1       0.642  11.054  19.457  0.00  0.00    +0.000 A 
ATOM     12  C   UNL     1       1.241   9.868  19.016  0.00  0.00    +0.000 A 
ATOM     13  C   UNL     1       1.367   8.742  19.846  0.00  0.00    +0.000 A 
ATOM     14  C   UNL     1       0.864   8.865  21.149  0.00  0.00    +0.000 A 
BRANCH   9  16
ATOM     15  O   UNL     1      -1.353  10.558  23.287  0.00  0.00    +0.000 OA
ATOM     16  C   UNL     1      -0.283  10.060  22.984  0.00  0.00    +0.000 C 
BRANCH  16  17
ATOM     17  O   UNL     1       0.570   9.533  23.889  0.00  0.00    +0.000 OA
ATOM     18  H   UNL     1       0.557   9.963  24.763  0.00  0.00    +0.000 HD
ENDBRANCH  16  17
ENDBRANCH   9  16
ENDBRANCH   1  13
BRANCH   5  19
ATOM     19  C   UNL     1       4.933   4.255  16.891  0.00  0.00    +0.000 C 
BRANCH  19  20
ATOM     20  O   UNL     1       6.351   4.145  16.997  0.00  0.00    +0.000 OA
BRANCH  20  21
ATOM     21  C   UNL     1       6.991   5.263  17.454  0.00  0.00    +0.000 A 
ATOM     22  C   UNL     1       6.899   6.396  16.644  0.00  0.00    +0.000 A 
ATOM     23  C   UNL     1       7.472   7.605  17.048  0.00  0.00    +0.000 A 
ATOM     24  C   UNL     1       8.126   7.683  18.276  0.00  0.00    +0.000 A 
ATOM     25 CL   UNL     1       8.822   9.169  18.788  0.00  0.00    +0.000 Cl
ATOM     26  C   UNL     1       8.208   6.559  19.098  0.00  0.00    +0.000 A 
ATOM     27  C   UNL     1       7.639   5.350  18.690  0.00  0.00    +0.000 A 
ENDBRANCH  20  21
ENDBRANCH  19  20
ENDBRANCH   5  19
TORSDOF 6
ENDMDL
MODEL 3
REMARK VINA RESULT:      -7.5      3.848      5.735
REMARK  Name = 
REMARK  6 active torsions:
REMARK  status: ('A' for Active; 'I' for Inactive)
REMARK    1  A    between atoms: C_2  and  O_3
REMARK    2  A    between atoms: C_2  and  C_4
REMARK    3  A    between atoms: C_8  and  N_9
REMARK    4  A    between atoms: C_13  and  C_15
REMARK    5  A    between atoms: C_15  and  O_16
REMARK    6  A    between atoms: O_16  and  C_17
REMARK                            x       y       z     vdW  Elec       q    Type
REMARK                         _______ _______ _______ _____ _____    ______ ____
ROOT
ATOM      1  N   UNL     1       2.423   7.231  18.862  0.00  0.00    +0.000 N 
ATOM      2  C   UNL     1       2.476   8.475  18.080  0.00  0.00    +0.000 C 
ATOM      3  C   UNL     1       1.219   9.314  18.380  0.00  0.00    +0.000 C 
ATOM      4  N   UNL     1       1.037   9.532  19.823  0.00  0.00    +0.000 N 
ATOM      5  C   UNL     1       0.724  10.745  20.417  0.00  0.00    +0.000 C 
ATOM      6  O   UNL     1       0.543  10.848  21.632  0.00  0.00    +0.000 OA
ATOM      7  C   UNL     1       1.079   8.306  20.636  0.00  0.00    +0.000 C 
ATOM      8  C   UNL     1       2.317   7.443  20.320  0.00  0.00    +0.000 C 
ENDROOT
BRANCH   1  13
ATOM      9  C   UNL     1       2.262   3.593  18.099  0.00  0.00    +0.000 A 
ATOM     10  C   UNL     1       3.351   3.444  17.240  0.00  0.00    +0.000 A 
ATOM     11  C   UNL     1       4.118   4.558  16.918  0.00  0.00    +0.000 A 
ATOM     12  C   UNL     1       3.792   5.813  17.447  0.00  0.00    +0.000 A 
ATOM     13  C   UNL     1       2.694   6.000  18.303  0.00  0.00    +0.000 A 
ATOM     14  C   UNL     1       1.932   4.861  18.602  0.00  0.00    +0.000 A 
BRANCH   9  16
ATOM     15  O   UNL     1       0.192   2.511  18.546  0.00  0.00    +0.000 OA
ATOM     16  C   UNL     1       1.407   2.448  18.493  0.00  0.00    +0.000 C 
BRANCH  16  17
ATOM     17  O   UNL     1       2.107   1.349  18.847  0.00  0.00    +0.000 OA
ATOM     18  H   UNL     1       1.638   0.740  19.445  0.00  0.00    +0.000 HD
ENDBRANCH  16  17
ENDBRANCH   9  16
ENDBRANCH   1  13
BRANCH   5  19
ATOM     19  C   UNL     1       0.590  11.973  19.512  0.00  0.00    +0.000 C 
BRANCH  19  20
ATOM     20  O   UNL     1      -0.559  12.721  19.907  0.00  0.00    +0.000 OA
BRANCH  20  21
ATOM     21  C   UNL     1      -1.739  12.311  19.352  0.00  0.00    +0.000 A 
ATOM     22  C   UNL     1      -2.894  12.609  20.077  0.00  0.00    +0.000 A 
ATOM     23  C   UNL     1      -4.154  12.281  19.571  0.00  0.00    +0.000 A 
ATOM     24  C   UNL     1      -4.259  11.667  18.325  0.00  0.00    +0.000 A 
ATOM     25 CL   UNL     1      -5.806  11.273  17.686  0.00  0.00    +0.000 Cl
ATOM     26  C   UNL     1      -3.111  11.381  17.587  0.00  0.00    +0.000 A 
ATOM     27  C   UNL     1      -1.851  11.704  18.098  0.00  0.00    +0.000 A 
ENDBRANCH  20  21
ENDBRANCH  19  20
ENDBRANCH   5  19
TORSDOF 6
ENDMDL
MODEL 4
REMARK VINA RESULT:      -7.5      3.680      8.981
REMARK  Name = 
REMARK  6 active torsions:
REMARK  status: ('A' for Active; 'I' for Inactive)
REMARK    1  A    between atoms: C_2  and  O_3
REMARK    2  A    between atoms: C_2  and  C_4
REMARK    3  A    between atoms: C_8  and  N_9
REMARK    4  A    between atoms: C_13  and  C_15
REMARK    5  A    between atoms: C_15  and  O_16
REMARK    6  A    between atoms: O_16  and  C_17
REMARK                            x       y       z     vdW  Elec       q    Type
REMARK                         _______ _______ _______ _____ _____    ______ ____
ROOT
ATOM      1  N   UNL     1       1.940   7.368  19.391  0.00  0.00    +0.000 N 
ATOM      2  C   UNL     1       2.413   7.212  18.007  0.00  0.00    +0.000 C 
ATOM      3  C   UNL     1       3.809   6.561  18.021  0.00  0.00    +0.000 C 
ATOM      4  N   UNL     1       3.823   5.310  18.793  0.00  0.00    +0.000 N 
ATOM      5  C   UNL     1       4.412   4.123  18.384  0.00  0.00    +0.000 C 
ATOM      6  O   UNL     1       4.424   3.121  19.103  0.00  0.00    +0.000 OA
ATOM      7  C   UNL     1       3.264   5.423  20.149  0.00  0.00    +0.000 C 
ATOM      8  C   UNL     1       1.879   6.103  20.150  0.00  0.00    +0.000 C 
ENDROOT
BRANCH   1  13
ATOM      9  C   UNL     1       0.325   9.869  21.622  0.00  0.00    +0.000 A 
ATOM     10  C   UNL     1       0.107  10.926  20.738  0.00  0.00    +0.000 A 
ATOM     11  C   UNL     1       0.510  10.796  19.413  0.00  0.00    +0.000 A 
ATOM     12  C   UNL     1       1.133   9.618  18.980  0.00  0.00    +0.000 A 
ATOM     13  C   UNL     1       1.380   8.543  19.848  0.00  0.00    +0.000 A 
ATOM     14  C   UNL     1       0.973   8.705  21.180  0.00  0.00    +0.000 A 
BRANCH   9  16
ATOM     15  O   UNL     1       0.585   9.485  23.955  0.00  0.00    +0.000 OA
ATOM     16  C   UNL     1      -0.088   9.935  23.044  0.00  0.00    +0.000 C 
BRANCH  16  17
ATOM     17  O   UNL     1      -1.307  10.484  23.227  0.00  0.00    +0.000 OA
ATOM     18  H   UNL     1      -1.491  10.779  24.137  0.00  0.00    +0.000 HD
ENDBRANCH  16  17
ENDBRANCH   9  16
ENDBRANCH   1  13
BRANCH   5  19
ATOM     19  C   UNL     1       5.073   4.087  17.004  0.00  0.00    +0.000 C 
BRANCH  19  20
ATOM     20  O   UNL     1       6.489   4.151  17.162  0.00  0.00    +0.000 OA
BRANCH  20  21
ATOM     21  C   UNL     1       6.983   5.379  17.499  0.00  0.00    +0.000 A 
ATOM     22  C   UNL     1       7.655   5.456  18.720  0.00  0.00    +0.000 A 
ATOM     23  C   UNL     1       8.244   6.655  19.130  0.00  0.00    +0.000 A 
ATOM     24  C   UNL     1       8.174   7.777  18.307  0.00  0.00    +0.000 A 
ATOM     25 CL   UNL     1       8.909   9.252  18.797  0.00  0.00    +0.000 Cl
ATOM     26  C   UNL     1       7.519   7.703  17.079  0.00  0.00    +0.000 A 
ATOM     27  C   UNL     1       6.925   6.505  16.672  0.00  0.00    +0.000 A 
ENDBRANCH  20  21
ENDBRANCH  19  20
ENDBRANCH   5  19
TORSDOF 6
ENDMDL
MODEL 5
REMARK VINA RESULT:      -7.5      0.588      1.252
REMARK  Name = 
REMARK  6 active torsions:
REMARK  status: ('A' for Active; 'I' for Inactive)
REMARK    1  A    between atoms: C_2  and  O_3
REMARK    2  A    between atoms: C_2  and  C_4
REMARK    3  A    between atoms: C_8  and  N_9
REMARK    4  A    between atoms: C_13  and  C_15
REMARK    5  A    between atoms: C_15  and  O_16
REMARK    6  A    between atoms: O_16  and  C_17
REMARK                            x       y       z     vdW  Elec       q    Type
REMARK                         _______ _______ _______ _____ _____    ______ ____
ROOT
ATOM      1  N   UNL     1       5.103   4.880  16.123  0.00  0.00    +0.000 N 
ATOM      2  C   UNL     1       5.321   6.090  16.930  0.00  0.00    +0.000 C 
ATOM      3  C   UNL     1       3.960   6.635  17.401  0.00  0.00    +0.000 C 
ATOM      4  N   UNL     1       3.164   5.606  18.085  0.00  0.00    +0.000 N 
ATOM      5  C   UNL     1       2.481   5.783  19.279  0.00  0.00    +0.000 C 
ATOM      6  O   UNL     1       1.794   4.887  19.776  0.00  0.00    +0.000 OA
ATOM      7  C   UNL     1       3.014   4.350  17.334  0.00  0.00    +0.000 C 
ATOM      8  C   UNL     1       4.369   3.811  16.830  0.00  0.00    +0.000 C 
ENDROOT
BRANCH   1  13
ATOM      9  C   UNL     1       5.877   3.590  12.720  0.00  0.00    +0.000 A 
ATOM     10  C   UNL     1       7.122   4.174  12.481  0.00  0.00    +0.000 A 
ATOM     11  C   UNL     1       7.682   4.998  13.452  0.00  0.00    +0.000 A 
ATOM     12  C   UNL     1       6.996   5.240  14.649  0.00  0.00    +0.000 A 
ATOM     13  C   UNL     1       5.737   4.679  14.914  0.00  0.00    +0.000 A 
ATOM     14  C   UNL     1       5.191   3.862  13.914  0.00  0.00    +0.000 A 
BRANCH   9  16
ATOM     15  O   UNL     1       5.725   1.650  11.352  0.00  0.00    +0.000 OA
ATOM     16  C   UNL     1       5.227   2.694  11.735  0.00  0.00    +0.000 C 
BRANCH  16  17
ATOM     17  O   UNL     1       4.060   3.176  11.256  0.00  0.00    +0.000 OA
ATOM     18  H   UNL     1       3.789   2.810  10.395  0.00  0.00    +0.000 HD
ENDBRANCH  16  17
ENDBRANCH   9  16
ENDBRANCH   1  13
BRANCH   5  19
ATOM     19  C   UNL     1       2.584   7.146  19.970  0.00  0.00    +0.000 C 
BRANCH  19  20
ATOM     20  O   UNL     1       1.743   8.078  19.293  0.00  0.00    +0.000 OA
BRANCH  20  21
ATOM     21  C   UNL     1       1.018   8.905  20.106  0.00  0.00    +0.000 A 
ATOM     22  C   UNL     1       0.918   8.517  21.443  0.00  0.00    +0.000 A 
ATOM     23  C   UNL     1       0.244   9.321  22.366  0.00  0.00    +0.000 A 
ATOM     24  C   UNL     1      -0.317  10.526  21.951  0.00  0.00    +0.000 A 
ATOM     25 CL   UNL     1      -1.136  11.530  23.083  0.00  0.00    +0.000 Cl
ATOM     26  C   UNL     1      -0.208  10.928  20.620  0.00  0.00    +0.000 A 
ATOM     27  C   UNL     1       0.461  10.120  19.697  0.00  0.00    +0.000 A 
ENDBRANCH  20  21
ENDBRANCH  19  20
ENDBRANCH   5  19
TORSDOF 6
ENDMDL
MODEL 6
REMARK VINA RESULT:      -7.4      3.651      8.604
REMARK  Name = 
REMARK  6 active torsions:
REMARK  status: ('A' for Active; 'I' for Inactive)
REMARK    1  A    between atoms: C_2  and  O_3
REMARK    2  A    between atoms: C_2  and  C_4
REMARK    3  A    between atoms: C_8  and  N_9
REMARK    4  A    between atoms: C_13  and  C_15
REMARK    5  A    between atoms: C_15  and  O_16
REMARK    6  A    between atoms: O_16  and  C_17
REMARK                            x       y       z     vdW  Elec       q    Type
REMARK                         _______ _______ _______ _____ _____    ______ ____
ROOT
ATOM      1  N   UNL     1       1.970   7.128  19.593  0.00  0.00    +0.000 N 
ATOM      2  C   UNL     1       2.457   7.152  18.205  0.00  0.00    +0.000 C 
ATOM      3  C   UNL     1       3.829   6.456  18.138  0.00  0.00    +0.000 C 
ATOM      4  N   UNL     1       3.789   5.108  18.725  0.00  0.00    +0.000 N 
ATOM      5  C   UNL     1       4.343   3.971  18.157  0.00  0.00    +0.000 C 
ATOM      6  O   UNL     1       4.310   2.877  18.726  0.00  0.00    +0.000 OA
ATOM      7  C   UNL     1       3.215   5.048  20.079  0.00  0.00    +0.000 C 
ATOM      8  C   UNL     1       1.855   5.771  20.163  0.00  0.00    +0.000 C 
ENDROOT
BRANCH   1  13
ATOM      9  C   UNL     1       0.620  10.554  20.119  0.00  0.00    +0.000 A 
ATOM     10  C   UNL     1       0.481  10.585  21.507  0.00  0.00    +0.000 A 
ATOM     11  C   UNL     1       0.829   9.460  22.248  0.00  0.00    +0.000 A 
ATOM     12  C   UNL     1       1.305   8.312  21.602  0.00  0.00    +0.000 A 
ATOM     13  C   UNL     1       1.443   8.245  20.207  0.00  0.00    +0.000 A 
ATOM     14  C   UNL     1       1.075   9.388  19.484  0.00  0.00    +0.000 A 
BRANCH   9  16
ATOM     15  O   UNL     1       0.251  12.863  19.684  0.00  0.00    +0.000 OA
ATOM     16  C   UNL     1       0.278  11.719  19.268  0.00  0.00    +0.000 C 
BRANCH  16  17
ATOM     17  O   UNL     1      -0.061  11.383  18.005  0.00  0.00    +0.000 OA
ATOM     18  H   UNL     1      -1.016  11.404  17.818  0.00  0.00    +0.000 HD
ENDBRANCH  16  17
ENDBRANCH   9  16
ENDBRANCH   1  13
BRANCH   5  19
ATOM     19  C   UNL     1       5.022   4.108  16.792  0.00  0.00    +0.000 C 
BRANCH  19  20
ATOM     20  O   UNL     1       6.436   4.027  16.962  0.00  0.00    +0.000 OA
BRANCH  20  21
ATOM     21  C   UNL     1       7.035   5.170  17.411  0.00  0.00    +0.000 A 
ATOM     22  C   UNL     1       6.951   6.278  16.567  0.00  0.00    +0.000 A 
ATOM     23  C   UNL     1       7.485   7.509  16.958  0.00  0.00    +0.000 A 
ATOM     24  C   UNL     1       8.091   7.634  18.206  0.00  0.00    +0.000 A 
ATOM     25 CL   UNL     1       8.737   9.149  18.702  0.00  0.00    +0.000 Cl
ATOM     26  C   UNL     1       8.164   6.536  19.062  0.00  0.00    +0.000 A 
ATOM     27  C   UNL     1       7.635   5.304  18.667  0.00  0.00    +0.000 A 
ENDBRANCH  20  21
ENDBRANCH  19  20
ENDBRANCH   5  19
TORSDOF 6
ENDMDL
MODEL 7
REMARK VINA RESULT:      -7.3      4.949      6.714
REMARK  Name = 
REMARK  6 active torsions:
REMARK  status: ('A' for Active; 'I' for Inactive)
REMARK    1  A    between atoms: C_2  and  O_3
REMARK    2  A    between atoms: C_2  and  C_4
REMARK    3  A    between atoms: C_8  and  N_9
REMARK    4  A    between atoms: C_13  and  C_15
REMARK    5  A    between atoms: C_15  and  O_16
REMARK    6  A    between atoms: O_16  and  C_17
REMARK                            x       y       z     vdW  Elec       q    Type
REMARK                         _______ _______ _______ _____ _____    ______ ____
ROOT
ATOM      1  N   UNL     1       1.947   7.308  19.816  0.00  0.00    +0.000 N 
ATOM      2  C   UNL     1       2.203   8.332  18.791  0.00  0.00    +0.000 C 
ATOM      3  C   UNL     1       1.084   9.389  18.842  0.00  0.00    +0.000 C 
ATOM      4  N   UNL     1       0.911   9.940  20.194  0.00  0.00    +0.000 N 
ATOM      5  C   UNL     1       0.776  11.285  20.500  0.00  0.00    +0.000 C 
ATOM      6  O   UNL     1       0.590  11.675  21.655  0.00  0.00    +0.000 OA
ATOM      7  C   UNL     1       0.750   8.927  21.250  0.00  0.00    +0.000 C 
ATOM      8  C   UNL     1       1.848   7.846  21.188  0.00  0.00    +0.000 C 
ENDROOT
BRANCH   1  13
ATOM      9  C   UNL     1       2.279   3.633  20.289  0.00  0.00    +0.000 A 
ATOM     10  C   UNL     1       2.354   3.192  18.968  0.00  0.00    +0.000 A 
ATOM     11  C   UNL     1       2.283   4.123  17.937  0.00  0.00    +0.000 A 
ATOM     12  C   UNL     1       2.130   5.484  18.228  0.00  0.00    +0.000 A 
ATOM     13  C   UNL     1       2.037   5.959  19.546  0.00  0.00    +0.000 A 
ATOM     14  C   UNL     1       2.101   4.998  20.565  0.00  0.00    +0.000 A 
BRANCH   9  16
ATOM     15  O   UNL     1       1.430   2.500  22.199  0.00  0.00    +0.000 OA
ATOM     16  C   UNL     1       2.358   2.699  21.437  0.00  0.00    +0.000 C 
BRANCH  16  17
ATOM     17  O   UNL     1       3.576   2.138  21.593  0.00  0.00    +0.000 OA
ATOM     18  H   UNL     1       4.327   2.739  21.441  0.00  0.00    +0.000 HD
ENDBRANCH  16  17
ENDBRANCH   9  16
ENDBRANCH   1  13
BRANCH   5  19
ATOM     19  C   UNL     1       0.847  12.293  19.349  0.00  0.00    +0.000 C 
BRANCH  19  20
ATOM     20  O   UNL     1      -0.217  13.233  19.485  0.00  0.00    +0.000 OA
BRANCH  20  21
ATOM     21  C   UNL     1      -1.460  12.756  19.174  0.00  0.00    +0.000 A 
ATOM     22  C   UNL     1      -1.559  12.033  17.985  0.00  0.00    +0.000 A 
ATOM     23  C   UNL     1      -2.774  11.457  17.604  0.00  0.00    +0.000 A 
ATOM     24  C   UNL     1      -3.890  11.592  18.427  0.00  0.00    +0.000 A 
ATOM     25 CL   UNL     1      -5.385  10.874  17.974  0.00  0.00    +0.000 Cl
ATOM     26  C   UNL     1      -3.795  12.299  19.625  0.00  0.00    +0.000 A 
ATOM     27  C   UNL     1      -2.581  12.880  20.001  0.00  0.00    +0.000 A 
ENDBRANCH  20  21
ENDBRANCH  19  20
ENDBRANCH   5  19
TORSDOF 6
ENDMDL
MODEL 8
REMARK VINA RESULT:      -7.2      3.740      9.434
REMARK  Name = 
REMARK  6 active torsions:
REMARK  status: ('A' for Active; 'I' for Inactive)
REMARK    1  A    between atoms: C_2  and  O_3
REMARK    2  A    between atoms: C_2  and  C_4
REMARK    3  A    between atoms: C_8  and  N_9
REMARK    4  A    between atoms: C_13  and  C_15
REMARK    5  A    between atoms: C_15  and  O_16
REMARK    6  A    between atoms: O_16  and  C_17
REMARK                            x       y       z     vdW  Elec       q    Type
REMARK                         _______ _______ _______ _____ _____    ______ ____
ROOT
ATOM      1  N   UNL     1       1.888   7.112  19.770  0.00  0.00    +0.000 N 
ATOM      2  C   UNL     1       2.800   6.832  18.649  0.00  0.00    +0.000 C 
ATOM      3  C   UNL     1       3.960   5.952  19.150  0.00  0.00    +0.000 C 
ATOM      4  N   UNL     1       3.477   4.743  19.832  0.00  0.00    +0.000 N 
ATOM      5  C   UNL     1       3.961   3.460  19.627  0.00  0.00    +0.000 C 
ATOM      6  O   UNL     1       3.538   2.494  20.267  0.00  0.00    +0.000 OA
ATOM      7  C   UNL     1       2.489   4.994  20.894  0.00  0.00    +0.000 C 
ATOM      8  C   UNL     1       1.338   5.901  20.412  0.00  0.00    +0.000 C 
ENDROOT
BRANCH   1  13
ATOM      9  C   UNL     1       0.238   9.975  21.478  0.00  0.00    +0.000 A 
ATOM     10  C   UNL     1       0.313  10.962  20.494  0.00  0.00    +0.000 A 
ATOM     11  C   UNL     1       0.921  10.664  19.279  0.00  0.00    +0.000 A 
ATOM     12  C   UNL     1       1.456   9.389  19.056  0.00  0.00    +0.000 A 
ATOM     13  C   UNL     1       1.410   8.379  20.029  0.00  0.00    +0.000 A 
ATOM     14  C   UNL     1       0.801   8.710  21.248  0.00  0.00    +0.000 A 
BRANCH   9  16
ATOM     15  O   UNL     1      -0.558  11.334  23.260  0.00  0.00    +0.000 OA
ATOM     16  C   UNL     1      -0.404  10.220  22.791  0.00  0.00    +0.000 C 
BRANCH  16  17
ATOM     17  O   UNL     1      -0.746   9.089  23.444  0.00  0.00    +0.000 OA
ATOM     18  H   UNL     1      -0.237   8.299  23.188  0.00  0.00    +0.000 HD
ENDBRANCH  16  17
ENDBRANCH   9  16
ENDBRANCH   1  13
BRANCH   5  19
ATOM     19  C   UNL     1       5.064   3.267  18.582  0.00  0.00    +0.000 C 
BRANCH  19  20
ATOM     20  O   UNL     1       4.517   3.472  17.281  0.00  0.00    +0.000 OA
BRANCH  20  21
ATOM     21  C   UNL     1       5.402   3.915  16.339  0.00  0.00    +0.000 A 
ATOM     22  C   UNL     1       5.082   3.627  15.012  0.00  0.00    +0.000 A 
ATOM     23  C   UNL     1       5.894   4.083  13.971  0.00  0.00    +0.000 A 
ATOM     24  C   UNL     1       7.024   4.844  14.260  0.00  0.00    +0.000 A 
ATOM     25 CL   UNL     1       8.022   5.423  12.984  0.00  0.00    +0.000 Cl
ATOM     26  C   UNL     1       7.343   5.150  15.582  0.00  0.00    +0.000 A 
ATOM     27  C   UNL     1       6.532   4.688  16.623  0.00  0.00    +0.000 A 
ENDBRANCH  20  21
ENDBRANCH  19  20
ENDBRANCH   5  19
TORSDOF 6
ENDMDL
MODEL 9
REMARK VINA RESULT:      -7.2      1.238      1.748
REMARK  Name = 
REMARK  6 active torsions:
REMARK  status: ('A' for Active; 'I' for Inactive)
REMARK    1  A    between atoms: C_2  and  O_3
REMARK    2  A    between atoms: C_2  and  C_4
REMARK    3  A    between atoms: C_8  and  N_9
REMARK    4  A    between atoms: C_13  and  C_15
REMARK    5  A    between atoms: C_15  and  O_16
REMARK    6  A    between atoms: O_16  and  C_17
REMARK                            x       y       z     vdW  Elec       q    Type
REMARK                         _______ _______ _______ _____ _____    ______ ____
ROOT
ATOM      1  N   UNL     1       5.130   4.716  16.775  0.00  0.00    +0.000 N 
ATOM      2  C   UNL     1       4.224   5.811  17.154  0.00  0.00    +0.000 C 
ATOM      3  C   UNL     1       2.943   5.218  17.769  0.00  0.00    +0.000 C 
ATOM      4  N   UNL     1       3.242   4.293  18.872  0.00  0.00    +0.000 N 
ATOM      5  C   UNL     1       2.599   4.277  20.101  0.00  0.00    +0.000 C 
ATOM      6  O   UNL     1       2.871   3.443  20.967  0.00  0.00    +0.000 OA
ATOM      7  C   UNL     1       4.221   3.245  18.542  0.00  0.00    +0.000 C 
ATOM      8  C   UNL     1       5.495   3.826  17.895  0.00  0.00    +0.000 C 
ENDROOT
BRANCH   1  13
ATOM      9  C   UNL     1       5.916   3.866  13.239  0.00  0.00    +0.000 A 
ATOM     10  C   UNL     1       7.149   4.498  13.072  0.00  0.00    +0.000 A 
ATOM     11  C   UNL     1       7.697   5.207  14.136  0.00  0.00    +0.000 A 
ATOM     12  C   UNL     1       7.011   5.288  15.355  0.00  0.00    +0.000 A 
ATOM     13  C   UNL     1       5.763   4.676  15.550  0.00  0.00    +0.000 A 
ATOM     14  C   UNL     1       5.229   3.977  14.458  0.00  0.00    +0.000 A 
BRANCH   9  16
ATOM     15  O   UNL     1       4.219   3.400  11.639  0.00  0.00    +0.000 OA
ATOM     16  C   UNL     1       5.278   3.086  12.153  0.00  0.00    +0.000 C 
BRANCH  16  17
ATOM     17  O   UNL     1       5.950   1.960  11.831  0.00  0.00    +0.000 OA
ATOM     18  H   UNL     1       6.845   1.894  12.210  0.00  0.00    +0.000 HD
ENDBRANCH  16  17
ENDBRANCH   9  16
ENDBRANCH   1  13
BRANCH   5  19
ATOM     19  C   UNL     1       1.513   5.325  20.357  0.00  0.00    +0.000 C 
BRANCH  19  20
ATOM     20  O   UNL     1       2.122   6.521  20.842  0.00  0.00    +0.000 OA
BRANCH  20  21
ATOM     21  C   UNL     1       1.620   7.682  20.324  0.00  0.00    +0.000 A 
ATOM     22  C   UNL     1       0.806   8.431  21.176  0.00  0.00    +0.000 A 
ATOM     23  C   UNL     1       0.287   9.660  20.761  0.00  0.00    +0.000 A 
ATOM     24  C   UNL     1       0.598  10.149  19.494  0.00  0.00    +0.000 A 
ATOM     25 CL   UNL     1      -0.024  11.667  18.980  0.00  0.00    +0.000 Cl
ATOM     26  C   UNL     1       1.424   9.414  18.644  0.00  0.00    +0.000 A 
ATOM     27  C   UNL     1       1.937   8.182  19.058  0.00  0.00    +0.000 A 
ENDBRANCH  20  21
ENDBRANCH  19  20
ENDBRANCH   5  19
TORSDOF 6
ENDMDL
