MODEL 1
REMARK VINA RESULT:      -6.4      0.000      0.000
REMARK  Name = 
REMARK  7 active torsions:
REMARK  status: ('A' for Active; 'I' for Inactive)
REMARK    1  A    between atoms: C_1  and  C_2
REMARK    2  A    between atoms: C_2  and  C_3
REMARK    3  A    between atoms: C_3  and  N_4
REMARK    4  A    between atoms: N_4  and  C_5
REMARK    5  A    between atoms: C_5  and  C_6
REMARK    6  A    between atoms: C_9  and  C_11
REMARK    7  A    between atoms: N_14  and  C_15
REMARK                            x       y       z     vdW  Elec       q    Type
REMARK                         _______ _______ _______ _____ _____    ______ ____
ROOT
ATOM      1  N   UNL     1       2.355   3.806  18.399  0.00  0.00    +0.000 N 
ATOM      2  C   UNL     1       3.581   3.094  18.440  0.00  0.00    +0.000 C 
ATOM      3  O   UNL     1       3.614   1.910  18.781  0.00  0.00    +0.000 OA
ENDROOT
BRANCH   2   4
ATOM      4  C   UNL     1       4.842   3.775  18.033  0.00  0.00    +0.000 A 
ATOM      5  C   UNL     1       5.287   3.979  16.695  0.00  0.00    +0.000 A 
ATOM      6  C   UNL     1       6.461   4.690  16.796  0.00  0.00    +0.000 A 
ATOM      7  N   UNL     1       6.696   4.848  18.130  0.00  0.00    +0.000 N 
ATOM      8  N   UNL     1       5.747   4.273  18.899  0.00  0.00    +0.000 NA
BRANCH   7   9
ATOM      9  C   UNL     1       7.799   5.583  18.745  0.00  0.00    +0.000 C 
ATOM     10  F   UNL     1       7.894   6.844  18.243  0.00  0.00    +0.000 F 
ATOM     11  F   UNL     1       7.611   5.710  20.087  0.00  0.00    +0.000 F 
ENDBRANCH   7   9
ENDBRANCH   2   4
BRANCH   1  12
ATOM     12  C   UNL     1       1.176   3.145  18.966  0.00  0.00    +0.000 C 
BRANCH  12  14
ATOM     13  C   UNL     1       1.517   2.753  21.473  0.00  0.00    +0.000 C 
ATOM     14  C   UNL     1       0.840   3.583  20.396  0.00  0.00    +0.000 C 
ENDBRANCH  12  14
ENDBRANCH   1  12
BRANCH   1  15
ATOM     15  C   UNL     1       2.286   5.210  17.947  0.00  0.00    +0.000 C 
BRANCH  15  16
ATOM     16  C   UNL     1       2.726   6.364  18.839  0.00  0.00    +0.000 C 
ATOM     17  F   UNL     1       3.163   5.903  20.036  0.00  0.00    +0.000 F 
ATOM     18  F   UNL     1       3.798   6.974  18.258  0.00  0.00    +0.000 F 
ENDBRANCH  15  16
ENDBRANCH   1  15
TORSDOF 6
ENDMDL
MODEL 2
REMARK VINA RESULT:      -6.4      2.725      5.567
REMARK  Name = 
REMARK  7 active torsions:
REMARK  status: ('A' for Active; 'I' for Inactive)
REMARK    1  A    between atoms: C_1  and  C_2
REMARK    2  A    between atoms: C_2  and  C_3
REMARK    3  A    between atoms: C_3  and  N_4
REMARK    4  A    between atoms: N_4  and  C_5
REMARK    5  A    between atoms: C_5  and  C_6
REMARK    6  A    between atoms: C_9  and  C_11
REMARK    7  A    between atoms: N_14  and  C_15
REMARK                            x       y       z     vdW  Elec       q    Type
REMARK                         _______ _______ _______ _____ _____    ______ ____
ROOT
ATOM      1  N   UNL     1       6.342   6.318  18.119  0.00  0.00    +0.000 N 
ATOM      2  C   UNL     1       6.113   5.385  19.162  0.00  0.00    +0.000 C 
ATOM      3  O   UNL     1       6.968   5.179  20.025  0.00  0.00    +0.000 OA
ENDROOT
BRANCH   2   4
ATOM      4  C   UNL     1       4.809   4.670  19.235  0.00  0.00    +0.000 A 
ATOM      5  C   UNL     1       4.505   3.421  18.620  0.00  0.00    +0.000 A 
ATOM      6  C   UNL     1       3.216   3.122  18.996  0.00  0.00    +0.000 A 
ATOM      7  N   UNL     1       2.789   4.170  19.756  0.00  0.00    +0.000 N 
ATOM      8  N   UNL     1       3.724   5.135  19.887  0.00  0.00    +0.000 NA
BRANCH   7   9
ATOM      9  C   UNL     1       1.500   4.296  20.432  0.00  0.00    +0.000 C 
ATOM     10  F   UNL     1       1.485   3.602  21.602  0.00  0.00    +0.000 F 
ATOM     11  F   UNL     1       1.238   5.595  20.744  0.00  0.00    +0.000 F 
ENDBRANCH   7   9
ENDBRANCH   2   4
BRANCH   1  12
ATOM     12  C   UNL     1       7.696   6.867  17.995  0.00  0.00    +0.000 C 
BRANCH  12  14
ATOM     13  C   UNL     1       8.557   9.250  18.365  0.00  0.00    +0.000 C 
ATOM     14  C   UNL     1       7.742   8.313  17.490  0.00  0.00    +0.000 C 
ENDBRANCH  12  14
ENDBRANCH   1  12
BRANCH   1  15
ATOM     15  C   UNL     1       5.314   6.617  17.102  0.00  0.00    +0.000 C 
BRANCH  15  16
ATOM     16  C   UNL     1       5.426   6.104  15.672  0.00  0.00    +0.000 C 
ATOM     17  F   UNL     1       4.796   4.911  15.540  0.00  0.00    +0.000 F 
ATOM     18  F   UNL     1       4.767   6.970  14.850  0.00  0.00    +0.000 F 
ENDBRANCH  15  16
ENDBRANCH   1  15
TORSDOF 6
ENDMDL
MODEL 3
REMARK VINA RESULT:      -6.3      2.665      3.174
REMARK  Name = 
REMARK  7 active torsions:
REMARK  status: ('A' for Active; 'I' for Inactive)
REMARK    1  A    between atoms: C_1  and  C_2
REMARK    2  A    between atoms: C_2  and  C_3
REMARK    3  A    between atoms: C_3  and  N_4
REMARK    4  A    between atoms: N_4  and  C_5
REMARK    5  A    between atoms: C_5  and  C_6
REMARK    6  A    between atoms: C_9  and  C_11
REMARK    7  A    between atoms: N_14  and  C_15
REMARK                            x       y       z     vdW  Elec       q    Type
REMARK                         _______ _______ _______ _____ _____    ______ ____
ROOT
ATOM      1  N   UNL     1       3.790   3.101  18.838  0.00  0.00    +0.000 N 
ATOM      2  C   UNL     1       4.951   3.897  18.662  0.00  0.00    +0.000 C 
ATOM      3  O   UNL     1       5.798   3.985  19.553  0.00  0.00    +0.000 OA
ENDROOT
BRANCH   2   4
ATOM      4  C   UNL     1       5.167   4.609  17.372  0.00  0.00    +0.000 A 
ATOM      5  C   UNL     1       4.771   5.947  17.080  0.00  0.00    +0.000 A 
ATOM      6  C   UNL     1       5.217   6.198  15.803  0.00  0.00    +0.000 A 
ATOM      7  N   UNL     1       5.802   5.045  15.371  0.00  0.00    +0.000 N 
ATOM      8  N   UNL     1       5.754   4.058  16.291  0.00  0.00    +0.000 NA
BRANCH   7   9
ATOM      9  C   UNL     1       6.474   4.827  14.091  0.00  0.00    +0.000 C 
ATOM     10  F   UNL     1       7.802   5.106  14.176  0.00  0.00    +0.000 F 
ATOM     11  F   UNL     1       6.370   3.528  13.702  0.00  0.00    +0.000 F 
ENDBRANCH   7   9
ENDBRANCH   2   4
BRANCH   1  12
ATOM     12  C   UNL     1       3.544   2.560  20.178  0.00  0.00    +0.000 C 
BRANCH  12  14
ATOM     13  C   UNL     1       1.359   2.767  21.495  0.00  0.00    +0.000 C 
ATOM     14  C   UNL     1       2.646   3.442  21.053  0.00  0.00    +0.000 C 
ENDBRANCH  12  14
ENDBRANCH   1  12
BRANCH   1  15
ATOM     15  C   UNL     1       2.787   2.943  17.766  0.00  0.00    +0.000 C 
BRANCH  15  16
ATOM     16  C   UNL     1       1.553   3.833  17.683  0.00  0.00    +0.000 C 
ATOM     17  F   UNL     1       0.518   3.281  18.362  0.00  0.00    +0.000 F 
ATOM     18  F   UNL     1       1.828   5.011  18.310  0.00  0.00    +0.000 F 
ENDBRANCH  15  16
ENDBRANCH   1  15
TORSDOF 6
ENDMDL
MODEL 4
REMARK VINA RESULT:      -6.3      2.715      5.605
REMARK  Name = 
REMARK  7 active torsions:
REMARK  status: ('A' for Active; 'I' for Inactive)
REMARK    1  A    between atoms: C_1  and  C_2
REMARK    2  A    between atoms: C_2  and  C_3
REMARK    3  A    between atoms: C_3  and  N_4
REMARK    4  A    between atoms: N_4  and  C_5
REMARK    5  A    between atoms: C_5  and  C_6
REMARK    6  A    between atoms: C_9  and  C_11
REMARK    7  A    between atoms: N_14  and  C_15
REMARK                            x       y       z     vdW  Elec       q    Type
REMARK                         _______ _______ _______ _____ _____    ______ ____
ROOT
ATOM      1  N   UNL     1       5.928   5.468  17.676  0.00  0.00    +0.000 N 
ATOM      2  C   UNL     1       5.687   4.817  18.914  0.00  0.00    +0.000 C 
ATOM      3  O   UNL     1       6.465   4.950  19.860  0.00  0.00    +0.000 OA
ENDROOT
BRANCH   2   4
ATOM      4  C   UNL     1       4.460   3.990  19.083  0.00  0.00    +0.000 A 
ATOM      5  C   UNL     1       4.177   2.768  18.406  0.00  0.00    +0.000 A 
ATOM      6  C   UNL     1       2.972   2.334  18.908  0.00  0.00    +0.000 A 
ATOM      7  N   UNL     1       2.567   3.283  19.799  0.00  0.00    +0.000 N 
ATOM      8  N   UNL     1       3.435   4.312  19.897  0.00  0.00    +0.000 NA
BRANCH   7   9
ATOM      9  C   UNL     1       1.368   3.248  20.633  0.00  0.00    +0.000 C 
ATOM     10  F   UNL     1       1.681   3.342  21.954  0.00  0.00    +0.000 F 
ATOM     11  F   UNL     1       0.547   4.296  20.350  0.00  0.00    +0.000 F 
ENDBRANCH   7   9
ENDBRANCH   2   4
BRANCH   1  12
ATOM     12  C   UNL     1       7.226   6.129  17.508  0.00  0.00    +0.000 C 
BRANCH  12  14
ATOM     13  C   UNL     1       8.164   8.462  17.990  0.00  0.00    +0.000 C 
ATOM     14  C   UNL     1       7.131   7.636  17.243  0.00  0.00    +0.000 C 
ENDBRANCH  12  14
ENDBRANCH   1  12
BRANCH   1  15
ATOM     15  C   UNL     1       4.985   5.362  16.545  0.00  0.00    +0.000 C 
BRANCH  15  16
ATOM     16  C   UNL     1       5.308   4.539  15.305  0.00  0.00    +0.000 C 
ATOM     17  F   UNL     1       6.113   5.235  14.465  0.00  0.00    +0.000 F 
ATOM     18  F   UNL     1       6.022   3.443  15.687  0.00  0.00    +0.000 F 
ENDBRANCH  15  16
ENDBRANCH   1  15
TORSDOF 6
ENDMDL
MODEL 5
REMARK VINA RESULT:      -6.2      2.660      5.672
REMARK  Name = 
REMARK  7 active torsions:
REMARK  status: ('A' for Active; 'I' for Inactive)
REMARK    1  A    between atoms: C_1  and  C_2
REMARK    2  A    between atoms: C_2  and  C_3
REMARK    3  A    between atoms: C_3  and  N_4
REMARK    4  A    between atoms: N_4  and  C_5
REMARK    5  A    between atoms: C_5  and  C_6
REMARK    6  A    between atoms: C_9  and  C_11
REMARK    7  A    between atoms: N_14  and  C_15
REMARK                            x       y       z     vdW  Elec       q    Type
REMARK                         _______ _______ _______ _____ _____    ______ ____
ROOT
ATOM      1  N   UNL     1       4.897   5.875  17.287  0.00  0.00    +0.000 N 
ATOM      2  C   UNL     1       3.665   6.282  17.860  0.00  0.00    +0.000 C 
ATOM      3  O   UNL     1       3.330   7.468  17.864  0.00  0.00    +0.000 OA
ENDROOT
BRANCH   2   4
ATOM      4  C   UNL     1       2.748   5.259  18.435  0.00  0.00    +0.000 A 
ATOM      5  C   UNL     1       1.849   4.434  17.698  0.00  0.00    +0.000 A 
ATOM      6  C   UNL     1       1.250   3.613  18.626  0.00  0.00    +0.000 A 
ATOM      7  N   UNL     1       1.752   3.980  19.839  0.00  0.00    +0.000 N 
ATOM      8  N   UNL     1       2.635   4.997  19.753  0.00  0.00    +0.000 NA
BRANCH   7   9
ATOM      9  C   UNL     1       1.460   3.364  21.132  0.00  0.00    +0.000 C 
ATOM     10  F   UNL     1       1.555   2.009  21.067  0.00  0.00    +0.000 F 
ATOM     11  F   UNL     1       2.348   3.774  22.078  0.00  0.00    +0.000 F 
ENDBRANCH   7   9
ENDBRANCH   2   4
BRANCH   1  12
ATOM     12  C   UNL     1       5.834   6.931  16.890  0.00  0.00    +0.000 C 
BRANCH  12  14
ATOM     13  C   UNL     1       7.898   8.209  17.702  0.00  0.00    +0.000 C 
ATOM     14  C   UNL     1       7.187   6.870  17.607  0.00  0.00    +0.000 C 
ENDBRANCH  12  14
ENDBRANCH   1  12
BRANCH   1  15
ATOM     15  C   UNL     1       5.296   4.454  17.229  0.00  0.00    +0.000 C 
BRANCH  15  16
ATOM     16  C   UNL     1       5.768   3.805  15.934  0.00  0.00    +0.000 C 
ATOM     17  F   UNL     1       5.108   4.325  14.870  0.00  0.00    +0.000 F 
ATOM     18  F   UNL     1       7.082   4.114  15.750  0.00  0.00    +0.000 F 
ENDBRANCH  15  16
ENDBRANCH   1  15
TORSDOF 6
ENDMDL
MODEL 6
REMARK VINA RESULT:      -6.2      2.924      5.724
REMARK  Name = 
REMARK  7 active torsions:
REMARK  status: ('A' for Active; 'I' for Inactive)
REMARK    1  A    between atoms: C_1  and  C_2
REMARK    2  A    between atoms: C_2  and  C_3
REMARK    3  A    between atoms: C_3  and  N_4
REMARK    4  A    between atoms: N_4  and  C_5
REMARK    5  A    between atoms: C_5  and  C_6
REMARK    6  A    between atoms: C_9  and  C_11
REMARK    7  A    between atoms: N_14  and  C_15
REMARK                            x       y       z     vdW  Elec       q    Type
REMARK                         _______ _______ _______ _____ _____    ______ ____
ROOT
ATOM      1  N   UNL     1       6.347   6.184  17.928  0.00  0.00    +0.000 N 
ATOM      2  C   UNL     1       6.092   5.419  19.094  0.00  0.00    +0.000 C 
ATOM      3  O   UNL     1       6.907   5.384  20.018  0.00  0.00    +0.000 OA
ENDROOT
BRANCH   2   4
ATOM      4  C   UNL     1       4.807   4.676  19.220  0.00  0.00    +0.000 A 
ATOM      5  C   UNL     1       3.595   5.188  19.766  0.00  0.00    +0.000 A 
ATOM      6  C   UNL     1       2.669   4.180  19.631  0.00  0.00    +0.000 A 
ATOM      7  N   UNL     1       3.331   3.127  19.072  0.00  0.00    +0.000 N 
ATOM      8  N   UNL     1       4.636   3.392  18.845  0.00  0.00    +0.000 NA
BRANCH   7   9
ATOM      9  C   UNL     1       2.762   1.838  18.684  0.00  0.00    +0.000 C 
ATOM     10  F   UNL     1       1.649   1.551  19.410  0.00  0.00    +0.000 F 
ATOM     11  F   UNL     1       2.386   1.846  17.376  0.00  0.00    +0.000 F 
ENDBRANCH   7   9
ENDBRANCH   2   4
BRANCH   1  12
ATOM     12  C   UNL     1       7.689   6.757  17.781  0.00  0.00    +0.000 C 
BRANCH  12  14
ATOM     13  C   UNL     1       8.565   9.076  18.421  0.00  0.00    +0.000 C 
ATOM     14  C   UNL     1       7.698   8.259  17.478  0.00  0.00    +0.000 C 
ENDBRANCH  12  14
ENDBRANCH   1  12
BRANCH   1  15
ATOM     15  C   UNL     1       5.365   6.280  16.829  0.00  0.00    +0.000 C 
BRANCH  15  16
ATOM     16  C   UNL     1       5.335   5.271  15.689  0.00  0.00    +0.000 C 
ATOM     17  F   UNL     1       5.998   5.751  14.608  0.00  0.00    +0.000 F 
ATOM     18  F   UNL     1       6.013   4.155  16.080  0.00  0.00    +0.000 F 
ENDBRANCH  15  16
ENDBRANCH   1  15
TORSDOF 6
ENDMDL
MODEL 7
REMARK VINA RESULT:      -6.2      3.086      3.712
REMARK  Name = 
REMARK  7 active torsions:
REMARK  status: ('A' for Active; 'I' for Inactive)
REMARK    1  A    between atoms: C_1  and  C_2
REMARK    2  A    between atoms: C_2  and  C_3
REMARK    3  A    between atoms: C_3  and  N_4
REMARK    4  A    between atoms: N_4  and  C_5
REMARK    5  A    between atoms: C_5  and  C_6
REMARK    6  A    between atoms: C_9  and  C_11
REMARK    7  A    between atoms: N_14  and  C_15
REMARK                            x       y       z     vdW  Elec       q    Type
REMARK                         _______ _______ _______ _____ _____    ______ ____
ROOT
ATOM      1  N   UNL     1       3.495   4.234  19.330  0.00  0.00    +0.000 N 
ATOM      2  C   UNL     1       4.028   5.279  18.532  0.00  0.00    +0.000 C 
ATOM      3  O   UNL     1       3.612   6.434  18.644  0.00  0.00    +0.000 OA
ENDROOT
BRANCH   2   4
ATOM      4  C   UNL     1       5.126   4.984  17.571  0.00  0.00    +0.000 A 
ATOM      5  C   UNL     1       6.517   4.949  17.877  0.00  0.00    +0.000 A 
ATOM      6  C   UNL     1       7.148   4.587  16.709  0.00  0.00    +0.000 A 
ATOM      7  N   UNL     1       6.167   4.462  15.770  0.00  0.00    +0.000 N 
ATOM      8  N   UNL     1       4.938   4.730  16.260  0.00  0.00    +0.000 NA
BRANCH   7   9
ATOM      9  C   UNL     1       6.331   4.042  14.380  0.00  0.00    +0.000 C 
ATOM     10  F   UNL     1       5.157   4.118  13.699  0.00  0.00    +0.000 F 
ATOM     11  F   UNL     1       7.214   4.848  13.729  0.00  0.00    +0.000 F 
ENDBRANCH   7   9
ENDBRANCH   2   4
BRANCH   1  12
ATOM     12  C   UNL     1       2.308   4.541  20.133  0.00  0.00    +0.000 C 
BRANCH  12  14
ATOM     13  C   UNL     1       1.317   2.655  21.553  0.00  0.00    +0.000 C 
ATOM     14  C   UNL     1       2.272   3.835  21.493  0.00  0.00    +0.000 C 
ENDBRANCH  12  14
ENDBRANCH   1  12
BRANCH   1  15
ATOM     15  C   UNL     1       4.010   2.852  19.247  0.00  0.00    +0.000 C 
BRANCH  15  16
ATOM     16  C   UNL     1       3.473   1.854  18.230  0.00  0.00    +0.000 C 
ATOM     17  F   UNL     1       3.901   0.600  18.517  0.00  0.00    +0.000 F 
ATOM     18  F   UNL     1       2.114   1.820  18.335  0.00  0.00    +0.000 F 
ENDBRANCH  15  16
ENDBRANCH   1  15
TORSDOF 6
ENDMDL
MODEL 8
REMARK VINA RESULT:      -6.2      1.358      1.742
REMARK  Name = 
REMARK  7 active torsions:
REMARK  status: ('A' for Active; 'I' for Inactive)
REMARK    1  A    between atoms: C_1  and  C_2
REMARK    2  A    between atoms: C_2  and  C_3
REMARK    3  A    between atoms: C_3  and  N_4
REMARK    4  A    between atoms: N_4  and  C_5
REMARK    5  A    between atoms: C_5  and  C_6
REMARK    6  A    between atoms: C_9  and  C_11
REMARK    7  A    between atoms: N_14  and  C_15
REMARK                            x       y       z     vdW  Elec       q    Type
REMARK                         _______ _______ _______ _____ _____    ______ ____
ROOT
ATOM      1  N   UNL     1       3.198   4.265  19.554  0.00  0.00    +0.000 N 
ATOM      2  C   UNL     1       4.511   3.798  19.294  0.00  0.00    +0.000 C 
ATOM      3  O   UNL     1       4.926   2.757  19.808  0.00  0.00    +0.000 OA
ENDROOT
BRANCH   2   4
ATOM      4  C   UNL     1       5.390   4.555  18.360  0.00  0.00    +0.000 A 
ATOM      5  C   UNL     1       5.486   4.351  16.952  0.00  0.00    +0.000 A 
ATOM      6  C   UNL     1       6.371   5.301  16.497  0.00  0.00    +0.000 A 
ATOM      7  N   UNL     1       6.792   5.988  17.597  0.00  0.00    +0.000 N 
ATOM      8  N   UNL     1       6.238   5.531  18.741  0.00  0.00    +0.000 NA
BRANCH   7   9
ATOM      9  C   UNL     1       7.701   7.131  17.624  0.00  0.00    +0.000 C 
ATOM     10  F   UNL     1       7.022   8.305  17.514  0.00  0.00    +0.000 F 
ATOM     11  F   UNL     1       8.385   7.183  18.798  0.00  0.00    +0.000 F 
ENDBRANCH   7   9
ENDBRANCH   2   4
BRANCH   1  12
ATOM     12  C   UNL     1       2.438   3.581  20.605  0.00  0.00    +0.000 C 
BRANCH  12  14
ATOM     13  C   UNL     1       0.863   2.408  18.962  0.00  0.00    +0.000 C 
ATOM     14  C   UNL     1       0.992   3.252  20.218  0.00  0.00    +0.000 C 
ENDBRANCH  12  14
ENDBRANCH   1  12
BRANCH   1  15
ATOM     15  C   UNL     1       2.664   5.483  18.912  0.00  0.00    +0.000 C 
BRANCH  15  16
ATOM     16  C   UNL     1       2.546   6.802  19.663  0.00  0.00    +0.000 C 
ATOM     17  F   UNL     1       2.220   7.809  18.816  0.00  0.00    +0.000 F 
ATOM     18  F   UNL     1       1.513   6.705  20.547  0.00  0.00    +0.000 F 
ENDBRANCH  15  16
ENDBRANCH   1  15
TORSDOF 6
ENDMDL
MODEL 9
REMARK VINA RESULT:      -6.2      0.714      1.010
REMARK  Name = 
REMARK  7 active torsions:
REMARK  status: ('A' for Active; 'I' for Inactive)
REMARK    1  A    between atoms: C_1  and  C_2
REMARK    2  A    between atoms: C_2  and  C_3
REMARK    3  A    between atoms: C_3  and  N_4
REMARK    4  A    between atoms: N_4  and  C_5
REMARK    5  A    between atoms: C_5  and  C_6
REMARK    6  A    between atoms: C_9  and  C_11
REMARK    7  A    between atoms: N_14  and  C_15
REMARK                            x       y       z     vdW  Elec       q    Type
REMARK                         _______ _______ _______ _____ _____    ______ ____
ROOT
ATOM      1  N   UNL     1       2.474   3.486  18.463  0.00  0.00    +0.000 N 
ATOM      2  C   UNL     1       3.836   3.101  18.552  0.00  0.00    +0.000 C 
ATOM      3  O   UNL     1       4.160   2.041  19.092  0.00  0.00    +0.000 OA
ENDROOT
BRANCH   2   4
ATOM      4  C   UNL     1       4.888   3.971  17.956  0.00  0.00    +0.000 A 
ATOM      5  C   UNL     1       5.253   4.016  16.579  0.00  0.00    +0.000 A 
ATOM      6  C   UNL     1       6.220   4.990  16.481  0.00  0.00    +0.000 A 
ATOM      7  N   UNL     1       6.426   5.451  17.748  0.00  0.00    +0.000 N 
ATOM      8  N   UNL     1       5.655   4.825  18.662  0.00  0.00    +0.000 NA
BRANCH   7   9
ATOM      9  C   UNL     1       7.323   6.530  18.154  0.00  0.00    +0.000 C 
ATOM     10  F   UNL     1       8.331   6.066  18.941  0.00  0.00    +0.000 F 
ATOM     11  F   UNL     1       7.907   7.112  17.072  0.00  0.00    +0.000 F 
ENDBRANCH   7   9
ENDBRANCH   2   4
BRANCH   1  12
ATOM     12  C   UNL     1       1.500   2.683  19.209  0.00  0.00    +0.000 C 
BRANCH  12  14
ATOM     13  C   UNL     1       1.912   3.005  21.715  0.00  0.00    +0.000 C 
ATOM     14  C   UNL     1       1.032   3.326  20.519  0.00  0.00    +0.000 C 
ENDBRANCH  12  14
ENDBRANCH   1  12
BRANCH   1  15
ATOM     15  C   UNL     1       2.060   4.727  17.779  0.00  0.00    +0.000 C 
BRANCH  15  16
ATOM     16  C   UNL     1       2.263   6.099  18.410  0.00  0.00    +0.000 C 
ATOM     17  F   UNL     1       2.792   5.980  19.652  0.00  0.00    +0.000 F 
ATOM     18  F   UNL     1       3.184   6.781  17.672  0.00  0.00    +0.000 F 
ENDBRANCH  15  16
ENDBRANCH   1  15
TORSDOF 6
ENDMDL
