MODEL 1
REMARK VINA RESULT:      -7.7      0.000      0.000
REMARK  Name = 
REMARK  2 active torsions:
REMARK  status: ('A' for Active; 'I' for Inactive)
REMARK    1  A    between atoms: C_1  and  C_2
REMARK    2  A    between atoms: C_11  and  C_12
REMARK                            x       y       z     vdW  Elec       q    Type
REMARK                         _______ _______ _______ _____ _____    ______ ____
ROOT
ATOM      1  C   UNL     1       4.307   1.813  20.886  0.00  0.00    +0.000 C 
ATOM      2  C   UNL     1       3.322   2.984  20.799  0.00  0.00    +0.000 C 
ATOM      3  C   UNL     1       1.919   2.530  21.347  0.00  0.00    +0.000 C 
ATOM      4  N   UNL     1       0.723   3.048  20.632  0.00  0.00    +0.000 NA
ATOM      5  C   UNL     1       0.803   2.819  19.162  0.00  0.00    +0.000 C 
ATOM      6  C   UNL     1       2.227   2.699  18.578  0.00  0.00    +0.000 C 
ATOM      7  C   UNL     1       2.422   3.253  17.149  0.00  0.00    +0.000 C 
ATOM      8  C   UNL     1       3.822   3.782  17.265  0.00  0.00    +0.000 A 
ATOM      9  C   UNL     1       4.699   4.170  16.275  0.00  0.00    +0.000 A 
ATOM     10  C   UNL     1       5.944   4.652  16.680  0.00  0.00    +0.000 A 
ATOM     11  C   UNL     1       6.246   4.730  18.051  0.00  0.00    +0.000 A 
ATOM     12  N   UNL     1       5.364   4.342  19.020  0.00  0.00    +0.000 NA
ATOM     13  C   UNL     1       4.181   3.877  18.606  0.00  0.00    +0.000 A 
ATOM     14  N   UNL     1       3.150   3.448  19.431  0.00  0.00    +0.000 N 
ATOM     15  H   UNL     1       0.737   4.061  20.764  0.00  0.00    +0.000 HD
ENDROOT
BRANCH  11  16
ATOM     16  C   UNL     1       7.604   5.271  18.488  0.00  0.00    +0.000 C 
ATOM     17  F   UNL     1       8.627   4.384  18.282  0.00  0.00    +0.000 F 
ATOM     18  F   UNL     1       7.973   6.403  17.824  0.00  0.00    +0.000 F 
ATOM     19  F   UNL     1       7.659   5.575  19.815  0.00  0.00    +0.000 F 
ENDBRANCH  11  16
TORSDOF 1
ENDMDL
MODEL 2
REMARK VINA RESULT:      -7.7      2.297      2.804
REMARK  Name = 
REMARK  2 active torsions:
REMARK  status: ('A' for Active; 'I' for Inactive)
REMARK    1  A    between atoms: C_1  and  C_2
REMARK    2  A    between atoms: C_11  and  C_12
REMARK                            x       y       z     vdW  Elec       q    Type
REMARK                         _______ _______ _______ _____ _____    ______ ____
ROOT
ATOM      1  C   UNL     1       2.314   2.287  17.835  0.00  0.00    +0.000 C 
ATOM      2  C   UNL     1       3.041   2.770  19.094  0.00  0.00    +0.000 C 
ATOM      3  C   UNL     1       2.166   2.449  20.361  0.00  0.00    +0.000 C 
ATOM      4  N   UNL     1       2.155   3.469  21.442  0.00  0.00    +0.000 NA
ATOM      5  C   UNL     1       1.840   4.831  20.928  0.00  0.00    +0.000 C 
ATOM      6  C   UNL     1       2.187   5.086  19.445  0.00  0.00    +0.000 C 
ATOM      7  C   UNL     1       2.644   6.517  19.092  0.00  0.00    +0.000 C 
ATOM      8  C   UNL     1       3.647   6.212  18.017  0.00  0.00    +0.000 A 
ATOM      9  C   UNL     1       4.234   7.054  17.098  0.00  0.00    +0.000 A 
ATOM     10  C   UNL     1       5.164   6.494  16.222  0.00  0.00    +0.000 A 
ATOM     11  C   UNL     1       5.467   5.124  16.314  0.00  0.00    +0.000 A 
ATOM     12  N   UNL     1       4.877   4.302  17.233  0.00  0.00    +0.000 NA
ATOM     13  C   UNL     1       3.984   4.862  18.056  0.00  0.00    +0.000 A 
ATOM     14  N   UNL     1       3.290   4.203  19.061  0.00  0.00    +0.000 N 
ATOM     15  H   UNL     1       3.114   3.512  21.794  0.00  0.00    +0.000 HD
ENDROOT
BRANCH  11  16
ATOM     16  C   UNL     1       6.494   4.519  15.363  0.00  0.00    +0.000 C 
ATOM     17  F   UNL     1       6.129   3.286  14.891  0.00  0.00    +0.000 F 
ATOM     18  F   UNL     1       6.710   5.277  14.250  0.00  0.00    +0.000 F 
ATOM     19  F   UNL     1       7.714   4.333  15.938  0.00  0.00    +0.000 F 
ENDBRANCH  11  16
TORSDOF 1
ENDMDL
MODEL 3
REMARK VINA RESULT:      -7.7      1.328      1.345
REMARK  Name = 
REMARK  2 active torsions:
REMARK  status: ('A' for Active; 'I' for Inactive)
REMARK    1  A    between atoms: C_1  and  C_2
REMARK    2  A    between atoms: C_11  and  C_12
REMARK                            x       y       z     vdW  Elec       q    Type
REMARK                         _______ _______ _______ _____ _____    ______ ____
ROOT
ATOM      1  C   UNL     1       4.087   1.783  19.423  0.00  0.00    +0.000 C 
ATOM      2  C   UNL     1       3.439   2.801  20.366  0.00  0.00    +0.000 C 
ATOM      3  C   UNL     1       2.092   2.213  20.926  0.00  0.00    +0.000 C 
ATOM      4  N   UNL     1       0.959   3.164  21.079  0.00  0.00    +0.000 NA
ATOM      5  C   UNL     1       0.705   3.941  19.834  0.00  0.00    +0.000 C 
ATOM      6  C   UNL     1       1.918   4.119  18.895  0.00  0.00    +0.000 C 
ATOM      7  C   UNL     1       1.983   5.451  18.117  0.00  0.00    +0.000 C 
ATOM      8  C   UNL     1       3.469   5.664  18.092  0.00  0.00    +0.000 A 
ATOM      9  C   UNL     1       4.219   6.532  17.328  0.00  0.00    +0.000 A 
ATOM     10  C   UNL     1       5.598   6.534  17.535  0.00  0.00    +0.000 A 
ATOM     11  C   UNL     1       6.157   5.677  18.499  0.00  0.00    +0.000 A 
ATOM     12  N   UNL     1       5.399   4.823  19.249  0.00  0.00    +0.000 NA
ATOM     13  C   UNL     1       4.081   4.835  19.026  0.00  0.00    +0.000 A 
ATOM     14  N   UNL     1       3.144   4.056  19.692  0.00  0.00    +0.000 N 
ATOM     15  H   UNL     1       1.258   3.841  21.782  0.00  0.00    +0.000 HD
ENDROOT
BRANCH  11  16
ATOM     16  C   UNL     1       7.665   5.693  18.730  0.00  0.00    +0.000 C 
ATOM     17  F   UNL     1       8.315   4.663  18.104  0.00  0.00    +0.000 F 
ATOM     18  F   UNL     1       8.268   6.827  18.274  0.00  0.00    +0.000 F 
ATOM     19  F   UNL     1       8.008   5.583  20.044  0.00  0.00    +0.000 F 
ENDBRANCH  11  16
TORSDOF 1
ENDMDL
MODEL 4
REMARK VINA RESULT:      -7.6      2.409      3.057
REMARK  Name = 
REMARK  2 active torsions:
REMARK  status: ('A' for Active; 'I' for Inactive)
REMARK    1  A    between atoms: C_1  and  C_2
REMARK    2  A    between atoms: C_11  and  C_12
REMARK                            x       y       z     vdW  Elec       q    Type
REMARK                         _______ _______ _______ _____ _____    ______ ____
ROOT
ATOM      1  C   UNL     1       2.027   2.348  17.957  0.00  0.00    +0.000 C 
ATOM      2  C   UNL     1       2.889   2.752  19.157  0.00  0.00    +0.000 C 
ATOM      3  C   UNL     1       2.106   2.453  20.489  0.00  0.00    +0.000 C 
ATOM      4  N   UNL     1       2.253   3.443  21.588  0.00  0.00    +0.000 NA
ATOM      5  C   UNL     1       1.983   4.835  21.131  0.00  0.00    +0.000 C 
ATOM      6  C   UNL     1       2.218   5.106  19.629  0.00  0.00    +0.000 C 
ATOM      7  C   UNL     1       2.735   6.515  19.267  0.00  0.00    +0.000 C 
ATOM      8  C   UNL     1       3.622   6.176  18.104  0.00  0.00    +0.000 A 
ATOM      9  C   UNL     1       4.181   7.004  17.155  0.00  0.00    +0.000 A 
ATOM     10  C   UNL     1       4.995   6.410  16.191  0.00  0.00    +0.000 A 
ATOM     11  C   UNL     1       5.216   5.022  16.228  0.00  0.00    +0.000 A 
ATOM     12  N   UNL     1       4.654   4.215  17.177  0.00  0.00    +0.000 NA
ATOM     13  C   UNL     1       3.873   4.808  18.085  0.00  0.00    +0.000 A 
ATOM     14  N   UNL     1       3.225   4.167  19.133  0.00  0.00    +0.000 N 
ATOM     15  H   UNL     1       3.238   3.417  21.856  0.00  0.00    +0.000 HD
ENDROOT
BRANCH  11  16
ATOM     16  C   UNL     1       6.117   4.379  15.179  0.00  0.00    +0.000 C 
ATOM     17  F   UNL     1       7.401   4.857  15.208  0.00  0.00    +0.000 F 
ATOM     18  F   UNL     1       6.235   3.029  15.324  0.00  0.00    +0.000 F 
ATOM     19  F   UNL     1       5.689   4.588  13.902  0.00  0.00    +0.000 F 
ENDBRANCH  11  16
TORSDOF 1
ENDMDL
MODEL 5
REMARK VINA RESULT:      -7.5      3.253      5.559
REMARK  Name = 
REMARK  2 active torsions:
REMARK  status: ('A' for Active; 'I' for Inactive)
REMARK    1  A    between atoms: C_1  and  C_2
REMARK    2  A    between atoms: C_11  and  C_12
REMARK                            x       y       z     vdW  Elec       q    Type
REMARK                         _______ _______ _______ _____ _____    ______ ____
ROOT
ATOM      1  C   UNL     1       3.826   7.265  17.514  0.00  0.00    +0.000 C 
ATOM      2  C   UNL     1       5.122   6.558  17.921  0.00  0.00    +0.000 C 
ATOM      3  C   UNL     1       6.324   7.153  17.099  0.00  0.00    +0.000 C 
ATOM      4  N   UNL     1       7.367   6.193  16.649  0.00  0.00    +0.000 NA
ATOM      5  C   UNL     1       6.783   5.022  15.937  0.00  0.00    +0.000 C 
ATOM      6  C   UNL     1       5.325   4.670  16.305  0.00  0.00    +0.000 C 
ATOM      7  C   UNL     1       4.963   3.170  16.279  0.00  0.00    +0.000 C 
ATOM      8  C   UNL     1       3.984   3.120  17.417  0.00  0.00    +0.000 A 
ATOM      9  C   UNL     1       3.087   2.131  17.761  0.00  0.00    +0.000 A 
ATOM     10  C   UNL     1       2.309   2.345  18.899  0.00  0.00    +0.000 A 
ATOM     11  C   UNL     1       2.471   3.529  19.638  0.00  0.00    +0.000 A 
ATOM     12  N   UNL     1       3.366   4.499  19.284  0.00  0.00    +0.000 NA
ATOM     13  C   UNL     1       4.095   4.274  18.186  0.00  0.00    +0.000 A 
ATOM     14  N   UNL     1       5.062   5.126  17.671  0.00  0.00    +0.000 N 
ATOM     15  H   UNL     1       7.793   5.825  17.502  0.00  0.00    +0.000 HD
ENDROOT
BRANCH  11  16
ATOM     16  C   UNL     1       1.627   3.752  20.889  0.00  0.00    +0.000 C 
ATOM     17  F   UNL     1       0.786   2.706  21.162  0.00  0.00    +0.000 F 
ATOM     18  F   UNL     1       2.370   3.918  22.019  0.00  0.00    +0.000 F 
ATOM     19  F   UNL     1       0.818   4.845  20.803  0.00  0.00    +0.000 F 
ENDBRANCH  11  16
TORSDOF 1
ENDMDL
MODEL 6
REMARK VINA RESULT:      -7.3      3.833      4.380
REMARK  Name = 
REMARK  2 active torsions:
REMARK  status: ('A' for Active; 'I' for Inactive)
REMARK    1  A    between atoms: C_1  and  C_2
REMARK    2  A    between atoms: C_11  and  C_12
REMARK                            x       y       z     vdW  Elec       q    Type
REMARK                         _______ _______ _______ _____ _____    ______ ____
ROOT
ATOM      1  C   UNL     1       1.972   4.440  20.941  0.00  0.00    +0.000 C 
ATOM      2  C   UNL     1       1.534   3.846  19.599  0.00  0.00    +0.000 C 
ATOM      3  C   UNL     1       1.460   2.279  19.718  0.00  0.00    +0.000 C 
ATOM      4  N   UNL     1       1.917   1.497  18.539  0.00  0.00    +0.000 NA
ATOM      5  C   UNL     1       3.268   1.917  18.075  0.00  0.00    +0.000 C 
ATOM      6  C   UNL     1       3.673   3.369  18.412  0.00  0.00    +0.000 C 
ATOM      7  C   UNL     1       4.565   4.082  17.373  0.00  0.00    +0.000 C 
ATOM      8  C   UNL     1       4.040   5.483  17.498  0.00  0.00    +0.000 A 
ATOM      9  C   UNL     1       4.577   6.667  17.040  0.00  0.00    +0.000 A 
ATOM     10  C   UNL     1       3.849   7.832  17.281  0.00  0.00    +0.000 A 
ATOM     11  C   UNL     1       2.620   7.755  17.959  0.00  0.00    +0.000 A 
ATOM     12  N   UNL     1       2.101   6.573  18.406  0.00  0.00    +0.000 NA
ATOM     13  C   UNL     1       2.821   5.472  18.169  0.00  0.00    +0.000 A 
ATOM     14  N   UNL     1       2.461   4.180  18.529  0.00  0.00    +0.000 N 
ATOM     15  H   UNL     1       1.271   1.730  17.783  0.00  0.00    +0.000 HD
ENDROOT
BRANCH  11  16
ATOM     16  C   UNL     1       1.822   9.031  18.208  0.00  0.00    +0.000 C 
ATOM     17  F   UNL     1       2.498  10.167  17.849  0.00  0.00    +0.000 F 
ATOM     18  F   UNL     1       0.650   9.078  17.514  0.00  0.00    +0.000 F 
ATOM     19  F   UNL     1       1.494   9.212  19.519  0.00  0.00    +0.000 F 
ENDBRANCH  11  16
TORSDOF 1
ENDMDL
MODEL 7
REMARK VINA RESULT:      -7.2      1.673      1.900
REMARK  Name = 
REMARK  2 active torsions:
REMARK  status: ('A' for Active; 'I' for Inactive)
REMARK    1  A    between atoms: C_1  and  C_2
REMARK    2  A    between atoms: C_11  and  C_12
REMARK                            x       y       z     vdW  Elec       q    Type
REMARK                         _______ _______ _______ _____ _____    ______ ____
ROOT
ATOM      1  C   UNL     1       4.069   1.902  19.144  0.00  0.00    +0.000 C 
ATOM      2  C   UNL     1       3.763   2.832  20.322  0.00  0.00    +0.000 C 
ATOM      3  C   UNL     1       2.610   2.212  21.194  0.00  0.00    +0.000 C 
ATOM      4  N   UNL     1       1.610   3.160  21.753  0.00  0.00    +0.000 NA
ATOM      5  C   UNL     1       1.044   4.060  20.710  0.00  0.00    +0.000 C 
ATOM      6  C   UNL     1       1.942   4.311  19.479  0.00  0.00    +0.000 C 
ATOM      7  C   UNL     1       1.838   5.712  18.839  0.00  0.00    +0.000 C 
ATOM      8  C   UNL     1       3.262   5.904  18.403  0.00  0.00    +0.000 A 
ATOM      9  C   UNL     1       3.797   6.832  17.536  0.00  0.00    +0.000 A 
ATOM     10  C   UNL     1       5.177   6.793  17.333  0.00  0.00    +0.000 A 
ATOM     11  C   UNL     1       5.952   5.836  18.012  0.00  0.00    +0.000 A 
ATOM     12  N   UNL     1       5.405   4.925  18.871  0.00  0.00    +0.000 NA
ATOM     13  C   UNL     1       4.080   4.978  19.042  0.00  0.00    +0.000 A 
ATOM     14  N   UNL     1       3.341   4.151  19.878  0.00  0.00    +0.000 N 
ATOM     15  H   UNL     1       2.128   3.761  22.397  0.00  0.00    +0.000 HD
ENDROOT
BRANCH  11  16
ATOM     16  C   UNL     1       7.461   5.807  17.797  0.00  0.00    +0.000 C 
ATOM     17  F   UNL     1       8.172   5.970  18.957  0.00  0.00    +0.000 F 
ATOM     18  F   UNL     1       7.907   4.633  17.266  0.00  0.00    +0.000 F 
ATOM     19  F   UNL     1       7.905   6.792  16.967  0.00  0.00    +0.000 F 
ENDBRANCH  11  16
TORSDOF 1
ENDMDL
MODEL 8
REMARK VINA RESULT:      -7.2      1.894      2.191
REMARK  Name = 
REMARK  2 active torsions:
REMARK  status: ('A' for Active; 'I' for Inactive)
REMARK    1  A    between atoms: C_1  and  C_2
REMARK    2  A    between atoms: C_11  and  C_12
REMARK                            x       y       z     vdW  Elec       q    Type
REMARK                         _______ _______ _______ _____ _____    ______ ____
ROOT
ATOM      1  C   UNL     1       3.691   1.882  18.672  0.00  0.00    +0.000 C 
ATOM      2  C   UNL     1       3.873   2.699  19.955  0.00  0.00    +0.000 C 
ATOM      3  C   UNL     1       2.930   2.129  21.078  0.00  0.00    +0.000 C 
ATOM      4  N   UNL     1       2.283   3.122  21.976  0.00  0.00    +0.000 NA
ATOM      5  C   UNL     1       1.590   4.199  21.217  0.00  0.00    +0.000 C 
ATOM      6  C   UNL     1       2.134   4.479  19.799  0.00  0.00    +0.000 C 
ATOM      7  C   UNL     1       2.068   5.947  19.325  0.00  0.00    +0.000 C 
ATOM      8  C   UNL     1       3.325   6.011  18.506  0.00  0.00    +0.000 A 
ATOM      9  C   UNL     1       3.730   6.960  17.591  0.00  0.00    +0.000 A 
ATOM     10  C   UNL     1       4.974   6.776  16.990  0.00  0.00    +0.000 A 
ATOM     11  C   UNL     1       5.755   5.659  17.338  0.00  0.00    +0.000 A 
ATOM     12  N   UNL     1       5.339   4.728  18.247  0.00  0.00    +0.000 NA
ATOM     13  C   UNL     1       4.139   4.924  18.804  0.00  0.00    +0.000 A 
ATOM     14  N   UNL     1       3.548   4.103  19.755  0.00  0.00    +0.000 N 
ATOM     15  H   UNL     1       3.045   3.576  22.483  0.00  0.00    +0.000 HD
ENDROOT
BRANCH  11  16
ATOM     16  C   UNL     1       7.121   5.469  16.687  0.00  0.00    +0.000 C 
ATOM     17  F   UNL     1       7.042   5.114  15.366  0.00  0.00    +0.000 F 
ATOM     18  F   UNL     1       7.890   6.594  16.709  0.00  0.00    +0.000 F 
ATOM     19  F   UNL     1       7.864   4.490  17.274  0.00  0.00    +0.000 F 
ENDBRANCH  11  16
TORSDOF 1
ENDMDL
MODEL 9
REMARK VINA RESULT:      -7.2      3.362      5.474
REMARK  Name = 
REMARK  2 active torsions:
REMARK  status: ('A' for Active; 'I' for Inactive)
REMARK    1  A    between atoms: C_1  and  C_2
REMARK    2  A    between atoms: C_11  and  C_12
REMARK                            x       y       z     vdW  Elec       q    Type
REMARK                         _______ _______ _______ _____ _____    ______ ____
ROOT
ATOM      1  C   UNL     1       6.847   4.595  18.420  0.00  0.00    +0.000 C 
ATOM      2  C   UNL     1       5.894   4.479  17.227  0.00  0.00    +0.000 C 
ATOM      3  C   UNL     1       6.629   4.958  15.921  0.00  0.00    +0.000 C 
ATOM      4  N   UNL     1       5.819   5.735  14.945  0.00  0.00    +0.000 NA
ATOM      5  C   UNL     1       5.108   6.876  15.586  0.00  0.00    +0.000 C 
ATOM      6  C   UNL     1       4.806   6.718  17.092  0.00  0.00    +0.000 C 
ATOM      7  C   UNL     1       3.494   7.362  17.591  0.00  0.00    +0.000 C 
ATOM      8  C   UNL     1       3.103   6.368  18.646  0.00  0.00    +0.000 A 
ATOM      9  C   UNL     1       2.168   6.478  19.653  0.00  0.00    +0.000 A 
ATOM     10  C   UNL     1       1.993   5.371  20.483  0.00  0.00    +0.000 A 
ATOM     11  C   UNL     1       2.753   4.209  20.262  0.00  0.00    +0.000 A 
ATOM     12  N   UNL     1       3.675   4.116  19.257  0.00  0.00    +0.000 NA
ATOM     13  C   UNL     1       3.829   5.193  18.480  0.00  0.00    +0.000 A 
ATOM     14  N   UNL     1       4.701   5.292  17.404  0.00  0.00    +0.000 N 
ATOM     15  H   UNL     1       5.094   5.096  14.614  0.00  0.00    +0.000 HD
ENDROOT
BRANCH  11  16
ATOM     16  C   UNL     1       2.548   2.998  21.165  0.00  0.00    +0.000 C 
ATOM     17  F   UNL     1       1.599   2.130  20.693  0.00  0.00    +0.000 F 
ATOM     18  F   UNL     1       3.674   2.245  21.321  0.00  0.00    +0.000 F 
ATOM     19  F   UNL     1       2.135   3.327  22.420  0.00  0.00    +0.000 F 
ENDBRANCH  11  16
TORSDOF 1
ENDMDL
