MODEL 1
REMARK VINA RESULT:      -8.1      0.000      0.000
REMARK  Name = 
REMARK  6 active torsions:
REMARK  status: ('A' for Active; 'I' for Inactive)
REMARK    1  A    between atoms: O_1  and  C_2
REMARK    2  A    between atoms: C_2  and  C_3
REMARK    3  A    between atoms: C_2  and  C_9
REMARK    4  A    between atoms: C_2  and  C_16
REMARK    5  A    between atoms: C_19  and  C_20
REMARK    6  A    between atoms: C_20  and  N_21
REMARK                            x       y       z     vdW  Elec       q    Type
REMARK                         _______ _______ _______ _____ _____    ______ ____
ROOT
ATOM      1  C   UNL     1       6.401   5.031  17.394  0.00  0.00    +0.000 C 
ENDROOT
BRANCH   1   2
ATOM      2  C   UNL     1       5.059   4.869  18.158  0.00  0.00    +0.000 A 
ATOM      3  C   UNL     1       3.986   5.766  17.961  0.00  0.00    +0.000 A 
ATOM      4  C   UNL     1       2.753   5.582  18.594  0.00  0.00    +0.000 A 
ATOM      5  C   UNL     1       2.568   4.496  19.440  0.00  0.00    +0.000 A 
ATOM      6 CL   UNL     1       1.053   4.273  20.224  0.00  0.00    +0.000 Cl
ATOM      7  C   UNL     1       3.600   3.583  19.642  0.00  0.00    +0.000 A 
ATOM      8  C   UNL     1       4.833   3.763  19.001  0.00  0.00    +0.000 A 
ENDBRANCH   1   2
BRANCH   1   9
ATOM      9  C   UNL     1       6.360   4.716  15.878  0.00  0.00    +0.000 A 
ATOM     10  C   UNL     1       5.302   4.053  15.237  0.00  0.00    +0.000 A 
ATOM     11  C   UNL     1       5.332   3.814  13.856  0.00  0.00    +0.000 A 
ATOM     12  C   UNL     1       6.419   4.230  13.088  0.00  0.00    +0.000 A 
ATOM     13  C   UNL     1       7.493   4.862  13.700  0.00  0.00    +0.000 A 
ATOM     14  C   UNL     1       7.469   5.087  15.078  0.00  0.00    +0.000 A 
ENDBRANCH   1   9
BRANCH   1  15
ATOM     15  C   UNL     1       7.059   6.383  17.769  0.00  0.00    +0.000 A 
ATOM     16  C   UNL     1       6.821   7.597  17.097  0.00  0.00    +0.000 A 
ATOM     17  C   UNL     1       7.507   8.775  17.449  0.00  0.00    +0.000 A 
ATOM     18  C   UNL     1       8.423   8.776  18.507  0.00  0.00    +0.000 A 
ATOM     19  C   UNL     1       8.633   7.585  19.209  0.00  0.00    +0.000 A 
ATOM     20  C   UNL     1       7.970   6.413  18.841  0.00  0.00    +0.000 A 
BRANCH  18  21
ATOM     21  C   UNL     1       9.233  10.006  18.864  0.00  0.00    +0.000 C 
BRANCH  21  22
ATOM     22  N   UNL     1       9.487  10.999  17.819  0.00  0.00    +0.000 NA
ATOM     23  C   UNL     1      10.847  11.525  17.736  0.00  0.00    +0.000 C 
ATOM     24  C   UNL     1      10.790  12.902  18.368  0.00  0.00    +0.000 C 
ATOM     25  C   UNL     1       9.383  13.386  18.074  0.00  0.00    +0.000 C 
ATOM     26  C   UNL     1       8.565  12.131  17.801  0.00  0.00    +0.000 C 
ENDBRANCH  21  22
ENDBRANCH  18  21
ENDBRANCH   1  15
BRANCH   1  27
ATOM     27  O   UNL     1       7.300   4.032  17.937  0.00  0.00    +0.000 OA
ATOM     28  H   UNL     1       8.076   4.021  17.353  0.00  0.00    +0.000 HD
ENDBRANCH   1  27
TORSDOF 6
ENDMDL
MODEL 2
REMARK VINA RESULT:      -8.1      0.969      1.279
REMARK  Name = 
REMARK  6 active torsions:
REMARK  status: ('A' for Active; 'I' for Inactive)
REMARK    1  A    between atoms: O_1  and  C_2
REMARK    2  A    between atoms: C_2  and  C_3
REMARK    3  A    between atoms: C_2  and  C_9
REMARK    4  A    between atoms: C_2  and  C_16
REMARK    5  A    between atoms: C_19  and  C_20
REMARK    6  A    between atoms: C_20  and  N_21
REMARK                            x       y       z     vdW  Elec       q    Type
REMARK                         _______ _______ _______ _____ _____    ______ ____
ROOT
ATOM      1  C   UNL     1       6.455   5.160  17.510  0.00  0.00    +0.000 C 
ENDROOT
BRANCH   1   2
ATOM      2  C   UNL     1       5.166   4.964  18.354  0.00  0.00    +0.000 A 
ATOM      3  C   UNL     1       4.133   5.927  18.357  0.00  0.00    +0.000 A 
ATOM      4  C   UNL     1       2.942   5.722  19.059  0.00  0.00    +0.000 A 
ATOM      5  C   UNL     1       2.760   4.546  19.777  0.00  0.00    +0.000 A 
ATOM      6 CL   UNL     1       1.297   4.296  20.647  0.00  0.00    +0.000 Cl
ATOM      7  C   UNL     1       3.751   3.568  19.780  0.00  0.00    +0.000 A 
ATOM      8  C   UNL     1       4.941   3.771  19.070  0.00  0.00    +0.000 A 
ENDBRANCH   1   2
BRANCH   1   9
ATOM      9  C   UNL     1       6.363   4.732  16.025  0.00  0.00    +0.000 A 
ATOM     10  C   UNL     1       5.284   4.028  15.470  0.00  0.00    +0.000 A 
ATOM     11  C   UNL     1       5.268   3.686  14.111  0.00  0.00    +0.000 A 
ATOM     12  C   UNL     1       6.330   4.036  13.279  0.00  0.00    +0.000 A 
ATOM     13  C   UNL     1       7.425   4.707  13.807  0.00  0.00    +0.000 A 
ATOM     14  C   UNL     1       7.447   5.035  15.164  0.00  0.00    +0.000 A 
ENDBRANCH   1   9
BRANCH   1  15
ATOM     15  C   UNL     1       7.031   6.577  17.754  0.00  0.00    +0.000 A 
ATOM     16  C   UNL     1       6.585   7.741  17.100  0.00  0.00    +0.000 A 
ATOM     17  C   UNL     1       7.203   8.987  17.320  0.00  0.00    +0.000 A 
ATOM     18  C   UNL     1       8.260   9.107  18.229  0.00  0.00    +0.000 A 
ATOM     19  C   UNL     1       8.680   7.965  18.917  0.00  0.00    +0.000 A 
ATOM     20  C   UNL     1       8.083   6.726  18.677  0.00  0.00    +0.000 A 
BRANCH  18  21
ATOM     21  C   UNL     1       8.994  10.416  18.434  0.00  0.00    +0.000 C 
BRANCH  21  22
ATOM     22  N   UNL     1       9.889  10.539  19.586  0.00  0.00    +0.000 NA
ATOM     23  C   UNL     1       9.296  11.042  20.822  0.00  0.00    +0.000 C 
ATOM     24  C   UNL     1       9.737  12.489  20.926  0.00  0.00    +0.000 C 
ATOM     25  C   UNL     1      11.092  12.512  20.245  0.00  0.00    +0.000 C 
ATOM     26  C   UNL     1      11.118  11.287  19.340  0.00  0.00    +0.000 C 
ENDBRANCH  21  22
ENDBRANCH  18  21
ENDBRANCH   1  15
BRANCH   1  27
ATOM     27  O   UNL     1       7.447   4.267  18.074  0.00  0.00    +0.000 OA
ATOM     28  H   UNL     1       6.967   3.680  18.682  0.00  0.00    +0.000 HD
ENDBRANCH   1  27
TORSDOF 6
ENDMDL
MODEL 3
REMARK VINA RESULT:      -8.1      4.575      7.488
REMARK  Name = 
REMARK  6 active torsions:
REMARK  status: ('A' for Active; 'I' for Inactive)
REMARK    1  A    between atoms: O_1  and  C_2
REMARK    2  A    between atoms: C_2  and  C_3
REMARK    3  A    between atoms: C_2  and  C_9
REMARK    4  A    between atoms: C_2  and  C_16
REMARK    5  A    between atoms: C_19  and  C_20
REMARK    6  A    between atoms: C_20  and  N_21
REMARK                            x       y       z     vdW  Elec       q    Type
REMARK                         _______ _______ _______ _____ _____    ______ ____
ROOT
ATOM      1  C   UNL     1       2.480   5.255  18.297  0.00  0.00    +0.000 C 
ENDROOT
BRANCH   1   2
ATOM      2  C   UNL     1       3.780   5.183  17.451  0.00  0.00    +0.000 A 
ATOM      3  C   UNL     1       4.061   4.072  16.626  0.00  0.00    +0.000 A 
ATOM      4  C   UNL     1       5.196   4.034  15.810  0.00  0.00    +0.000 A 
ATOM      5  C   UNL     1       6.076   5.109  15.805  0.00  0.00    +0.000 A 
ATOM      6 CL   UNL     1       7.476   5.060  14.806  0.00  0.00    +0.000 Cl
ATOM      7  C   UNL     1       5.819   6.227  16.593  0.00  0.00    +0.000 A 
ATOM      8  C   UNL     1       4.678   6.268  17.405  0.00  0.00    +0.000 A 
ENDBRANCH   1   2
BRANCH   1   9
ATOM      9  C   UNL     1       2.378   4.248  19.469  0.00  0.00    +0.000 A 
ATOM     10  C   UNL     1       3.480   3.624  20.073  0.00  0.00    +0.000 A 
ATOM     11  C   UNL     1       3.308   2.731  21.140  0.00  0.00    +0.000 A 
ATOM     12  C   UNL     1       2.033   2.439  21.622  0.00  0.00    +0.000 A 
ATOM     13  C   UNL     1       0.922   3.019  21.024  0.00  0.00    +0.000 A 
ATOM     14  C   UNL     1       1.093   3.898  19.952  0.00  0.00    +0.000 A 
ENDBRANCH   1   9
BRANCH   1  15
ATOM     15  C   UNL     1       2.174   6.729  18.665  0.00  0.00    +0.000 A 
ATOM     16  C   UNL     1       2.009   7.202  19.980  0.00  0.00    +0.000 A 
ATOM     17  C   UNL     1       1.662   8.543  20.237  0.00  0.00    +0.000 A 
ATOM     18  C   UNL     1       1.508   9.452  19.185  0.00  0.00    +0.000 A 
ATOM     19  C   UNL     1       1.715   9.001  17.878  0.00  0.00    +0.000 A 
ATOM     20  C   UNL     1       2.033   7.666  17.625  0.00  0.00    +0.000 A 
BRANCH  18  21
ATOM     21  C   UNL     1       1.065  10.882  19.422  0.00  0.00    +0.000 C 
BRANCH  21  22
ATOM     22  N   UNL     1      -0.370  11.163  19.490  0.00  0.00    +0.000 NA
ATOM     23  C   UNL     1      -1.267  10.055  19.172  0.00  0.00    +0.000 C 
ATOM     24  C   UNL     1      -1.764  10.325  17.765  0.00  0.00    +0.000 C 
ATOM     25  C   UNL     1      -1.773  11.838  17.660  0.00  0.00    +0.000 C 
ATOM     26  C   UNL     1      -0.810  12.330  18.732  0.00  0.00    +0.000 C 
ENDBRANCH  21  22
ENDBRANCH  18  21
ENDBRANCH   1  15
BRANCH   1  27
ATOM     27  O   UNL     1       1.399   4.874  17.410  0.00  0.00    +0.000 OA
ATOM     28  H   UNL     1       0.977   4.099  17.816  0.00  0.00    +0.000 HD
ENDBRANCH   1  27
TORSDOF 6
ENDMDL
MODEL 4
REMARK VINA RESULT:      -8.0      6.157      9.650
REMARK  Name = 
REMARK  6 active torsions:
REMARK  status: ('A' for Active; 'I' for Inactive)
REMARK    1  A    between atoms: O_1  and  C_2
REMARK    2  A    between atoms: C_2  and  C_3
REMARK    3  A    between atoms: C_2  and  C_9
REMARK    4  A    between atoms: C_2  and  C_16
REMARK    5  A    between atoms: C_19  and  C_20
REMARK    6  A    between atoms: C_20  and  N_21
REMARK                            x       y       z     vdW  Elec       q    Type
REMARK                         _______ _______ _______ _____ _____    ______ ____
ROOT
ATOM      1  C   UNL     1       0.371  10.583  19.544  0.00  0.00    +0.000 C 
ENDROOT
BRANCH   1   2
ATOM      2  C   UNL     1       1.278  11.842  19.494  0.00  0.00    +0.000 A 
ATOM      3  C   UNL     1       1.775  12.343  18.271  0.00  0.00    +0.000 A 
ATOM      4  C   UNL     1       2.535  13.516  18.215  0.00  0.00    +0.000 A 
ATOM      5  C   UNL     1       2.814  14.212  19.385  0.00  0.00    +0.000 A 
ATOM      6 CL   UNL     1       3.754  15.651  19.317  0.00  0.00    +0.000 Cl
ATOM      7  C   UNL     1       2.324  13.754  20.605  0.00  0.00    +0.000 A 
ATOM      8  C   UNL     1       1.557  12.583  20.660  0.00  0.00    +0.000 A 
ENDBRANCH   1   2
BRANCH   1   9
ATOM      9  C   UNL     1      -0.934  10.656  18.713  0.00  0.00    +0.000 A 
ATOM     10  C   UNL     1      -1.188   9.883  17.570  0.00  0.00    +0.000 A 
ATOM     11  C   UNL     1      -2.401   9.998  16.877  0.00  0.00    +0.000 A 
ATOM     12  C   UNL     1      -3.383  10.887  17.308  0.00  0.00    +0.000 A 
ATOM     13  C   UNL     1      -3.148  11.686  18.420  0.00  0.00    +0.000 A 
ATOM     14  C   UNL     1      -1.934  11.582  19.101  0.00  0.00    +0.000 A 
ENDBRANCH   1   9
BRANCH   1  15
ATOM     15  C   UNL     1       1.225   9.310  19.320  0.00  0.00    +0.000 A 
ATOM     16  C   UNL     1       1.904   9.008  18.125  0.00  0.00    +0.000 A 
ATOM     17  C   UNL     1       2.607   7.798  17.967  0.00  0.00    +0.000 A 
ATOM     18  C   UNL     1       2.677   6.874  19.017  0.00  0.00    +0.000 A 
ATOM     19  C   UNL     1       2.043   7.186  20.223  0.00  0.00    +0.000 A 
ATOM     20  C   UNL     1       1.327   8.375  20.367  0.00  0.00    +0.000 A 
BRANCH  18  21
ATOM     21  C   UNL     1       3.361   5.532  18.856  0.00  0.00    +0.000 C 
BRANCH  21  22
ATOM     22  N   UNL     1       2.917   4.649  17.776  0.00  0.00    +0.000 NA
ATOM     23  C   UNL     1       1.523   4.217  17.819  0.00  0.00    +0.000 C 
ATOM     24  C   UNL     1       1.555   2.789  18.331  0.00  0.00    +0.000 C 
ATOM     25  C   UNL     1       2.880   2.248  17.830  0.00  0.00    +0.000 C 
ATOM     26  C   UNL     1       3.748   3.469  17.558  0.00  0.00    +0.000 C 
ENDBRANCH  21  22
ENDBRANCH  18  21
ENDBRANCH   1  15
BRANCH   1  27
ATOM     27  O   UNL     1      -0.090  10.470  20.914  0.00  0.00    +0.000 OA
ATOM     28  H   UNL     1      -0.123   9.519  21.110  0.00  0.00    +0.000 HD
ENDBRANCH   1  27
TORSDOF 6
ENDMDL
MODEL 5
REMARK VINA RESULT:      -8.0      6.161      9.632
REMARK  Name = 
REMARK  6 active torsions:
REMARK  status: ('A' for Active; 'I' for Inactive)
REMARK    1  A    between atoms: O_1  and  C_2
REMARK    2  A    between atoms: C_2  and  C_3
REMARK    3  A    between atoms: C_2  and  C_9
REMARK    4  A    between atoms: C_2  and  C_16
REMARK    5  A    between atoms: C_19  and  C_20
REMARK    6  A    between atoms: C_20  and  N_21
REMARK                            x       y       z     vdW  Elec       q    Type
REMARK                         _______ _______ _______ _____ _____    ______ ____
ROOT
ATOM      1  C   UNL     1       0.319  10.661  19.510  0.00  0.00    +0.000 C 
ENDROOT
BRANCH   1   2
ATOM      2  C   UNL     1       1.203  11.938  19.503  0.00  0.00    +0.000 A 
ATOM      3  C   UNL     1       1.556  12.597  20.701  0.00  0.00    +0.000 A 
ATOM      4  C   UNL     1       2.408  13.705  20.703  0.00  0.00    +0.000 A 
ATOM      5  C   UNL     1       2.925  14.179  19.504  0.00  0.00    +0.000 A 
ATOM      6 CL   UNL     1       3.968  15.547  19.506  0.00  0.00    +0.000 Cl
ATOM      7  C   UNL     1       2.611  13.542  18.307  0.00  0.00    +0.000 A 
ATOM      8  C   UNL     1       1.763  12.427  18.305  0.00  0.00    +0.000 A 
ENDBRANCH   1   2
BRANCH   1   9
ATOM      9  C   UNL     1      -0.990  10.740  18.687  0.00  0.00    +0.000 A 
ATOM     10  C   UNL     1      -2.070  11.581  18.996  0.00  0.00    +0.000 A 
ATOM     11  C   UNL     1      -3.219  11.605  18.193  0.00  0.00    +0.000 A 
ATOM     12  C   UNL     1      -3.315  10.788  17.069  0.00  0.00    +0.000 A 
ATOM     13  C   UNL     1      -2.274   9.923  16.755  0.00  0.00    +0.000 A 
ATOM     14  C   UNL     1      -1.136   9.890  17.562  0.00  0.00    +0.000 A 
ENDBRANCH   1   9
BRANCH   1  15
ATOM     15  C   UNL     1       1.196   9.413  19.238  0.00  0.00    +0.000 A 
ATOM     16  C   UNL     1       1.857   9.156  18.023  0.00  0.00    +0.000 A 
ATOM     17  C   UNL     1       2.582   7.965  17.822  0.00  0.00    +0.000 A 
ATOM     18  C   UNL     1       2.693   7.018  18.846  0.00  0.00    +0.000 A 
ATOM     19  C   UNL     1       2.076   7.286  20.072  0.00  0.00    +0.000 A 
ATOM     20  C   UNL     1       1.338   8.456  20.259  0.00  0.00    +0.000 A 
BRANCH  18  21
ATOM     21  C   UNL     1       3.402   5.695  18.639  0.00  0.00    +0.000 C 
BRANCH  21  22
ATOM     22  N   UNL     1       2.877   4.775  17.629  0.00  0.00    +0.000 NA
ATOM     23  C   UNL     1       1.487   4.356  17.788  0.00  0.00    +0.000 C 
ATOM     24  C   UNL     1       1.547   2.950  18.352  0.00  0.00    +0.000 C 
ATOM     25  C   UNL     1       2.830   2.378  17.781  0.00  0.00    +0.000 C 
ATOM     26  C   UNL     1       3.683   3.579  17.400  0.00  0.00    +0.000 C 
ENDBRANCH  21  22
ENDBRANCH  18  21
ENDBRANCH   1  15
BRANCH   1  27
ATOM     27  O   UNL     1      -0.134  10.491  20.876  0.00  0.00    +0.000 OA
ATOM     28  H   UNL     1      -0.218  11.386  21.246  0.00  0.00    +0.000 HD
ENDBRANCH   1  27
TORSDOF 6
ENDMDL
MODEL 6
REMARK VINA RESULT:      -7.9      4.545      7.420
REMARK  Name = 
REMARK  6 active torsions:
REMARK  status: ('A' for Active; 'I' for Inactive)
REMARK    1  A    between atoms: O_1  and  C_2
REMARK    2  A    between atoms: C_2  and  C_3
REMARK    3  A    between atoms: C_2  and  C_9
REMARK    4  A    between atoms: C_2  and  C_16
REMARK    5  A    between atoms: C_19  and  C_20
REMARK    6  A    between atoms: C_20  and  N_21
REMARK                            x       y       z     vdW  Elec       q    Type
REMARK                         _______ _______ _______ _____ _____    ______ ____
ROOT
ATOM      1  C   UNL     1       2.509   5.194  18.330  0.00  0.00    +0.000 C 
ENDROOT
BRANCH   1   2
ATOM      2  C   UNL     1       3.809   5.140  17.481  0.00  0.00    +0.000 A 
ATOM      3  C   UNL     1       4.046   4.094  16.563  0.00  0.00    +0.000 A 
ATOM      4  C   UNL     1       5.182   4.079  15.748  0.00  0.00    +0.000 A 
ATOM      5  C   UNL     1       6.107   5.112  15.836  0.00  0.00    +0.000 A 
ATOM      6 CL   UNL     1       7.508   5.091  14.838  0.00  0.00    +0.000 Cl
ATOM      7  C   UNL     1       5.894   6.168  16.719  0.00  0.00    +0.000 A 
ATOM      8  C   UNL     1       4.752   6.186  17.530  0.00  0.00    +0.000 A 
ENDBRANCH   1   2
BRANCH   1   9
ATOM      9  C   UNL     1       2.421   4.181  19.497  0.00  0.00    +0.000 A 
ATOM     10  C   UNL     1       3.520   3.488  20.028  0.00  0.00    +0.000 A 
ATOM     11  C   UNL     1       3.361   2.594  21.096  0.00  0.00    +0.000 A 
ATOM     12  C   UNL     1       2.104   2.371  21.653  0.00  0.00    +0.000 A 
ATOM     13  C   UNL     1       0.994   3.021  21.130  0.00  0.00    +0.000 A 
ATOM     14  C   UNL     1       1.150   3.900  20.057  0.00  0.00    +0.000 A 
ENDBRANCH   1   9
BRANCH   1  15
ATOM     15  C   UNL     1       2.187   6.663  18.704  0.00  0.00    +0.000 A 
ATOM     16  C   UNL     1       2.003   7.126  20.020  0.00  0.00    +0.000 A 
ATOM     17  C   UNL     1       1.643   8.462  20.283  0.00  0.00    +0.000 A 
ATOM     18  C   UNL     1       1.493   9.377  19.235  0.00  0.00    +0.000 A 
ATOM     19  C   UNL     1       1.718   8.937  17.927  0.00  0.00    +0.000 A 
ATOM     20  C   UNL     1       2.050   7.606  17.669  0.00  0.00    +0.000 A 
BRANCH  18  21
ATOM     21  C   UNL     1       1.035  10.801  19.476  0.00  0.00    +0.000 C 
BRANCH  21  22
ATOM     22  N   UNL     1      -0.064  11.326  18.665  0.00  0.00    +0.000 NA
ATOM     23  C   UNL     1      -0.183  12.779  18.589  0.00  0.00    +0.000 C 
ATOM     24  C   UNL     1      -1.325  13.143  19.518  0.00  0.00    +0.000 C 
ATOM     25  C   UNL     1      -2.247  11.941  19.459  0.00  0.00    +0.000 C 
ATOM     26  C   UNL     1      -1.382  10.783  18.980  0.00  0.00    +0.000 C 
ENDBRANCH  21  22
ENDBRANCH  18  21
ENDBRANCH   1  15
BRANCH   1  27
ATOM     27  O   UNL     1       1.431   4.805  17.443  0.00  0.00    +0.000 OA
ATOM     28  H   UNL     1       0.794   4.317  17.991  0.00  0.00    +0.000 HD
ENDBRANCH   1  27
TORSDOF 6
ENDMDL
MODEL 7
REMARK VINA RESULT:      -7.9      0.250      1.619
REMARK  Name = 
REMARK  6 active torsions:
REMARK  status: ('A' for Active; 'I' for Inactive)
REMARK    1  A    between atoms: O_1  and  C_2
REMARK    2  A    between atoms: C_2  and  C_3
REMARK    3  A    between atoms: C_2  and  C_9
REMARK    4  A    between atoms: C_2  and  C_16
REMARK    5  A    between atoms: C_19  and  C_20
REMARK    6  A    between atoms: C_20  and  N_21
REMARK                            x       y       z     vdW  Elec       q    Type
REMARK                         _______ _______ _______ _____ _____    ______ ____
ROOT
ATOM      1  C   UNL     1       6.508   5.059  17.414  0.00  0.00    +0.000 C 
ENDROOT
BRANCH   1   2
ATOM      2  C   UNL     1       5.148   4.969  18.159  0.00  0.00    +0.000 A 
ATOM      3  C   UNL     1       4.836   3.872  18.992  0.00  0.00    +0.000 A 
ATOM      4  C   UNL     1       3.643   3.821  19.718  0.00  0.00    +0.000 A 
ATOM      5  C   UNL     1       2.735   4.869  19.626  0.00  0.00    +0.000 A 
ATOM      6 CL   UNL     1       1.264   4.803  20.515  0.00  0.00    +0.000 Cl
ATOM      7  C   UNL     1       3.020   5.973  18.828  0.00  0.00    +0.000 A 
ATOM      8  C   UNL     1       4.219   6.027  18.106  0.00  0.00    +0.000 A 
ENDBRANCH   1   2
BRANCH   1   9
ATOM      9  C   UNL     1       6.466   4.769  15.893  0.00  0.00    +0.000 A 
ATOM     10  C   UNL     1       7.490   5.106  14.995  0.00  0.00    +0.000 A 
ATOM     11  C   UNL     1       7.384   4.799  13.632  0.00  0.00    +0.000 A 
ATOM     12  C   UNL     1       6.253   4.153  13.136  0.00  0.00    +0.000 A 
ATOM     13  C   UNL     1       5.210   3.834  13.997  0.00  0.00    +0.000 A 
ATOM     14  C   UNL     1       5.310   4.153  15.352  0.00  0.00    +0.000 A 
ENDBRANCH   1   9
BRANCH   1  15
ATOM     15  C   UNL     1       7.243   6.362  17.817  0.00  0.00    +0.000 A 
ATOM     16  C   UNL     1       8.115   6.475  18.916  0.00  0.00    +0.000 A 
ATOM     17  C   UNL     1       8.696   7.709  19.266  0.00  0.00    +0.000 A 
ATOM     18  C   UNL     1       8.446   8.855  18.503  0.00  0.00    +0.000 A 
ATOM     19  C   UNL     1       7.616   8.742  17.383  0.00  0.00    +0.000 A 
ATOM     20  C   UNL     1       7.022   7.523  17.054  0.00  0.00    +0.000 A 
BRANCH  18  21
ATOM     21  C   UNL     1       8.994  10.212  18.893  0.00  0.00    +0.000 C 
BRANCH  21  22
ATOM     22  N   UNL     1       9.395  11.134  17.829  0.00  0.00    +0.000 NA
ATOM     23  C   UNL     1      10.808  11.502  17.784  0.00  0.00    +0.000 C 
ATOM     24  C   UNL     1      10.883  12.899  18.371  0.00  0.00    +0.000 C 
ATOM     25  C   UNL     1       9.551  13.525  18.005  0.00  0.00    +0.000 C 
ATOM     26  C   UNL     1       8.608  12.360  17.739  0.00  0.00    +0.000 C 
ENDBRANCH  21  22
ENDBRANCH  18  21
ENDBRANCH   1  15
BRANCH   1  27
ATOM     27  O   UNL     1       7.335   3.998  17.952  0.00  0.00    +0.000 OA
ATOM     28  H   UNL     1       7.483   4.219  18.887  0.00  0.00    +0.000 HD
ENDBRANCH   1  27
TORSDOF 6
ENDMDL
MODEL 8
REMARK VINA RESULT:      -7.8      4.572      7.432
REMARK  Name = 
REMARK  6 active torsions:
REMARK  status: ('A' for Active; 'I' for Inactive)
REMARK    1  A    between atoms: O_1  and  C_2
REMARK    2  A    between atoms: C_2  and  C_3
REMARK    3  A    between atoms: C_2  and  C_9
REMARK    4  A    between atoms: C_2  and  C_16
REMARK    5  A    between atoms: C_19  and  C_20
REMARK    6  A    between atoms: C_20  and  N_21
REMARK                            x       y       z     vdW  Elec       q    Type
REMARK                         _______ _______ _______ _____ _____    ______ ____
ROOT
ATOM      1  C   UNL     1       2.460   5.196  18.351  0.00  0.00    +0.000 C 
ENDROOT
BRANCH   1   2
ATOM      2  C   UNL     1       3.766   5.129  17.513  0.00  0.00    +0.000 A 
ATOM      3  C   UNL     1       4.004   4.074  16.605  0.00  0.00    +0.000 A 
ATOM      4  C   UNL     1       5.146   4.047  15.799  0.00  0.00    +0.000 A 
ATOM      5  C   UNL     1       6.075   5.076  15.885  0.00  0.00    +0.000 A 
ATOM      6 CL   UNL     1       7.483   5.040  14.897  0.00  0.00    +0.000 Cl
ATOM      7  C   UNL     1       5.861   6.140  16.757  0.00  0.00    +0.000 A 
ATOM      8  C   UNL     1       4.713   6.171  17.559  0.00  0.00    +0.000 A 
ENDBRANCH   1   2
BRANCH   1   9
ATOM      9  C   UNL     1       2.352   4.184  19.518  0.00  0.00    +0.000 A 
ATOM     10  C   UNL     1       1.160   3.876  20.191  0.00  0.00    +0.000 A 
ATOM     11  C   UNL     1       1.141   2.938  21.232  0.00  0.00    +0.000 A 
ATOM     12  C   UNL     1       2.311   2.289  21.624  0.00  0.00    +0.000 A 
ATOM     13  C   UNL     1       3.511   2.595  20.995  0.00  0.00    +0.000 A 
ATOM     14  C   UNL     1       3.532   3.540  19.968  0.00  0.00    +0.000 A 
ENDBRANCH   1   9
BRANCH   1  15
ATOM     15  C   UNL     1       2.150   6.668  18.724  0.00  0.00    +0.000 A 
ATOM     16  C   UNL     1       1.991   7.138  20.041  0.00  0.00    +0.000 A 
ATOM     17  C   UNL     1       1.641   8.477  20.303  0.00  0.00    +0.000 A 
ATOM     18  C   UNL     1       1.476   9.388  19.253  0.00  0.00    +0.000 A 
ATOM     19  C   UNL     1       1.676   8.940  17.944  0.00  0.00    +0.000 A 
ATOM     20  C   UNL     1       1.998   7.606  17.687  0.00  0.00    +0.000 A 
BRANCH  18  21
ATOM     21  C   UNL     1       1.028  10.814  19.495  0.00  0.00    +0.000 C 
BRANCH  21  22
ATOM     22  N   UNL     1      -0.339  11.045  19.965  0.00  0.00    +0.000 NA
ATOM     23  C   UNL     1      -1.414  10.685  19.044  0.00  0.00    +0.000 C 
ATOM     24  C   UNL     1      -1.902  11.995  18.456  0.00  0.00    +0.000 C 
ATOM     25  C   UNL     1      -1.667  13.006  19.562  0.00  0.00    +0.000 C 
ATOM     26  C   UNL     1      -0.606  12.391  20.464  0.00  0.00    +0.000 C 
ENDBRANCH  21  22
ENDBRANCH  18  21
ENDBRANCH   1  15
BRANCH   1  27
ATOM     27  O   UNL     1       1.385   4.818  17.456  0.00  0.00    +0.000 OA
ATOM     28  H   UNL     1       0.908   5.638  17.246  0.00  0.00    +0.000 HD
ENDBRANCH   1  27
TORSDOF 6
ENDMDL
MODEL 9
REMARK VINA RESULT:      -7.8      4.444      6.949
REMARK  Name = 
REMARK  6 active torsions:
REMARK  status: ('A' for Active; 'I' for Inactive)
REMARK    1  A    between atoms: O_1  and  C_2
REMARK    2  A    between atoms: C_2  and  C_3
REMARK    3  A    between atoms: C_2  and  C_9
REMARK    4  A    between atoms: C_2  and  C_16
REMARK    5  A    between atoms: C_19  and  C_20
REMARK    6  A    between atoms: C_20  and  N_21
REMARK                            x       y       z     vdW  Elec       q    Type
REMARK                         _______ _______ _______ _____ _____    ______ ____
ROOT
ATOM      1  C   UNL     1       2.455   5.229  18.371  0.00  0.00    +0.000 C 
ENDROOT
BRANCH   1   2
ATOM      2  C   UNL     1       3.742   5.209  17.501  0.00  0.00    +0.000 A 
ATOM      3  C   UNL     1       4.034   4.126  16.644  0.00  0.00    +0.000 A 
ATOM      4  C   UNL     1       5.154   4.136  15.808  0.00  0.00    +0.000 A 
ATOM      5  C   UNL     1       6.008   5.233  15.814  0.00  0.00    +0.000 A 
ATOM      6 CL   UNL     1       7.390   5.243  14.790  0.00  0.00    +0.000 Cl
ATOM      7  C   UNL     1       5.739   6.325  16.634  0.00  0.00    +0.000 A 
ATOM      8  C   UNL     1       4.612   6.317  17.466  0.00  0.00    +0.000 A 
ENDBRANCH   1   2
BRANCH   1   9
ATOM      9  C   UNL     1       2.397   4.187  19.516  0.00  0.00    +0.000 A 
ATOM     10  C   UNL     1       3.511   3.490  20.008  0.00  0.00    +0.000 A 
ATOM     11  C   UNL     1       3.379   2.569  21.057  0.00  0.00    +0.000 A 
ATOM     12  C   UNL     1       2.134   2.323  21.633  0.00  0.00    +0.000 A 
ATOM     13  C   UNL     1       1.009   2.976  21.146  0.00  0.00    +0.000 A 
ATOM     14  C   UNL     1       1.138   3.883  20.092  0.00  0.00    +0.000 A 
ENDBRANCH   1   9
BRANCH   1  15
ATOM     15  C   UNL     1       2.124   6.684  18.786  0.00  0.00    +0.000 A 
ATOM     16  C   UNL     1       2.030   7.129  20.118  0.00  0.00    +0.000 A 
ATOM     17  C   UNL     1       1.655   8.453  20.422  0.00  0.00    +0.000 A 
ATOM     18  C   UNL     1       1.400   9.374  19.400  0.00  0.00    +0.000 A 
ATOM     19  C   UNL     1       1.535   8.952  18.074  0.00  0.00    +0.000 A 
ATOM     20  C   UNL     1       1.882   7.633  17.776  0.00  0.00    +0.000 A 
BRANCH  18  21
ATOM     21  C   UNL     1       0.925  10.782  19.692  0.00  0.00    +0.000 C 
BRANCH  21  22
ATOM     22  N   UNL     1       0.914  11.754  18.597  0.00  0.00    +0.000 NA
ATOM     23  C   UNL     1       2.019  12.708  18.562  0.00  0.00    +0.000 C 
ATOM     24  C   UNL     1       1.450  14.010  19.092  0.00  0.00    +0.000 C 
ATOM     25  C   UNL     1      -0.008  13.971  18.677  0.00  0.00    +0.000 C 
ATOM     26  C   UNL     1      -0.331  12.502  18.443  0.00  0.00    +0.000 C 
ENDBRANCH  21  22
ENDBRANCH  18  21
ENDBRANCH   1  15
BRANCH   1  27
ATOM     27  O   UNL     1       1.367   4.849  17.493  0.00  0.00    +0.000 OA
ATOM     28  H   UNL     1       0.554   5.175  17.914  0.00  0.00    +0.000 HD
ENDBRANCH   1  27
TORSDOF 6
ENDMDL
