MODEL 1
REMARK VINA RESULT:      -7.7      0.000      0.000
REMARK  Name = 
REMARK  4 active torsions:
REMARK  status: ('A' for Active; 'I' for Inactive)
REMARK    1  A    between atoms: C_1  and  C_2
REMARK    2  A    between atoms: C_7  and  C_8
REMARK    3  A    between atoms: C_9  and  C_10
REMARK    4  A    between atoms: N_12  and  C_13
REMARK                            x       y       z     vdW  Elec       q    Type
REMARK                         _______ _______ _______ _____ _____    ______ ____
ROOT
ATOM      1  C   UNL     1       7.652   5.167  13.340  0.00  0.00    +0.000 C 
ATOM      2  C   UNL     1       6.769   4.757  14.486  0.00  0.00    +0.000 A 
ATOM      3  C   UNL     1       7.180   5.023  15.801  0.00  0.00    +0.000 A 
ATOM      4  C   UNL     1       6.366   4.710  16.903  0.00  0.00    +0.000 A 
ATOM      5  C   UNL     1       5.130   4.076  16.700  0.00  0.00    +0.000 A 
ATOM      6  C   UNL     1       4.730   3.798  15.376  0.00  0.00    +0.000 A 
ATOM      7  C   UNL     1       5.524   4.141  14.271  0.00  0.00    +0.000 A 
ATOM      8  C   UNL     1       5.010   3.875  12.883  0.00  0.00    +0.000 C 
ATOM      9  C   UNL     1       4.131   3.792  17.806  0.00  0.00    +0.000 C 
ATOM     10  S   UNL     1       4.893   3.614  19.447  0.00  0.00    +0.000 S 
ATOM     11  C   UNL     1       5.883   5.130  19.408  0.00  0.00    +0.000 C 
ATOM     12  C   UNL     1       6.854   5.118  18.253  0.00  0.00    +0.000 C 
ATOM     13  O   UNL     1       8.011   5.511  18.393  0.00  0.00    +0.000 OA
ENDROOT
BRANCH   9  14
ATOM     14  C   UNL     1       3.070   4.902  17.872  0.00  0.00    +0.000 C 
ATOM     15  O   UNL     1       1.927   4.704  17.456  0.00  0.00    +0.000 OA
ATOM     16  N   UNL     1       3.519   6.111  18.394  0.00  0.00    +0.000 N 
ATOM     17  H   UNL     1       4.523   6.259  18.418  0.00  0.00    +0.000 HD
BRANCH  16  18
ATOM     18  C   UNL     1       2.694   7.238  18.601  0.00  0.00    +0.000 A 
ATOM     19  C   UNL     1       2.467   8.209  17.624  0.00  0.00    +0.000 A 
ATOM     20  C   UNL     1       1.729   9.350  17.927  0.00  0.00    +0.000 A 
ATOM     21  C   UNL     1       1.204   9.471  19.199  0.00  0.00    +0.000 A 
ATOM     22  N   UNL     1       1.334   8.524  20.155  0.00  0.00    +0.000 NA
ATOM     23  C   UNL     1       2.068   7.431  19.831  0.00  0.00    +0.000 A 
ENDBRANCH  16  18
ENDBRANCH   9  14
TORSDOF 2
ENDMDL
MODEL 2
REMARK VINA RESULT:      -7.5      3.351      6.502
REMARK  Name = 
REMARK  4 active torsions:
REMARK  status: ('A' for Active; 'I' for Inactive)
REMARK    1  A    between atoms: C_1  and  C_2
REMARK    2  A    between atoms: C_7  and  C_8
REMARK    3  A    between atoms: C_9  and  C_10
REMARK    4  A    between atoms: N_12  and  C_13
REMARK                            x       y       z     vdW  Elec       q    Type
REMARK                         _______ _______ _______ _____ _____    ______ ____
ROOT
ATOM      1  C   UNL     1       2.619   2.896  20.989  0.00  0.00    +0.000 C 
ATOM      2  C   UNL     1       3.192   3.646  19.818  0.00  0.00    +0.000 A 
ATOM      3  C   UNL     1       4.489   4.173  19.906  0.00  0.00    +0.000 A 
ATOM      4  C   UNL     1       5.089   4.835  18.819  0.00  0.00    +0.000 A 
ATOM      5  C   UNL     1       4.368   5.016  17.629  0.00  0.00    +0.000 A 
ATOM      6  C   UNL     1       3.058   4.497  17.553  0.00  0.00    +0.000 A 
ATOM      7  C   UNL     1       2.470   3.805  18.623  0.00  0.00    +0.000 A 
ATOM      8  C   UNL     1       1.094   3.221  18.454  0.00  0.00    +0.000 C 
ATOM      9  C   UNL     1       4.955   5.618  16.366  0.00  0.00    +0.000 C 
ATOM     10  S   UNL     1       6.341   6.753  16.677  0.00  0.00    +0.000 S 
ATOM     11  C   UNL     1       7.297   5.660  17.758  0.00  0.00    +0.000 C 
ATOM     12  C   UNL     1       6.505   5.276  18.984  0.00  0.00    +0.000 C 
ATOM     13  O   UNL     1       7.030   5.248  20.096  0.00  0.00    +0.000 OA
ENDROOT
BRANCH   9  14
ATOM     14  C   UNL     1       5.428   4.510  15.411  0.00  0.00    +0.000 C 
ATOM     15  O   UNL     1       5.837   3.434  15.851  0.00  0.00    +0.000 OA
ATOM     16  N   UNL     1       5.382   4.842  14.061  0.00  0.00    +0.000 N 
ATOM     17  H   UNL     1       5.325   5.829  13.830  0.00  0.00    +0.000 HD
BRANCH  16  18
ATOM     18  C   UNL     1       5.710   3.951  13.016  0.00  0.00    +0.000 A 
ATOM     19  C   UNL     1       4.760   3.189  12.333  0.00  0.00    +0.000 A 
ATOM     20  C   UNL     1       5.162   2.251  11.386  0.00  0.00    +0.000 A 
ATOM     21  C   UNL     1       6.512   2.127  11.120  0.00  0.00    +0.000 A 
ATOM     22  N   UNL     1       7.462   2.892  11.700  0.00  0.00    +0.000 NA
ATOM     23  C   UNL     1       7.039   3.788  12.627  0.00  0.00    +0.000 A 
ENDBRANCH  16  18
ENDBRANCH   9  14
TORSDOF 2
ENDMDL
MODEL 3
REMARK VINA RESULT:      -7.5      0.642      1.035
REMARK  Name = 
REMARK  4 active torsions:
REMARK  status: ('A' for Active; 'I' for Inactive)
REMARK    1  A    between atoms: C_1  and  C_2
REMARK    2  A    between atoms: C_7  and  C_8
REMARK    3  A    between atoms: C_9  and  C_10
REMARK    4  A    between atoms: N_12  and  C_13
REMARK                            x       y       z     vdW  Elec       q    Type
REMARK                         _______ _______ _______ _____ _____    ______ ____
ROOT
ATOM      1  C   UNL     1       7.716   5.125  13.429  0.00  0.00    +0.000 C 
ATOM      2  C   UNL     1       6.792   4.727  14.547  0.00  0.00    +0.000 A 
ATOM      3  C   UNL     1       7.187   4.945  15.876  0.00  0.00    +0.000 A 
ATOM      4  C   UNL     1       6.337   4.641  16.954  0.00  0.00    +0.000 A 
ATOM      5  C   UNL     1       5.081   4.064  16.711  0.00  0.00    +0.000 A 
ATOM      6  C   UNL     1       4.697   3.833  15.373  0.00  0.00    +0.000 A 
ATOM      7  C   UNL     1       5.528   4.168  14.293  0.00  0.00    +0.000 A 
ATOM      8  C   UNL     1       5.033   3.956  12.889  0.00  0.00    +0.000 C 
ATOM      9  C   UNL     1       4.048   3.796  17.790  0.00  0.00    +0.000 C 
ATOM     10  S   UNL     1       4.768   3.549  19.441  0.00  0.00    +0.000 S 
ATOM     11  C   UNL     1       5.819   5.023  19.458  0.00  0.00    +0.000 C 
ATOM     12  C   UNL     1       6.813   4.997  18.322  0.00  0.00    +0.000 C 
ATOM     13  O   UNL     1       7.982   5.338  18.495  0.00  0.00    +0.000 OA
ENDROOT
BRANCH   9  14
ATOM     14  C   UNL     1       3.032   4.948  17.861  0.00  0.00    +0.000 C 
ATOM     15  O   UNL     1       1.868   4.782  17.491  0.00  0.00    +0.000 OA
ATOM     16  N   UNL     1       3.545   6.153  18.331  0.00  0.00    +0.000 N 
ATOM     17  H   UNL     1       4.554   6.262  18.316  0.00  0.00    +0.000 HD
BRANCH  16  18
ATOM     18  C   UNL     1       2.771   7.316  18.534  0.00  0.00    +0.000 A 
ATOM     19  C   UNL     1       2.106   7.593  19.730  0.00  0.00    +0.000 A 
ATOM     20  C   UNL     1       1.273   8.704  19.828  0.00  0.00    +0.000 A 
ATOM     21  C   UNL     1       1.157   9.534  18.730  0.00  0.00    +0.000 A 
ATOM     22  N   UNL     1       1.837   9.348  17.578  0.00  0.00    +0.000 NA
ATOM     23  C   UNL     1       2.630   8.250  17.510  0.00  0.00    +0.000 A 
ENDBRANCH  16  18
ENDBRANCH   9  14
TORSDOF 2
ENDMDL
MODEL 4
REMARK VINA RESULT:      -7.2      2.943      3.841
REMARK  Name = 
REMARK  4 active torsions:
REMARK  status: ('A' for Active; 'I' for Inactive)
REMARK    1  A    between atoms: C_1  and  C_2
REMARK    2  A    between atoms: C_7  and  C_8
REMARK    3  A    between atoms: C_9  and  C_10
REMARK    4  A    between atoms: N_12  and  C_13
REMARK                            x       y       z     vdW  Elec       q    Type
REMARK                         _______ _______ _______ _____ _____    ______ ____
ROOT
ATOM      1  C   UNL     1       8.335   5.439  19.307  0.00  0.00    +0.000 C 
ATOM      2  C   UNL     1       6.919   5.599  18.823  0.00  0.00    +0.000 A 
ATOM      3  C   UNL     1       5.920   4.756  19.333  0.00  0.00    +0.000 A 
ATOM      4  C   UNL     1       4.573   4.902  18.955  0.00  0.00    +0.000 A 
ATOM      5  C   UNL     1       4.215   5.878  18.012  0.00  0.00    +0.000 A 
ATOM      6  C   UNL     1       5.228   6.711  17.492  0.00  0.00    +0.000 A 
ATOM      7  C   UNL     1       6.567   6.593  17.895  0.00  0.00    +0.000 A 
ATOM      8  C   UNL     1       7.588   7.554  17.350  0.00  0.00    +0.000 C 
ATOM      9  C   UNL     1       2.783   6.189  17.616  0.00  0.00    +0.000 C 
ATOM     10  S   UNL     1       1.650   4.783  17.825  0.00  0.00    +0.000 S 
ATOM     11  C   UNL     1       2.109   4.365  19.525  0.00  0.00    +0.000 C 
ATOM     12  C   UNL     1       3.575   4.018  19.624  0.00  0.00    +0.000 C 
ATOM     13  O   UNL     1       3.957   3.069  20.308  0.00  0.00    +0.000 OA
ENDROOT
BRANCH   9  14
ATOM     14  C   UNL     1       2.247   7.381  18.425  0.00  0.00    +0.000 C 
ATOM     15  O   UNL     1       2.209   7.338  19.656  0.00  0.00    +0.000 OA
ATOM     16  N   UNL     1       1.797   8.452  17.660  0.00  0.00    +0.000 N 
ATOM     17  H   UNL     1       1.591   8.267  16.683  0.00  0.00    +0.000 HD
BRANCH  16  18
ATOM     18  C   UNL     1       1.326   9.667  18.202  0.00  0.00    +0.000 A 
ATOM     19  C   UNL     1       0.049   9.818  18.746  0.00  0.00    +0.000 A 
ATOM     20  C   UNL     1      -0.391  11.071  19.166  0.00  0.00    +0.000 A 
ATOM     21  C   UNL     1       0.479  12.139  19.063  0.00  0.00    +0.000 A 
ATOM     22  N   UNL     1       1.748  12.028  18.612  0.00  0.00    +0.000 NA
ATOM     23  C   UNL     1       2.141  10.797  18.200  0.00  0.00    +0.000 A 
ENDBRANCH  16  18
ENDBRANCH   9  14
TORSDOF 2
ENDMDL
MODEL 5
REMARK VINA RESULT:      -7.2      3.370      6.519
REMARK  Name = 
REMARK  4 active torsions:
REMARK  status: ('A' for Active; 'I' for Inactive)
REMARK    1  A    between atoms: C_1  and  C_2
REMARK    2  A    between atoms: C_7  and  C_8
REMARK    3  A    between atoms: C_9  and  C_10
REMARK    4  A    between atoms: N_12  and  C_13
REMARK                            x       y       z     vdW  Elec       q    Type
REMARK                         _______ _______ _______ _____ _____    ______ ____
ROOT
ATOM      1  C   UNL     1       2.593   2.984  21.015  0.00  0.00    +0.000 C 
ATOM      2  C   UNL     1       3.176   3.700  19.828  0.00  0.00    +0.000 A 
ATOM      3  C   UNL     1       4.472   4.230  19.914  0.00  0.00    +0.000 A 
ATOM      4  C   UNL     1       5.083   4.860  18.815  0.00  0.00    +0.000 A 
ATOM      5  C   UNL     1       4.374   5.006  17.613  0.00  0.00    +0.000 A 
ATOM      6  C   UNL     1       3.065   4.484  17.539  0.00  0.00    +0.000 A 
ATOM      7  C   UNL     1       2.466   3.824  18.622  0.00  0.00    +0.000 A 
ATOM      8  C   UNL     1       1.093   3.233  18.457  0.00  0.00    +0.000 C 
ATOM      9  C   UNL     1       4.974   5.572  16.338  0.00  0.00    +0.000 C 
ATOM     10  S   UNL     1       6.355   6.716  16.630  0.00  0.00    +0.000 S 
ATOM     11  C   UNL     1       7.301   5.656  17.752  0.00  0.00    +0.000 C 
ATOM     12  C   UNL     1       6.497   5.307  18.980  0.00  0.00    +0.000 C 
ATOM     13  O   UNL     1       7.011   5.312  20.098  0.00  0.00    +0.000 OA
ENDROOT
BRANCH   9  14
ATOM     14  C   UNL     1       5.456   4.437  15.421  0.00  0.00    +0.000 C 
ATOM     15  O   UNL     1       5.813   3.356  15.893  0.00  0.00    +0.000 OA
ATOM     16  N   UNL     1       5.482   4.750  14.065  0.00  0.00    +0.000 N 
ATOM     17  H   UNL     1       5.465   5.735  13.819  0.00  0.00    +0.000 HD
BRANCH  16  18
ATOM     18  C   UNL     1       5.831   3.835  13.049  0.00  0.00    +0.000 A 
ATOM     19  C   UNL     1       7.142   3.642  12.610  0.00  0.00    +0.000 A 
ATOM     20  C   UNL     1       7.405   2.803  11.531  0.00  0.00    +0.000 A 
ATOM     21  C   UNL     1       6.343   2.145  10.940  0.00  0.00    +0.000 A 
ATOM     22  N   UNL     1       5.068   2.242  11.375  0.00  0.00    +0.000 NA
ATOM     23  C   UNL     1       4.844   3.077  12.420  0.00  0.00    +0.000 A 
ENDBRANCH  16  18
ENDBRANCH   9  14
TORSDOF 2
ENDMDL
MODEL 6
REMARK VINA RESULT:      -7.1      3.012      5.952
REMARK  Name = 
REMARK  4 active torsions:
REMARK  status: ('A' for Active; 'I' for Inactive)
REMARK    1  A    between atoms: C_1  and  C_2
REMARK    2  A    between atoms: C_7  and  C_8
REMARK    3  A    between atoms: C_9  and  C_10
REMARK    4  A    between atoms: N_12  and  C_13
REMARK                            x       y       z     vdW  Elec       q    Type
REMARK                         _______ _______ _______ _____ _____    ______ ____
ROOT
ATOM      1  C   UNL     1       3.504   2.222  20.024  0.00  0.00    +0.000 C 
ATOM      2  C   UNL     1       3.853   3.492  19.298  0.00  0.00    +0.000 A 
ATOM      3  C   UNL     1       5.161   3.993  19.379  0.00  0.00    +0.000 A 
ATOM      4  C   UNL     1       5.551   5.146  18.675  0.00  0.00    +0.000 A 
ATOM      5  C   UNL     1       4.608   5.846  17.906  0.00  0.00    +0.000 A 
ATOM      6  C   UNL     1       3.291   5.345  17.842  0.00  0.00    +0.000 A 
ATOM      7  C   UNL     1       2.907   4.175  18.515  0.00  0.00    +0.000 A 
ATOM      8  C   UNL     1       1.504   3.659  18.353  0.00  0.00    +0.000 C 
ATOM      9  C   UNL     1       4.947   7.035  17.026  0.00  0.00    +0.000 C 
ATOM     10  S   UNL     1       6.413   7.957  17.581  0.00  0.00    +0.000 S 
ATOM     11  C   UNL     1       7.525   6.539  17.755  0.00  0.00    +0.000 C 
ATOM     12  C   UNL     1       6.987   5.543  18.753  0.00  0.00    +0.000 C 
ATOM     13  O   UNL     1       7.729   5.002  19.572  0.00  0.00    +0.000 OA
ENDROOT
BRANCH   9  14
ATOM     14  C   UNL     1       5.167   6.584  15.573  0.00  0.00    +0.000 C 
ATOM     15  O   UNL     1       4.850   7.316  14.633  0.00  0.00    +0.000 OA
ATOM     16  N   UNL     1       5.706   5.310  15.431  0.00  0.00    +0.000 N 
ATOM     17  H   UNL     1       5.644   4.690  16.233  0.00  0.00    +0.000 HD
BRANCH  16  18
ATOM     18  C   UNL     1       6.045   4.729  14.190  0.00  0.00    +0.000 A 
ATOM     19  C   UNL     1       5.233   3.805  13.530  0.00  0.00    +0.000 A 
ATOM     20  C   UNL     1       5.675   3.190  12.362  0.00  0.00    +0.000 A 
ATOM     21  C   UNL     1       6.913   3.547  11.863  0.00  0.00    +0.000 A 
ATOM     22  N   UNL     1       7.702   4.488  12.425  0.00  0.00    +0.000 NA
ATOM     23  C   UNL     1       7.248   5.060  13.567  0.00  0.00    +0.000 A 
ENDBRANCH  16  18
ENDBRANCH   9  14
TORSDOF 2
ENDMDL
MODEL 7
REMARK VINA RESULT:      -7.1      2.991      3.822
REMARK  Name = 
REMARK  4 active torsions:
REMARK  status: ('A' for Active; 'I' for Inactive)
REMARK    1  A    between atoms: C_1  and  C_2
REMARK    2  A    between atoms: C_7  and  C_8
REMARK    3  A    between atoms: C_9  and  C_10
REMARK    4  A    between atoms: N_12  and  C_13
REMARK                            x       y       z     vdW  Elec       q    Type
REMARK                         _______ _______ _______ _____ _____    ______ ____
ROOT
ATOM      1  C   UNL     1       8.331   5.496  19.290  0.00  0.00    +0.000 C 
ATOM      2  C   UNL     1       6.914   5.681  18.819  0.00  0.00    +0.000 A 
ATOM      3  C   UNL     1       5.904   4.859  19.341  0.00  0.00    +0.000 A 
ATOM      4  C   UNL     1       4.557   5.028  18.974  0.00  0.00    +0.000 A 
ATOM      5  C   UNL     1       4.208   6.008  18.032  0.00  0.00    +0.000 A 
ATOM      6  C   UNL     1       5.232   6.821  17.500  0.00  0.00    +0.000 A 
ATOM      7  C   UNL     1       6.572   6.678  17.891  0.00  0.00    +0.000 A 
ATOM      8  C   UNL     1       7.605   7.619  17.334  0.00  0.00    +0.000 C 
ATOM      9  C   UNL     1       2.779   6.344  17.648  0.00  0.00    +0.000 C 
ATOM     10  S   UNL     1       1.621   4.961  17.872  0.00  0.00    +0.000 S 
ATOM     11  C   UNL     1       2.088   4.540  19.569  0.00  0.00    +0.000 C 
ATOM     12  C   UNL     1       3.548   4.165  19.656  0.00  0.00    +0.000 C 
ATOM     13  O   UNL     1       3.919   3.212  20.340  0.00  0.00    +0.000 OA
ENDROOT
BRANCH   9  14
ATOM     14  C   UNL     1       2.272   7.549  18.458  0.00  0.00    +0.000 C 
ATOM     15  O   UNL     1       2.277   7.524  19.690  0.00  0.00    +0.000 OA
ATOM     16  N   UNL     1       1.797   8.610  17.694  0.00  0.00    +0.000 N 
ATOM     17  H   UNL     1       1.558   8.411  16.727  0.00  0.00    +0.000 HD
BRANCH  16  18
ATOM     18  C   UNL     1       1.347   9.834  18.234  0.00  0.00    +0.000 A 
ATOM     19  C   UNL     1       2.102  11.007  18.204  0.00  0.00    +0.000 A 
ATOM     20  C   UNL     1       1.644  12.153  18.849  0.00  0.00    +0.000 A 
ATOM     21  C   UNL     1       0.416  12.103  19.479  0.00  0.00    +0.000 A 
ATOM     22  N   UNL     1      -0.383  11.014  19.472  0.00  0.00    +0.000 NA
ATOM     23  C   UNL     1       0.097   9.911  18.846  0.00  0.00    +0.000 A 
ENDBRANCH  16  18
ENDBRANCH   9  14
TORSDOF 2
ENDMDL
MODEL 8
REMARK VINA RESULT:      -7.0      3.004      5.936
REMARK  Name = 
REMARK  4 active torsions:
REMARK  status: ('A' for Active; 'I' for Inactive)
REMARK    1  A    between atoms: C_1  and  C_2
REMARK    2  A    between atoms: C_7  and  C_8
REMARK    3  A    between atoms: C_9  and  C_10
REMARK    4  A    between atoms: N_12  and  C_13
REMARK                            x       y       z     vdW  Elec       q    Type
REMARK                         _______ _______ _______ _____ _____    ______ ____
ROOT
ATOM      1  C   UNL     1       3.352   2.389  20.122  0.00  0.00    +0.000 C 
ATOM      2  C   UNL     1       3.749   3.632  19.374  0.00  0.00    +0.000 A 
ATOM      3  C   UNL     1       5.065   4.107  19.479  0.00  0.00    +0.000 A 
ATOM      4  C   UNL     1       5.500   5.232  18.756  0.00  0.00    +0.000 A 
ATOM      5  C   UNL     1       4.595   5.931  17.942  0.00  0.00    +0.000 A 
ATOM      6  C   UNL     1       3.269   5.456  17.853  0.00  0.00    +0.000 A 
ATOM      7  C   UNL     1       2.841   4.313  18.545  0.00  0.00    +0.000 A 
ATOM      8  C   UNL     1       1.432   3.823  18.357  0.00  0.00    +0.000 C 
ATOM      9  C   UNL     1       4.985   7.088  17.041  0.00  0.00    +0.000 C 
ATOM     10  S   UNL     1       6.454   7.993  17.613  0.00  0.00    +0.000 S 
ATOM     11  C   UNL     1       7.530   6.557  17.857  0.00  0.00    +0.000 C 
ATOM     12  C   UNL     1       6.942   5.601  18.865  0.00  0.00    +0.000 C 
ATOM     13  O   UNL     1       7.648   5.066  19.719  0.00  0.00    +0.000 OA
ENDROOT
BRANCH   9  14
ATOM     14  C   UNL     1       5.236   6.594  15.607  0.00  0.00    +0.000 C 
ATOM     15  O   UNL     1       4.876   7.266  14.639  0.00  0.00    +0.000 OA
ATOM     16  N   UNL     1       5.853   5.350  15.516  0.00  0.00    +0.000 N 
ATOM     17  H   UNL     1       5.827   4.761  16.344  0.00  0.00    +0.000 HD
BRANCH  16  18
ATOM     18  C   UNL     1       6.230   4.742  14.300  0.00  0.00    +0.000 A 
ATOM     19  C   UNL     1       7.396   5.074  13.608  0.00  0.00    +0.000 A 
ATOM     20  C   UNL     1       7.656   4.513  12.360  0.00  0.00    +0.000 A 
ATOM     21  C   UNL     1       6.753   3.600  11.853  0.00  0.00    +0.000 A 
ATOM     22  N   UNL     1       5.649   3.191  12.517  0.00  0.00    +0.000 NA
ATOM     23  C   UNL     1       5.419   3.766  13.724  0.00  0.00    +0.000 A 
ENDBRANCH  16  18
ENDBRANCH   9  14
TORSDOF 2
ENDMDL
MODEL 9
REMARK VINA RESULT:      -7.0      2.351      3.138
REMARK  Name = 
REMARK  4 active torsions:
REMARK  status: ('A' for Active; 'I' for Inactive)
REMARK    1  A    between atoms: C_1  and  C_2
REMARK    2  A    between atoms: C_7  and  C_8
REMARK    3  A    between atoms: C_9  and  C_10
REMARK    4  A    between atoms: N_12  and  C_13
REMARK                            x       y       z     vdW  Elec       q    Type
REMARK                         _______ _______ _______ _____ _____    ______ ____
ROOT
ATOM      1  C   UNL     1       8.473   5.855  19.645  0.00  0.00    +0.000 C 
ATOM      2  C   UNL     1       7.186   5.465  18.972  0.00  0.00    +0.000 A 
ATOM      3  C   UNL     1       6.442   4.389  19.483  0.00  0.00    +0.000 A 
ATOM      4  C   UNL     1       5.206   4.020  18.923  0.00  0.00    +0.000 A 
ATOM      5  C   UNL     1       4.715   4.707  17.802  0.00  0.00    +0.000 A 
ATOM      6  C   UNL     1       5.475   5.777  17.285  0.00  0.00    +0.000 A 
ATOM      7  C   UNL     1       6.692   6.171  17.863  0.00  0.00    +0.000 A 
ATOM      8  C   UNL     1       7.422   7.361  17.302  0.00  0.00    +0.000 C 
ATOM      9  C   UNL     1       3.348   4.460  17.189  0.00  0.00    +0.000 C 
ATOM     10  S   UNL     1       2.714   2.781  17.476  0.00  0.00    +0.000 S 
ATOM     11  C   UNL     1       2.990   2.732  19.265  0.00  0.00    +0.000 C 
ATOM     12  C   UNL     1       4.450   2.924  19.596  0.00  0.00    +0.000 C 
ATOM     13  O   UNL     1       4.998   2.244  20.463  0.00  0.00    +0.000 OA
ENDROOT
BRANCH   9  14
ATOM     14  C   UNL     1       2.326   5.474  17.727  0.00  0.00    +0.000 C 
ATOM     15  O   UNL     1       1.123   5.206  17.742  0.00  0.00    +0.000 OA
ATOM     16  N   UNL     1       2.867   6.685  18.146  0.00  0.00    +0.000 N 
ATOM     17  H   UNL     1       3.800   6.914  17.814  0.00  0.00    +0.000 HD
BRANCH  16  18
ATOM     18  C   UNL     1       2.115   7.727  18.731  0.00  0.00    +0.000 A 
ATOM     19  C   UNL     1       1.621   8.813  18.006  0.00  0.00    +0.000 A 
ATOM     20  C   UNL     1       0.979   9.860  18.662  0.00  0.00    +0.000 A 
ATOM     21  C   UNL     1       0.815   9.773  20.031  0.00  0.00    +0.000 A 
ATOM     22  N   UNL     1       1.211   8.709  20.765  0.00  0.00    +0.000 NA
ATOM     23  C   UNL     1       1.843   7.712  20.098  0.00  0.00    +0.000 A 
ENDBRANCH  16  18
ENDBRANCH   9  14
TORSDOF 2
ENDMDL
