MODEL 1
REMARK VINA RESULT:      -7.8      0.000      0.000
REMARK  Name = 
REMARK  9 active torsions:
REMARK  status: ('A' for Active; 'I' for Inactive)
REMARK    1  A    between atoms: C_1  and  O_2
REMARK    2  A    between atoms: O_2  and  C_3
REMARK    3  A    between atoms: C_7  and  C_8
REMARK    4  A    between atoms: C_8  and  C_9
REMARK    5  A    between atoms: C_9  and  O_11
REMARK    6  A    between atoms: O_11  and  C_12
REMARK    7  A    between atoms: C_12  and  C_13
REMARK    8  A    between atoms: N_15  and  C_16
REMARK    9  A    between atoms: C_19  and  C_20
REMARK                            x       y       z     vdW  Elec       q    Type
REMARK                         _______ _______ _______ _____ _____    ______ ____
ROOT
ATOM      1  C   UNL     1       6.830   5.890  16.829  0.00  0.00    +0.000 C 
ATOM      2  O   UNL     1       7.635   5.019  17.148  0.00  0.00    +0.000 OA
ENDROOT
BRANCH   1   3
ATOM      3  C   UNL     1       5.524   5.626  16.126  0.00  0.00    +0.000 C 
BRANCH   3   8
ATOM      4  C   UNL     1       1.811   3.441  19.404  0.00  0.00    +0.000 A 
ATOM      5  C   UNL     1       2.792   2.731  18.704  0.00  0.00    +0.000 A 
ATOM      6  C   UNL     1       3.704   3.387  17.860  0.00  0.00    +0.000 A 
ATOM      7  C   UNL     1       3.613   4.783  17.714  0.00  0.00    +0.000 A 
ATOM      8  C   UNL     1       4.327   5.788  16.991  0.00  0.00    +0.000 A 
ATOM      9  C   UNL     1       3.711   6.982  17.314  0.00  0.00    +0.000 A 
ATOM     10  O   UNL     1       2.674   6.785  18.164  0.00  0.00    +0.000 OA
ATOM     11  C   UNL     1       2.613   5.449  18.413  0.00  0.00    +0.000 A 
ATOM     12  C   UNL     1       1.692   4.827  19.253  0.00  0.00    +0.000 A 
BRANCH   4  14
ATOM     13  C   UNL     1       1.314   2.646  21.574  0.00  0.00    +0.000 C 
ATOM     14  O   UNL     1       0.883   2.871  20.236  0.00  0.00    +0.000 OA
ENDBRANCH   4  14
ENDBRANCH   3   8
ENDBRANCH   1   3
BRANCH   1  15
ATOM     15  O   UNL     1       6.969   7.209  17.151  0.00  0.00    +0.000 OA
BRANCH  15  16
ATOM     16  C   UNL     1       8.024   7.443  18.096  0.00  0.00    +0.000 C 
BRANCH  16  17
ATOM     17  C   UNL     1       8.287   8.949  18.180  0.00  0.00    +0.000 C 
ATOM     18  O   UNL     1       7.674   9.715  17.434  0.00  0.00    +0.000 OA
ATOM     19  N   UNL     1       9.232   9.325  19.119  0.00  0.00    +0.000 N 
ATOM     20  H   UNL     1       9.806   8.601  19.534  0.00  0.00    +0.000 HD
BRANCH  19  21
ATOM     21  C   UNL     1       9.586  10.663  19.415  0.00  0.00    +0.000 A 
ATOM     22  C   UNL     1      10.217  11.498  18.490  0.00  0.00    +0.000 A 
ATOM     23  C   UNL     1      10.663  12.768  18.856  0.00  0.00    +0.000 A 
ATOM     24  C   UNL     1      10.469  13.237  20.156  0.00  0.00    +0.000 A 
ATOM     25  C   UNL     1      11.041  14.557  20.575  0.00  0.00    +0.000 C 
ATOM     26  C   UNL     1       9.763  12.438  21.063  0.00  0.00    +0.000 A 
ATOM     27  C   UNL     1       9.311  11.163  20.691  0.00  0.00    +0.000 A 
ENDBRANCH  19  21
ENDBRANCH  16  17
ENDBRANCH  15  16
ENDBRANCH   1  15
TORSDOF 7
ENDMDL
MODEL 2
REMARK VINA RESULT:      -7.8      1.120      1.567
REMARK  Name = 
REMARK  9 active torsions:
REMARK  status: ('A' for Active; 'I' for Inactive)
REMARK    1  A    between atoms: C_1  and  O_2
REMARK    2  A    between atoms: O_2  and  C_3
REMARK    3  A    between atoms: C_7  and  C_8
REMARK    4  A    between atoms: C_8  and  C_9
REMARK    5  A    between atoms: C_9  and  O_11
REMARK    6  A    between atoms: O_11  and  C_12
REMARK    7  A    between atoms: C_12  and  C_13
REMARK    8  A    between atoms: N_15  and  C_16
REMARK    9  A    between atoms: C_19  and  C_20
REMARK                            x       y       z     vdW  Elec       q    Type
REMARK                         _______ _______ _______ _____ _____    ______ ____
ROOT
ATOM      1  C   UNL     1       6.632   6.629  16.486  0.00  0.00    +0.000 C 
ATOM      2  O   UNL     1       7.622   6.123  15.963  0.00  0.00    +0.000 OA
ENDROOT
BRANCH   1   3
ATOM      3  C   UNL     1       5.210   6.310  16.102  0.00  0.00    +0.000 C 
BRANCH   3   8
ATOM      4  C   UNL     1       2.070   4.489  20.119  0.00  0.00    +0.000 A 
ATOM      5  C   UNL     1       2.377   5.832  19.876  0.00  0.00    +0.000 A 
ATOM      6  C   UNL     1       3.219   6.206  18.815  0.00  0.00    +0.000 A 
ATOM      7  C   UNL     1       3.767   5.204  17.995  0.00  0.00    +0.000 A 
ATOM      8  C   UNL     1       4.624   5.168  16.852  0.00  0.00    +0.000 A 
ATOM      9  C   UNL     1       4.753   3.831  16.530  0.00  0.00    +0.000 A 
ATOM     10  O   UNL     1       4.056   3.049  17.389  0.00  0.00    +0.000 OA
ATOM     11  C   UNL     1       3.451   3.881  18.281  0.00  0.00    +0.000 A 
ATOM     12  C   UNL     1       2.624   3.478  19.326  0.00  0.00    +0.000 A 
BRANCH   4  14
ATOM     13  C   UNL     1       1.356   2.657  21.431  0.00  0.00    +0.000 C 
ATOM     14  O   UNL     1       1.267   4.047  21.137  0.00  0.00    +0.000 OA
ENDBRANCH   4  14
ENDBRANCH   3   8
ENDBRANCH   1   3
BRANCH   1  15
ATOM     15  O   UNL     1       6.686   7.485  17.547  0.00  0.00    +0.000 OA
BRANCH  15  16
ATOM     16  C   UNL     1       8.018   7.659  18.054  0.00  0.00    +0.000 C 
BRANCH  16  17
ATOM     17  C   UNL     1       8.302   9.158  18.193  0.00  0.00    +0.000 C 
ATOM     18  O   UNL     1       7.706   9.958  17.470  0.00  0.00    +0.000 OA
ATOM     19  N   UNL     1       9.246   9.486  19.150  0.00  0.00    +0.000 N 
ATOM     20  H   UNL     1       9.806   8.740  19.543  0.00  0.00    +0.000 HD
BRANCH  19  21
ATOM     21  C   UNL     1       9.617  10.808  19.495  0.00  0.00    +0.000 A 
ATOM     22  C   UNL     1      10.401  11.612  18.664  0.00  0.00    +0.000 A 
ATOM     23  C   UNL     1      10.850  12.862  19.089  0.00  0.00    +0.000 A 
ATOM     24  C   UNL     1      10.509  13.342  20.355  0.00  0.00    +0.000 A 
ATOM     25  C   UNL     1      11.079  14.636  20.850  0.00  0.00    +0.000 C 
ATOM     26  C   UNL     1       9.655  12.576  21.158  0.00  0.00    +0.000 A 
ATOM     27  C   UNL     1       9.200  11.323  20.726  0.00  0.00    +0.000 A 
ENDBRANCH  19  21
ENDBRANCH  16  17
ENDBRANCH  15  16
ENDBRANCH   1  15
TORSDOF 7
ENDMDL
MODEL 3
REMARK VINA RESULT:      -7.8      1.072      1.490
REMARK  Name = 
REMARK  9 active torsions:
REMARK  status: ('A' for Active; 'I' for Inactive)
REMARK    1  A    between atoms: C_1  and  O_2
REMARK    2  A    between atoms: O_2  and  C_3
REMARK    3  A    between atoms: C_7  and  C_8
REMARK    4  A    between atoms: C_8  and  C_9
REMARK    5  A    between atoms: C_9  and  O_11
REMARK    6  A    between atoms: O_11  and  C_12
REMARK    7  A    between atoms: C_12  and  C_13
REMARK    8  A    between atoms: N_15  and  C_16
REMARK    9  A    between atoms: C_19  and  C_20
REMARK                            x       y       z     vdW  Elec       q    Type
REMARK                         _______ _______ _______ _____ _____    ______ ____
ROOT
ATOM      1  C   UNL     1       7.756   6.038  18.682  0.00  0.00    +0.000 C 
ATOM      2  O   UNL     1       7.855   5.127  19.499  0.00  0.00    +0.000 OA
ENDROOT
BRANCH   1   3
ATOM      3  C   UNL     1       6.922   5.970  17.428  0.00  0.00    +0.000 C 
BRANCH   3   8
ATOM      4  C   UNL     1       2.563   3.544  19.530  0.00  0.00    +0.000 A 
ATOM      5  C   UNL     1       3.856   3.011  19.511  0.00  0.00    +0.000 A 
ATOM      6  C   UNL     1       4.924   3.712  18.924  0.00  0.00    +0.000 A 
ATOM      7  C   UNL     1       4.675   4.966  18.338  0.00  0.00    +0.000 A 
ATOM      8  C   UNL     1       5.457   5.962  17.675  0.00  0.00    +0.000 A 
ATOM      9  C   UNL     1       4.572   6.974  17.359  0.00  0.00    +0.000 A 
ATOM     10  O   UNL     1       3.315   6.672  17.763  0.00  0.00    +0.000 OA
ATOM     11  C   UNL     1       3.373   5.451  18.362  0.00  0.00    +0.000 A 
ATOM     12  C   UNL     1       2.294   4.780  18.932  0.00  0.00    +0.000 A 
BRANCH   4  14
ATOM     13  C   UNL     1       1.502   2.748  21.486  0.00  0.00    +0.000 C 
ATOM     14  O   UNL     1       1.472   2.918  20.073  0.00  0.00    +0.000 OA
ENDBRANCH   4  14
ENDBRANCH   3   8
ENDBRANCH   1   3
BRANCH   1  15
ATOM     15  O   UNL     1       8.318   7.271  18.844  0.00  0.00    +0.000 OA
BRANCH  15  16
ATOM     16  C   UNL     1       8.027   8.163  17.758  0.00  0.00    +0.000 C 
BRANCH  16  17
ATOM     17  C   UNL     1       8.399   9.588  18.176  0.00  0.00    +0.000 C 
ATOM     18  O   UNL     1       7.961  10.544  17.533  0.00  0.00    +0.000 OA
ATOM     19  N   UNL     1       9.233   9.674  19.278  0.00  0.00    +0.000 N 
ATOM     20  H   UNL     1       9.681   8.826  19.602  0.00  0.00    +0.000 HD
BRANCH  19  21
ATOM     21  C   UNL     1       9.652  10.885  19.878  0.00  0.00    +0.000 A 
ATOM     22  C   UNL     1       9.126  11.349  21.087  0.00  0.00    +0.000 A 
ATOM     23  C   UNL     1       9.471  12.605  21.585  0.00  0.00    +0.000 A 
ATOM     24  C   UNL     1      10.366  13.419  20.890  0.00  0.00    +0.000 A 
ATOM     25  C   UNL     1      10.654  14.809  21.371  0.00  0.00    +0.000 C 
ATOM     26  C   UNL     1      10.961  12.924  19.722  0.00  0.00    +0.000 A 
ATOM     27  C   UNL     1      10.616  11.659  19.226  0.00  0.00    +0.000 A 
ENDBRANCH  19  21
ENDBRANCH  16  17
ENDBRANCH  15  16
ENDBRANCH   1  15
TORSDOF 7
ENDMDL
MODEL 4
REMARK VINA RESULT:      -7.7      3.148      7.342
REMARK  Name = 
REMARK  9 active torsions:
REMARK  status: ('A' for Active; 'I' for Inactive)
REMARK    1  A    between atoms: C_1  and  O_2
REMARK    2  A    between atoms: O_2  and  C_3
REMARK    3  A    between atoms: C_7  and  C_8
REMARK    4  A    between atoms: C_8  and  C_9
REMARK    5  A    between atoms: C_9  and  O_11
REMARK    6  A    between atoms: O_11  and  C_12
REMARK    7  A    between atoms: C_12  and  C_13
REMARK    8  A    between atoms: N_15  and  C_16
REMARK    9  A    between atoms: C_19  and  C_20
REMARK                            x       y       z     vdW  Elec       q    Type
REMARK                         _______ _______ _______ _____ _____    ______ ____
ROOT
ATOM      1  C   UNL     1       2.967   2.278  18.803  0.00  0.00    +0.000 C 
ATOM      2  O   UNL     1       2.459   1.844  17.772  0.00  0.00    +0.000 OA
ENDROOT
BRANCH   1   3
ATOM      3  C   UNL     1       4.400   2.731  18.920  0.00  0.00    +0.000 C 
BRANCH   3   8
ATOM      4  C   UNL     1       7.626   7.004  18.123  0.00  0.00    +0.000 A 
ATOM      5  C   UNL     1       7.797   6.035  19.117  0.00  0.00    +0.000 A 
ATOM      6  C   UNL     1       6.893   4.968  19.256  0.00  0.00    +0.000 A 
ATOM      7  C   UNL     1       5.793   4.889  18.383  0.00  0.00    +0.000 A 
ATOM      8  C   UNL     1       4.697   3.992  18.193  0.00  0.00    +0.000 A 
ATOM      9  C   UNL     1       3.982   4.506  17.128  0.00  0.00    +0.000 A 
ATOM     10  O   UNL     1       4.546   5.646  16.662  0.00  0.00    +0.000 OA
ATOM     11  C   UNL     1       5.651   5.882  17.421  0.00  0.00    +0.000 A 
ATOM     12  C   UNL     1       6.526   6.953  17.260  0.00  0.00    +0.000 A 
BRANCH   4  14
ATOM     13  C   UNL     1       7.811   9.333  17.762  0.00  0.00    +0.000 C 
ATOM     14  O   UNL     1       8.458   8.077  17.932  0.00  0.00    +0.000 OA
ENDBRANCH   4  14
ENDBRANCH   3   8
ENDBRANCH   1   3
BRANCH   1  15
ATOM     15  O   UNL     1       2.276   2.493  19.959  0.00  0.00    +0.000 OA
BRANCH  15  16
ATOM     16  C   UNL     1       2.805   3.584  20.729  0.00  0.00    +0.000 C 
BRANCH  16  17
ATOM     17  C   UNL     1       1.986   4.842  20.430  0.00  0.00    +0.000 C 
ATOM     18  O   UNL     1       0.758   4.805  20.525  0.00  0.00    +0.000 OA
ATOM     19  N   UNL     1       2.731   5.948  20.057  0.00  0.00    +0.000 N 
ATOM     20  H   UNL     1       3.707   5.809  19.826  0.00  0.00    +0.000 HD
BRANCH  19  21
ATOM     21  C   UNL     1       2.193   7.231  19.798  0.00  0.00    +0.000 A 
ATOM     22  C   UNL     1       1.568   8.000  20.782  0.00  0.00    +0.000 A 
ATOM     23  C   UNL     1       0.940   9.203  20.463  0.00  0.00    +0.000 A 
ATOM     24  C   UNL     1       0.940   9.673  19.149  0.00  0.00    +0.000 A 
ATOM     25  C   UNL     1       0.176  10.911  18.790  0.00  0.00    +0.000 C 
ATOM     26  C   UNL     1       1.638   8.950  18.175  0.00  0.00    +0.000 A 
ATOM     27  C   UNL     1       2.273   7.743  18.499  0.00  0.00    +0.000 A 
ENDBRANCH  19  21
ENDBRANCH  16  17
ENDBRANCH  15  16
ENDBRANCH   1  15
TORSDOF 7
ENDMDL
MODEL 5
REMARK VINA RESULT:      -7.7      2.479     10.367
REMARK  Name = 
REMARK  9 active torsions:
REMARK  status: ('A' for Active; 'I' for Inactive)
REMARK    1  A    between atoms: C_1  and  O_2
REMARK    2  A    between atoms: O_2  and  C_3
REMARK    3  A    between atoms: C_7  and  C_8
REMARK    4  A    between atoms: C_8  and  C_9
REMARK    5  A    between atoms: C_9  and  O_11
REMARK    6  A    between atoms: O_11  and  C_12
REMARK    7  A    between atoms: C_12  and  C_13
REMARK    8  A    between atoms: N_15  and  C_16
REMARK    9  A    between atoms: C_19  and  C_20
REMARK                            x       y       z     vdW  Elec       q    Type
REMARK                         _______ _______ _______ _____ _____    ______ ____
ROOT
ATOM      1  C   UNL     1       8.512   9.423  18.399  0.00  0.00    +0.000 C 
ATOM      2  O   UNL     1       7.856  10.140  17.647  0.00  0.00    +0.000 OA
ENDROOT
BRANCH   1   3
ATOM      3  C   UNL     1       9.493   9.936  19.422  0.00  0.00    +0.000 C 
BRANCH   3   8
ATOM      4  C   UNL     1      11.058  14.656  17.281  0.00  0.00    +0.000 A 
ATOM      5  C   UNL     1      11.357  13.392  16.762  0.00  0.00    +0.000 A 
ATOM      6  C   UNL     1      10.920  12.219  17.401  0.00  0.00    +0.000 A 
ATOM      7  C   UNL     1      10.177  12.329  18.591  0.00  0.00    +0.000 A 
ATOM      8  C   UNL     1       9.561  11.418  19.503  0.00  0.00    +0.000 A 
ATOM      9  C   UNL     1       8.970  12.209  20.470  0.00  0.00    +0.000 A 
ATOM     10  O   UNL     1       9.185  13.525  20.227  0.00  0.00    +0.000 OA
ATOM     11  C   UNL     1       9.916  13.603  19.082  0.00  0.00    +0.000 A 
ATOM     12  C   UNL     1      10.339  14.783  18.474  0.00  0.00    +0.000 A 
BRANCH   4  14
ATOM     13  C   UNL     1      11.232  17.002  17.514  0.00  0.00    +0.000 C 
ATOM     14  O   UNL     1      11.457  15.841  16.721  0.00  0.00    +0.000 OA
ENDBRANCH   4  14
ENDBRANCH   3   8
ENDBRANCH   1   3
BRANCH   1  15
ATOM     15  O   UNL     1       8.375   8.068  18.470  0.00  0.00    +0.000 OA
BRANCH  15  16
ATOM     16  C   UNL     1       7.689   7.518  17.335  0.00  0.00    +0.000 C 
BRANCH  16  17
ATOM     17  C   UNL     1       6.611   6.550  17.831  0.00  0.00    +0.000 C 
ATOM     18  O   UNL     1       6.768   5.963  18.903  0.00  0.00    +0.000 OA
ATOM     19  N   UNL     1       5.520   6.412  16.990  0.00  0.00    +0.000 N 
ATOM     20  H   UNL     1       5.589   6.790  16.054  0.00  0.00    +0.000 HD
BRANCH  19  21
ATOM     21  C   UNL     1       4.379   5.625  17.275  0.00  0.00    +0.000 A 
ATOM     22  C   UNL     1       3.271   6.124  17.964  0.00  0.00    +0.000 A 
ATOM     23  C   UNL     1       2.219   5.288  18.336  0.00  0.00    +0.000 A 
ATOM     24  C   UNL     1       2.246   3.931  18.010  0.00  0.00    +0.000 A 
ATOM     25  C   UNL     1       1.168   3.015  18.501  0.00  0.00    +0.000 C 
ATOM     26  C   UNL     1       3.314   3.443  17.246  0.00  0.00    +0.000 A 
ATOM     27  C   UNL     1       4.367   4.288  16.869  0.00  0.00    +0.000 A 
ENDBRANCH  19  21
ENDBRANCH  16  17
ENDBRANCH  15  16
ENDBRANCH   1  15
TORSDOF 7
ENDMDL
MODEL 6
REMARK VINA RESULT:      -7.6      3.647      7.307
REMARK  Name = 
REMARK  9 active torsions:
REMARK  status: ('A' for Active; 'I' for Inactive)
REMARK    1  A    between atoms: C_1  and  O_2
REMARK    2  A    between atoms: O_2  and  C_3
REMARK    3  A    between atoms: C_7  and  C_8
REMARK    4  A    between atoms: C_8  and  C_9
REMARK    5  A    between atoms: C_9  and  O_11
REMARK    6  A    between atoms: O_11  and  C_12
REMARK    7  A    between atoms: C_12  and  C_13
REMARK    8  A    between atoms: N_15  and  C_16
REMARK    9  A    between atoms: C_19  and  C_20
REMARK                            x       y       z     vdW  Elec       q    Type
REMARK                         _______ _______ _______ _____ _____    ______ ____
ROOT
ATOM      1  C   UNL     1       1.789   2.480  18.734  0.00  0.00    +0.000 C 
ATOM      2  O   UNL     1       1.017   3.054  17.970  0.00  0.00    +0.000 OA
ENDROOT
BRANCH   1   3
ATOM      3  C   UNL     1       3.161   1.990  18.349  0.00  0.00    +0.000 C 
BRANCH   3   8
ATOM      4  C   UNL     1       5.980   6.413  17.007  0.00  0.00    +0.000 A 
ATOM      5  C   UNL     1       4.978   5.824  16.229  0.00  0.00    +0.000 A 
ATOM      6  C   UNL     1       4.313   4.663  16.656  0.00  0.00    +0.000 A 
ATOM      7  C   UNL     1       4.676   4.082  17.884  0.00  0.00    +0.000 A 
ATOM      8  C   UNL     1       4.253   2.953  18.651  0.00  0.00    +0.000 A 
ATOM      9  C   UNL     1       5.034   2.968  19.790  0.00  0.00    +0.000 A 
ATOM     10  O   UNL     1       5.905   4.005  19.775  0.00  0.00    +0.000 OA
ATOM     11  C   UNL     1       5.689   4.688  18.618  0.00  0.00    +0.000 A 
ATOM     12  C   UNL     1       6.369   5.837  18.221  0.00  0.00    +0.000 A 
BRANCH   4  14
ATOM     13  C   UNL     1       7.718   7.922  17.549  0.00  0.00    +0.000 C 
ATOM     14  O   UNL     1       6.679   7.538  16.654  0.00  0.00    +0.000 OA
ENDBRANCH   4  14
ENDBRANCH   3   8
ENDBRANCH   1   3
BRANCH   1  15
ATOM     15  O   UNL     1       1.541   2.286  20.062  0.00  0.00    +0.000 OA
BRANCH  15  16
ATOM     16  C   UNL     1       2.136   3.295  20.892  0.00  0.00    +0.000 C 
BRANCH  16  17
ATOM     17  C   UNL     1       1.545   4.657  20.515  0.00  0.00    +0.000 C 
ATOM     18  O   UNL     1       0.323   4.817  20.541  0.00  0.00    +0.000 OA
ATOM     19  N   UNL     1       2.475   5.617  20.156  0.00  0.00    +0.000 N 
ATOM     20  H   UNL     1       3.426   5.318  19.985  0.00  0.00    +0.000 HD
BRANCH  19  21
ATOM     21  C   UNL     1       2.162   6.959  19.834  0.00  0.00    +0.000 A 
ATOM     22  C   UNL     1       1.551   7.830  20.740  0.00  0.00    +0.000 A 
ATOM     23  C   UNL     1       1.146   9.105  20.349  0.00  0.00    +0.000 A 
ATOM     24  C   UNL     1       1.360   9.545  19.042  0.00  0.00    +0.000 A 
ATOM     25  C   UNL     1       0.829  10.873  18.595  0.00  0.00    +0.000 C 
ATOM     26  C   UNL     1       2.047   8.708  18.153  0.00  0.00    +0.000 A 
ATOM     27  C   UNL     1       2.459   7.428  18.551  0.00  0.00    +0.000 A 
ENDBRANCH  19  21
ENDBRANCH  16  17
ENDBRANCH  15  16
ENDBRANCH   1  15
TORSDOF 7
ENDMDL
MODEL 7
REMARK VINA RESULT:      -7.6      1.643      2.008
REMARK  Name = 
REMARK  9 active torsions:
REMARK  status: ('A' for Active; 'I' for Inactive)
REMARK    1  A    between atoms: C_1  and  O_2
REMARK    2  A    between atoms: O_2  and  C_3
REMARK    3  A    between atoms: C_7  and  C_8
REMARK    4  A    between atoms: C_8  and  C_9
REMARK    5  A    between atoms: C_9  and  O_11
REMARK    6  A    between atoms: O_11  and  C_12
REMARK    7  A    between atoms: C_12  and  C_13
REMARK    8  A    between atoms: N_15  and  C_16
REMARK    9  A    between atoms: C_19  and  C_20
REMARK                            x       y       z     vdW  Elec       q    Type
REMARK                         _______ _______ _______ _____ _____    ______ ____
ROOT
ATOM      1  C   UNL     1       7.636   6.585  17.974  0.00  0.00    +0.000 C 
ATOM      2  O   UNL     1       8.056   5.432  18.051  0.00  0.00    +0.000 OA
ENDROOT
BRANCH   1   3
ATOM      3  C   UNL     1       6.329   6.973  17.332  0.00  0.00    +0.000 C 
BRANCH   3   8
ATOM      4  C   UNL     1       2.479   3.644  19.173  0.00  0.00    +0.000 A 
ATOM      5  C   UNL     1       3.138   4.617  19.931  0.00  0.00    +0.000 A 
ATOM      6  C   UNL     1       4.141   5.424  19.367  0.00  0.00    +0.000 A 
ATOM      7  C   UNL     1       4.487   5.235  18.017  0.00  0.00    +0.000 A 
ATOM      8  C   UNL     1       5.407   5.832  17.100  0.00  0.00    +0.000 A 
ATOM      9  C   UNL     1       5.219   5.166  15.904  0.00  0.00    +0.000 A 
ATOM     10  O   UNL     1       4.270   4.205  16.021  0.00  0.00    +0.000 OA
ATOM     11  C   UNL     1       3.820   4.246  17.304  0.00  0.00    +0.000 A 
ATOM     12  C   UNL     1       2.826   3.428  17.835  0.00  0.00    +0.000 A 
BRANCH   4  14
ATOM     13  C   UNL     1       1.228   2.931  21.048  0.00  0.00    +0.000 C 
ATOM     14  O   UNL     1       1.500   2.814  19.655  0.00  0.00    +0.000 OA
ENDBRANCH   4  14
ENDBRANCH   3   8
ENDBRANCH   1   3
BRANCH   1  15
ATOM     15  O   UNL     1       8.256   7.659  18.541  0.00  0.00    +0.000 OA
BRANCH  15  16
ATOM     16  C   UNL     1       7.951   8.894  17.874  0.00  0.00    +0.000 C 
BRANCH  16  17
ATOM     17  C   UNL     1       8.815  10.006  18.474  0.00  0.00    +0.000 C 
ATOM     18  O   UNL     1       9.408   9.809  19.536  0.00  0.00    +0.000 OA
ATOM     19  N   UNL     1       8.844  11.181  17.742  0.00  0.00    +0.000 N 
ATOM     20  H   UNL     1       8.170  11.294  16.996  0.00  0.00    +0.000 HD
BRANCH  19  21
ATOM     21  C   UNL     1       9.625  12.315  18.071  0.00  0.00    +0.000 A 
ATOM     22  C   UNL     1      10.949  12.467  17.652  0.00  0.00    +0.000 A 
ATOM     23  C   UNL     1      11.726  13.535  18.098  0.00  0.00    +0.000 A 
ATOM     24  C   UNL     1      11.186  14.489  18.962  0.00  0.00    +0.000 A 
ATOM     25  C   UNL     1      12.051  15.576  19.523  0.00  0.00    +0.000 C 
ATOM     26  C   UNL     1       9.835  14.388  19.318  0.00  0.00    +0.000 A 
ATOM     27  C   UNL     1       9.055  13.315  18.864  0.00  0.00    +0.000 A 
ENDBRANCH  19  21
ENDBRANCH  16  17
ENDBRANCH  15  16
ENDBRANCH   1  15
TORSDOF 7
ENDMDL
MODEL 8
REMARK VINA RESULT:      -7.5      3.319      7.284
REMARK  Name = 
REMARK  9 active torsions:
REMARK  status: ('A' for Active; 'I' for Inactive)
REMARK    1  A    between atoms: C_1  and  O_2
REMARK    2  A    between atoms: O_2  and  C_3
REMARK    3  A    between atoms: C_7  and  C_8
REMARK    4  A    between atoms: C_8  and  C_9
REMARK    5  A    between atoms: C_9  and  O_11
REMARK    6  A    between atoms: O_11  and  C_12
REMARK    7  A    between atoms: C_12  and  C_13
REMARK    8  A    between atoms: N_15  and  C_16
REMARK    9  A    between atoms: C_19  and  C_20
REMARK                            x       y       z     vdW  Elec       q    Type
REMARK                         _______ _______ _______ _____ _____    ______ ____
ROOT
ATOM      1  C   UNL     1       3.715   2.643  19.563  0.00  0.00    +0.000 C 
ATOM      2  O   UNL     1       4.884   2.533  19.925  0.00  0.00    +0.000 OA
ENDROOT
BRANCH   1   3
ATOM      3  C   UNL     1       3.284   2.901  18.142  0.00  0.00    +0.000 C 
BRANCH   3   8
ATOM      4  C   UNL     1       6.970   6.726  17.099  0.00  0.00    +0.000 A 
ATOM      5  C   UNL     1       6.044   6.759  18.146  0.00  0.00    +0.000 A 
ATOM      6  C   UNL     1       5.111   5.723  18.326  0.00  0.00    +0.000 A 
ATOM      7  C   UNL     1       5.110   4.643  17.424  0.00  0.00    +0.000 A 
ATOM      8  C   UNL     1       4.363   3.434  17.271  0.00  0.00    +0.000 A 
ATOM      9  C   UNL     1       4.899   2.809  16.162  0.00  0.00    +0.000 A 
ATOM     10  O   UNL     1       5.901   3.542  15.620  0.00  0.00    +0.000 OA
ATOM     11  C   UNL     1       6.036   4.658  16.387  0.00  0.00    +0.000 A 
ATOM     12  C   UNL     1       6.969   5.671  16.180  0.00  0.00    +0.000 A 
BRANCH   4  14
ATOM     13  C   UNL     1       8.042   8.685  17.874  0.00  0.00    +0.000 C 
ATOM     14  O   UNL     1       7.902   7.701  16.854  0.00  0.00    +0.000 OA
ENDBRANCH   4  14
ENDBRANCH   3   8
ENDBRANCH   1   3
BRANCH   1  15
ATOM     15  O   UNL     1       2.643   2.458  20.387  0.00  0.00    +0.000 OA
BRANCH  15  16
ATOM     16  C   UNL     1       2.491   3.513  21.348  0.00  0.00    +0.000 C 
BRANCH  16  17
ATOM     17  C   UNL     1       1.767   4.687  20.683  0.00  0.00    +0.000 C 
ATOM     18  O   UNL     1       0.624   4.530  20.252  0.00  0.00    +0.000 OA
ATOM     19  N   UNL     1       2.498   5.862  20.619  0.00  0.00    +0.000 N 
ATOM     20  H   UNL     1       3.487   5.819  20.827  0.00  0.00    +0.000 HD
BRANCH  19  21
ATOM     21  C   UNL     1       2.008   7.087  20.108  0.00  0.00    +0.000 A 
ATOM     22  C   UNL     1       2.245   7.507  18.797  0.00  0.00    +0.000 A 
ATOM     23  C   UNL     1       1.854   8.774  18.366  0.00  0.00    +0.000 A 
ATOM     24  C   UNL     1       1.198   9.645  19.237  0.00  0.00    +0.000 A 
ATOM     25  C   UNL     1       0.874  11.043  18.806  0.00  0.00    +0.000 C 
ATOM     26  C   UNL     1       0.883   9.198  20.527  0.00  0.00    +0.000 A 
ATOM     27  C   UNL     1       1.272   7.921  20.955  0.00  0.00    +0.000 A 
ENDBRANCH  19  21
ENDBRANCH  16  17
ENDBRANCH  15  16
ENDBRANCH   1  15
TORSDOF 7
ENDMDL
MODEL 9
REMARK VINA RESULT:      -7.5      1.733      2.815
REMARK  Name = 
REMARK  9 active torsions:
REMARK  status: ('A' for Active; 'I' for Inactive)
REMARK    1  A    between atoms: C_1  and  O_2
REMARK    2  A    between atoms: O_2  and  C_3
REMARK    3  A    between atoms: C_7  and  C_8
REMARK    4  A    between atoms: C_8  and  C_9
REMARK    5  A    between atoms: C_9  and  O_11
REMARK    6  A    between atoms: O_11  and  C_12
REMARK    7  A    between atoms: C_12  and  C_13
REMARK    8  A    between atoms: N_15  and  C_16
REMARK    9  A    between atoms: C_19  and  C_20
REMARK                            x       y       z     vdW  Elec       q    Type
REMARK                         _______ _______ _______ _____ _____    ______ ____
ROOT
ATOM      1  C   UNL     1       6.535   6.077  16.609  0.00  0.00    +0.000 C 
ATOM      2  O   UNL     1       7.458   5.873  15.825  0.00  0.00    +0.000 OA
ENDROOT
BRANCH   1   3
ATOM      3  C   UNL     1       5.241   5.305  16.620  0.00  0.00    +0.000 C 
BRANCH   3   8
ATOM      4  C   UNL     1       1.705   8.177  19.545  0.00  0.00    +0.000 A 
ATOM      5  C   UNL     1       2.240   8.565  18.312  0.00  0.00    +0.000 A 
ATOM      6  C   UNL     1       3.168   7.756  17.634  0.00  0.00    +0.000 A 
ATOM      7  C   UNL     1       3.570   6.542  18.221  0.00  0.00    +0.000 A 
ATOM      8  C   UNL     1       4.447   5.472  17.865  0.00  0.00    +0.000 A 
ATOM      9  C   UNL     1       4.362   4.566  18.904  0.00  0.00    +0.000 A 
ATOM     10  O   UNL     1       3.515   5.002  19.868  0.00  0.00    +0.000 OA
ATOM     11  C   UNL     1       3.028   6.203  19.454  0.00  0.00    +0.000 A 
ATOM     12  C   UNL     1       2.109   6.984  20.152  0.00  0.00    +0.000 A 
BRANCH   4  14
ATOM     13  C   UNL     1       0.838  10.320  20.039  0.00  0.00    +0.000 C 
ATOM     14  O   UNL     1       0.805   8.915  20.268  0.00  0.00    +0.000 OA
ENDBRANCH   4  14
ENDBRANCH   3   8
ENDBRANCH   1   3
BRANCH   1  15
ATOM     15  O   UNL     1       6.593   6.974  17.636  0.00  0.00    +0.000 OA
BRANCH  15  16
ATOM     16  C   UNL     1       7.935   7.224  18.080  0.00  0.00    +0.000 C 
BRANCH  16  17
ATOM     17  C   UNL     1       8.142   8.737  18.199  0.00  0.00    +0.000 C 
ATOM     18  O   UNL     1       7.456   9.499  17.516  0.00  0.00    +0.000 OA
ATOM     19  N   UNL     1       9.126   9.123  19.093  0.00  0.00    +0.000 N 
ATOM     20  H   UNL     1       9.751   8.411  19.449  0.00  0.00    +0.000 HD
BRANCH  19  21
ATOM     21  C   UNL     1       9.443  10.465  19.411  0.00  0.00    +0.000 A 
ATOM     22  C   UNL     1       9.934  11.369  18.466  0.00  0.00    +0.000 A 
ATOM     23  C   UNL     1      10.353  12.645  18.842  0.00  0.00    +0.000 A 
ATOM     24  C   UNL     1      10.272  13.050  20.175  0.00  0.00    +0.000 A 
ATOM     25  C   UNL     1      10.819  14.381  20.593  0.00  0.00    +0.000 C 
ATOM     26  C   UNL     1       9.702  12.179  21.112  0.00  0.00    +0.000 A 
ATOM     27  C   UNL     1       9.277  10.899  20.730  0.00  0.00    +0.000 A 
ENDBRANCH  19  21
ENDBRANCH  16  17
ENDBRANCH  15  16
ENDBRANCH   1  15
TORSDOF 7
ENDMDL
