MODEL 1
REMARK VINA RESULT:      -8.6      0.000      0.000
REMARK  Name = 
REMARK  8 active torsions:
REMARK  status: ('A' for Active; 'I' for Inactive)
REMARK    1  A    between atoms: C_2  and  C_13
REMARK    2  A    between atoms: N_3  and  N_4
REMARK    3  A    between atoms: C_5  and  C_6
REMARK    4  A    between atoms: C_6  and  C_7
REMARK    5  A    between atoms: C_15  and  C_16
REMARK    6  A    between atoms: N_17  and  N_18
REMARK    7  A    between atoms: N_18  and  C_19
REMARK    8  A    between atoms: C_23  and  C_24
REMARK                            x       y       z     vdW  Elec       q    Type
REMARK                         _______ _______ _______ _____ _____    ______ ____
ROOT
ATOM      1  C   UNL     1       3.217   5.522  19.518  0.00  0.00    +0.000 A 
ATOM      2  C   UNL     1       4.586   5.442  19.673  0.00  0.00    +0.000 A 
ATOM      3  C   UNL     1       5.161   4.531  18.829  0.00  0.00    +0.000 A 
ATOM      4  N   UNL     1       4.743   3.294  19.000  0.00  0.00    +0.000 NA
ATOM      5  C   UNL     1       3.418   3.164  19.061  0.00  0.00    +0.000 A 
ATOM      6  C   UNL     1       2.970   1.909  18.707  0.00  0.00    +0.000 A 
ATOM      7  C   UNL     1       1.619   1.619  18.640  0.00  0.00    +0.000 A 
ATOM      8  C   UNL     1       0.703   2.603  18.985  0.00  0.00    +0.000 A 
ATOM      9  C   UNL     1       1.136   3.916  19.287  0.00  0.00    +0.000 A 
ATOM     10  C   UNL     1       2.534   4.257  19.295  0.00  0.00    +0.000 A 
ENDROOT
BRANCH   1  12
ATOM     11  O   UNL     1       3.133   7.251  17.862  0.00  0.00    +0.000 OA
ATOM     12  C   UNL     1       2.822   6.899  18.997  0.00  0.00    +0.000 C 
ATOM     13  N   UNL     1       2.269   7.828  19.937  0.00  0.00    +0.000 N 
ATOM     14  H   UNL     1       2.224   8.797  19.636  0.00  0.00    +0.000 HD
BRANCH  13  15
ATOM     15  N   UNL     1       1.387   7.470  20.943  0.00  0.00    +0.000 NA
ATOM     16  C   UNL     1       0.664   8.382  21.546  0.00  0.00    +0.000 C 
BRANCH  16  17
ATOM     17  C   UNL     1       0.665   9.888  21.434  0.00  0.00    +0.000 C 
BRANCH  17  18
ATOM     18  C   UNL     1      -0.298  10.511  20.450  0.00  0.00    +0.000 A 
ATOM     19  C   UNL     1      -0.490  10.035  19.150  0.00  0.00    +0.000 A 
ATOM     20  C   UNL     1      -1.414  10.652  18.299  0.00  0.00    +0.000 A 
ATOM     21  C   UNL     1      -2.160  11.747  18.736  0.00  0.00    +0.000 A 
ATOM     22  C   UNL     1      -2.011  12.205  20.039  0.00  0.00    +0.000 A 
ATOM     23  C   UNL     1      -1.108  11.572  20.894  0.00  0.00    +0.000 A 
ENDBRANCH  17  18
ENDBRANCH  16  17
ENDBRANCH  13  15
ENDBRANCH   1  12
BRANCH   3  24
ATOM     24  C   UNL     1       5.085   4.808  17.336  0.00  0.00    +0.000 C 
ATOM     25  N   UNL     1       6.010   5.369  16.617  0.00  0.00    +0.000 NA
BRANCH  25  26
ATOM     26  N   UNL     1       5.586   5.760  15.385  0.00  0.00    +0.000 N 
ATOM     27  H   UNL     1       4.681   6.212  15.277  0.00  0.00    +0.000 HD
BRANCH  26  28
ATOM     28  C   UNL     1       6.018   5.085  14.229  0.00  0.00    +0.000 A 
ATOM     29  C   UNL     1       7.347   5.073  13.812  0.00  0.00    +0.000 A 
ATOM     30  C   UNL     1       7.766   4.302  12.728  0.00  0.00    +0.000 A 
ATOM     31  C   UNL     1       6.830   3.607  11.974  0.00  0.00    +0.000 A 
ATOM     32  C   UNL     1       5.467   3.703  12.285  0.00  0.00    +0.000 A 
ATOM     33  C   UNL     1       5.075   4.442  13.417  0.00  0.00    +0.000 A 
BRANCH  32  34
ATOM     34  C   UNL     1       4.428   3.039  11.420  0.00  0.00    +0.000 C 
ATOM     35  F   UNL     1       4.798   1.806  10.971  0.00  0.00    +0.000 F 
ATOM     36  F   UNL     1       3.247   2.855  12.075  0.00  0.00    +0.000 F 
ATOM     37  F   UNL     1       4.129   3.765  10.308  0.00  0.00    +0.000 F 
ENDBRANCH  32  34
ENDBRANCH  26  28
ENDBRANCH  25  26
ENDBRANCH   3  24
TORSDOF 8
ENDMDL
MODEL 2
REMARK VINA RESULT:      -8.6      7.254      8.676
REMARK  Name = 
REMARK  8 active torsions:
REMARK  status: ('A' for Active; 'I' for Inactive)
REMARK    1  A    between atoms: C_2  and  C_13
REMARK    2  A    between atoms: N_3  and  N_4
REMARK    3  A    between atoms: C_5  and  C_6
REMARK    4  A    between atoms: C_6  and  C_7
REMARK    5  A    between atoms: C_15  and  C_16
REMARK    6  A    between atoms: N_17  and  N_18
REMARK    7  A    between atoms: N_18  and  C_19
REMARK    8  A    between atoms: C_23  and  C_24
REMARK                            x       y       z     vdW  Elec       q    Type
REMARK                         _______ _______ _______ _____ _____    ______ ____
ROOT
ATOM      1  C   UNL     1       9.220  13.507  18.988  0.00  0.00    +0.000 A 
ATOM      2  C   UNL     1      10.272  12.777  18.474  0.00  0.00    +0.000 A 
ATOM      3  C   UNL     1      10.202  11.450  18.798  0.00  0.00    +0.000 A 
ATOM      4  N   UNL     1      10.239  11.205  20.092  0.00  0.00    +0.000 NA
ATOM      5  C   UNL     1       9.405  11.949  20.818  0.00  0.00    +0.000 A 
ATOM      6  C   UNL     1       9.049  11.368  22.016  0.00  0.00    +0.000 A 
ATOM      7  C   UNL     1       8.131  11.966  22.861  0.00  0.00    +0.000 A 
ATOM      8  C   UNL     1       7.600  13.200  22.511  0.00  0.00    +0.000 A 
ATOM      9  C   UNL     1       7.900  13.782  21.257  0.00  0.00    +0.000 A 
ATOM     10  C   UNL     1       8.799  13.144  20.333  0.00  0.00    +0.000 A 
ENDROOT
BRANCH   1  12
ATOM     11  O   UNL     1       7.579  13.331  17.252  0.00  0.00    +0.000 OA
ATOM     12  C   UNL     1       8.358  14.061  17.861  0.00  0.00    +0.000 C 
ATOM     13  N   UNL     1       8.637  15.391  17.407  0.00  0.00    +0.000 N 
ATOM     14  H   UNL     1       8.218  15.659  16.521  0.00  0.00    +0.000 HD
BRANCH  13  15
ATOM     15  N   UNL     1       8.979  16.435  18.249  0.00  0.00    +0.000 NA
ATOM     16  C   UNL     1       8.052  17.085  18.909  0.00  0.00    +0.000 C 
BRANCH  16  17
ATOM     17  C   UNL     1       6.546  16.993  18.863  0.00  0.00    +0.000 C 
BRANCH  17  18
ATOM     18  C   UNL     1       5.846  16.446  20.086  0.00  0.00    +0.000 A 
ATOM     19  C   UNL     1       4.940  15.382  20.047  0.00  0.00    +0.000 A 
ATOM     20  C   UNL     1       4.344  14.917  21.225  0.00  0.00    +0.000 A 
ATOM     21  C   UNL     1       4.648  15.503  22.453  0.00  0.00    +0.000 A 
ATOM     22  C   UNL     1       5.577  16.534  22.513  0.00  0.00    +0.000 A 
ATOM     23  C   UNL     1       6.190  16.979  21.341  0.00  0.00    +0.000 A 
ENDBRANCH  17  18
ENDBRANCH  16  17
ENDBRANCH  13  15
ENDBRANCH   1  12
BRANCH   3  24
ATOM     24  C   UNL     1       9.036  10.649  18.243  0.00  0.00    +0.000 C 
ATOM     25  N   UNL     1       8.665   9.469  18.638  0.00  0.00    +0.000 NA
BRANCH  25  26
ATOM     26  N   UNL     1       7.787   8.858  17.796  0.00  0.00    +0.000 N 
ATOM     27  H   UNL     1       6.938   9.338  17.509  0.00  0.00    +0.000 HD
BRANCH  26  28
ATOM     28  C   UNL     1       7.678   7.456  17.767  0.00  0.00    +0.000 A 
ATOM     29  C   UNL     1       8.127   6.641  18.804  0.00  0.00    +0.000 A 
ATOM     30  C   UNL     1       7.902   5.264  18.800  0.00  0.00    +0.000 A 
ATOM     31  C   UNL     1       7.313   4.665  17.694  0.00  0.00    +0.000 A 
ATOM     32  C   UNL     1       6.970   5.437  16.577  0.00  0.00    +0.000 A 
ATOM     33  C   UNL     1       7.155   6.832  16.628  0.00  0.00    +0.000 A 
BRANCH  32  34
ATOM     34  C   UNL     1       6.422   4.793  15.330  0.00  0.00    +0.000 C 
ATOM     35  F   UNL     1       5.295   5.394  14.855  0.00  0.00    +0.000 F 
ATOM     36  F   UNL     1       7.314   4.812  14.300  0.00  0.00    +0.000 F 
ATOM     37  F   UNL     1       6.095   3.484  15.517  0.00  0.00    +0.000 F 
ENDBRANCH  32  34
ENDBRANCH  26  28
ENDBRANCH  25  26
ENDBRANCH   3  24
TORSDOF 8
ENDMDL
MODEL 3
REMARK VINA RESULT:      -8.5      0.167      1.054
REMARK  Name = 
REMARK  8 active torsions:
REMARK  status: ('A' for Active; 'I' for Inactive)
REMARK    1  A    between atoms: C_2  and  C_13
REMARK    2  A    between atoms: N_3  and  N_4
REMARK    3  A    between atoms: C_5  and  C_6
REMARK    4  A    between atoms: C_6  and  C_7
REMARK    5  A    between atoms: C_15  and  C_16
REMARK    6  A    between atoms: N_17  and  N_18
REMARK    7  A    between atoms: N_18  and  C_19
REMARK    8  A    between atoms: C_23  and  C_24
REMARK                            x       y       z     vdW  Elec       q    Type
REMARK                         _______ _______ _______ _____ _____    ______ ____
ROOT
ATOM      1  C   UNL     1       3.152   5.575  19.494  0.00  0.00    +0.000 A 
ATOM      2  C   UNL     1       4.522   5.508  19.643  0.00  0.00    +0.000 A 
ATOM      3  C   UNL     1       5.096   4.572  18.827  0.00  0.00    +0.000 A 
ATOM      4  N   UNL     1       4.686   3.339  19.043  0.00  0.00    +0.000 NA
ATOM      5  C   UNL     1       3.362   3.204  19.116  0.00  0.00    +0.000 A 
ATOM      6  C   UNL     1       2.919   1.935  18.808  0.00  0.00    +0.000 A 
ATOM      7  C   UNL     1       1.570   1.636  18.760  0.00  0.00    +0.000 A 
ATOM      8  C   UNL     1       0.650   2.627  19.077  0.00  0.00    +0.000 A 
ATOM      9  C   UNL     1       1.078   3.951  19.331  0.00  0.00    +0.000 A 
ATOM     10  C   UNL     1       2.474   4.299  19.319  0.00  0.00    +0.000 A 
ENDROOT
BRANCH   1  12
ATOM     11  O   UNL     1       3.037   7.240  17.776  0.00  0.00    +0.000 OA
ATOM     12  C   UNL     1       2.746   6.931  18.928  0.00  0.00    +0.000 C 
ATOM     13  N   UNL     1       2.207   7.894  19.842  0.00  0.00    +0.000 N 
ATOM     14  H   UNL     1       2.156   8.851  19.505  0.00  0.00    +0.000 HD
BRANCH  13  15
ATOM     15  N   UNL     1       1.342   7.574  20.875  0.00  0.00    +0.000 NA
ATOM     16  C   UNL     1       0.642   8.509  21.468  0.00  0.00    +0.000 C 
BRANCH  16  17
ATOM     17  C   UNL     1       0.656  10.012  21.315  0.00  0.00    +0.000 C 
BRANCH  17  18
ATOM     18  C   UNL     1      -0.373  10.625  20.395  0.00  0.00    +0.000 A 
ATOM     19  C   UNL     1      -1.249  11.643  20.785  0.00  0.00    +0.000 A 
ATOM     20  C   UNL     1      -2.165  12.177  19.872  0.00  0.00    +0.000 A 
ATOM     21  C   UNL     1      -2.216  11.705  18.560  0.00  0.00    +0.000 A 
ATOM     22  C   UNL     1      -1.325  10.723  18.146  0.00  0.00    +0.000 A 
ATOM     23  C   UNL     1      -0.395  10.211  19.051  0.00  0.00    +0.000 A 
ENDBRANCH  17  18
ENDBRANCH  16  17
ENDBRANCH  13  15
ENDBRANCH   1  12
BRANCH   3  24
ATOM     24  C   UNL     1       5.010   4.797  17.326  0.00  0.00    +0.000 C 
ATOM     25  N   UNL     1       5.803   5.545  16.621  0.00  0.00    +0.000 NA
BRANCH  25  26
ATOM     26  N   UNL     1       5.342   5.805  15.367  0.00  0.00    +0.000 N 
ATOM     27  H   UNL     1       4.405   6.177  15.235  0.00  0.00    +0.000 HD
BRANCH  26  28
ATOM     28  C   UNL     1       5.818   5.075  14.263  0.00  0.00    +0.000 A 
ATOM     29  C   UNL     1       7.172   4.969  13.952  0.00  0.00    +0.000 A 
ATOM     30  C   UNL     1       7.622   4.145  12.920  0.00  0.00    +0.000 A 
ATOM     31  C   UNL     1       6.703   3.493  12.108  0.00  0.00    +0.000 A 
ATOM     32  C   UNL     1       5.330   3.684  12.309  0.00  0.00    +0.000 A 
ATOM     33  C   UNL     1       4.901   4.474  13.391  0.00  0.00    +0.000 A 
BRANCH  32  34
ATOM     34  C   UNL     1       4.320   3.065  11.378  0.00  0.00    +0.000 C 
ATOM     35  F   UNL     1       3.975   3.869  10.333  0.00  0.00    +0.000 F 
ATOM     36  F   UNL     1       4.768   1.905  10.820  0.00  0.00    +0.000 F 
ATOM     37  F   UNL     1       3.153   2.750  12.005  0.00  0.00    +0.000 F 
ENDBRANCH  32  34
ENDBRANCH  26  28
ENDBRANCH  25  26
ENDBRANCH   3  24
TORSDOF 8
ENDMDL
MODEL 4
REMARK VINA RESULT:      -8.5      1.224      1.734
REMARK  Name = 
REMARK  8 active torsions:
REMARK  status: ('A' for Active; 'I' for Inactive)
REMARK    1  A    between atoms: C_2  and  C_13
REMARK    2  A    between atoms: N_3  and  N_4
REMARK    3  A    between atoms: C_5  and  C_6
REMARK    4  A    between atoms: C_6  and  C_7
REMARK    5  A    between atoms: C_15  and  C_16
REMARK    6  A    between atoms: N_17  and  N_18
REMARK    7  A    between atoms: N_18  and  C_19
REMARK    8  A    between atoms: C_23  and  C_24
REMARK                            x       y       z     vdW  Elec       q    Type
REMARK                         _______ _______ _______ _____ _____    ______ ____
ROOT
ATOM      1  C   UNL     1       3.555   5.946  19.369  0.00  0.00    +0.000 A 
ATOM      2  C   UNL     1       4.926   5.794  19.419  0.00  0.00    +0.000 A 
ATOM      3  C   UNL     1       5.335   4.555  19.008  0.00  0.00    +0.000 A 
ATOM      4  N   UNL     1       4.872   3.561  19.737  0.00  0.00    +0.000 NA
ATOM      5  C   UNL     1       3.560   3.611  19.969  0.00  0.00    +0.000 A 
ATOM      6  C   UNL     1       3.000   2.381  20.238  0.00  0.00    +0.000 A 
ATOM      7  C   UNL     1       1.637   2.237  20.427  0.00  0.00    +0.000 A 
ATOM      8  C   UNL     1       0.830   3.366  20.391  0.00  0.00    +0.000 A 
ATOM      9  C   UNL     1       1.373   4.627  20.051  0.00  0.00    +0.000 A 
ATOM     10  C   UNL     1       2.777   4.788  19.783  0.00  0.00    +0.000 A 
ENDROOT
BRANCH   1  12
ATOM     11  O   UNL     1       3.521   6.885  17.166  0.00  0.00    +0.000 OA
ATOM     12  C   UNL     1       3.176   7.003  18.339  0.00  0.00    +0.000 C 
ATOM     13  N   UNL     1       2.595   8.220  18.823  0.00  0.00    +0.000 N 
ATOM     14  H   UNL     1       2.559   8.993  18.164  0.00  0.00    +0.000 HD
BRANCH  13  15
ATOM     15  N   UNL     1       1.683   8.276  19.863  0.00  0.00    +0.000 NA
ATOM     16  C   UNL     1       0.734   9.179  19.865  0.00  0.00    +0.000 C 
BRANCH  16  17
ATOM     17  C   UNL     1       0.461  10.340  18.938  0.00  0.00    +0.000 C 
BRANCH  17  18
ATOM     18  C   UNL     1      -0.969  10.560  18.504  0.00  0.00    +0.000 A 
ATOM     19  C   UNL     1      -1.811  11.520  19.072  0.00  0.00    +0.000 A 
ATOM     20  C   UNL     1      -3.120  11.680  18.605  0.00  0.00    +0.000 A 
ATOM     21  C   UNL     1      -3.604  10.887  17.564  0.00  0.00    +0.000 A 
ATOM     22  C   UNL     1      -2.767   9.957  16.961  0.00  0.00    +0.000 A 
ATOM     23  C   UNL     1      -1.453   9.817  17.411  0.00  0.00    +0.000 A 
ENDBRANCH  17  18
ENDBRANCH  16  17
ENDBRANCH  13  15
ENDBRANCH   1  12
BRANCH   3  24
ATOM     24  C   UNL     1       5.084   4.176  17.557  0.00  0.00    +0.000 C 
ATOM     25  N   UNL     1       5.676   4.690  16.522  0.00  0.00    +0.000 NA
BRANCH  25  26
ATOM     26  N   UNL     1       5.073   4.390  15.339  0.00  0.00    +0.000 N 
ATOM     27  H   UNL     1       4.198   3.873  15.330  0.00  0.00    +0.000 HD
BRANCH  26  28
ATOM     28  C   UNL     1       5.834   4.230  14.167  0.00  0.00    +0.000 A 
ATOM     29  C   UNL     1       6.859   5.102  13.805  0.00  0.00    +0.000 A 
ATOM     30  C   UNL     1       7.671   4.854  12.698  0.00  0.00    +0.000 A 
ATOM     31  C   UNL     1       7.397   3.774  11.869  0.00  0.00    +0.000 A 
ATOM     32  C   UNL     1       6.292   2.953  12.129  0.00  0.00    +0.000 A 
ATOM     33  C   UNL     1       5.521   3.189  13.283  0.00  0.00    +0.000 A 
BRANCH  32  34
ATOM     34  C   UNL     1       5.919   1.837  11.188  0.00  0.00    +0.000 C 
ATOM     35  F   UNL     1       6.849   1.605  10.220  0.00  0.00    +0.000 F 
ATOM     36  F   UNL     1       5.749   0.648  11.832  0.00  0.00    +0.000 F 
ATOM     37  F   UNL     1       4.750   2.075  10.530  0.00  0.00    +0.000 F 
ENDBRANCH  32  34
ENDBRANCH  26  28
ENDBRANCH  25  26
ENDBRANCH   3  24
TORSDOF 8
ENDMDL
MODEL 5
REMARK VINA RESULT:      -8.5      6.838     12.042
REMARK  Name = 
REMARK  8 active torsions:
REMARK  status: ('A' for Active; 'I' for Inactive)
REMARK    1  A    between atoms: C_2  and  C_13
REMARK    2  A    between atoms: N_3  and  N_4
REMARK    3  A    between atoms: C_5  and  C_6
REMARK    4  A    between atoms: C_6  and  C_7
REMARK    5  A    between atoms: C_15  and  C_16
REMARK    6  A    between atoms: N_17  and  N_18
REMARK    7  A    between atoms: N_18  and  C_19
REMARK    8  A    between atoms: C_23  and  C_24
REMARK                            x       y       z     vdW  Elec       q    Type
REMARK                         _______ _______ _______ _____ _____    ______ ____
ROOT
ATOM      1  C   UNL     1       1.117  11.161  19.365  0.00  0.00    +0.000 A 
ATOM      2  C   UNL     1       0.753  10.874  20.665  0.00  0.00    +0.000 A 
ATOM      3  C   UNL     1       0.294  11.972  21.340  0.00  0.00    +0.000 A 
ATOM      4  N   UNL     1       1.175  12.944  21.457  0.00  0.00    +0.000 NA
ATOM      5  C   UNL     1       1.793  13.268  20.322  0.00  0.00    +0.000 A 
ATOM      6  C   UNL     1       2.277  14.559  20.306  0.00  0.00    +0.000 A 
ATOM      7  C   UNL     1       2.879  15.088  19.179  0.00  0.00    +0.000 A 
ATOM      8  C   UNL     1       3.039  14.281  18.061  0.00  0.00    +0.000 A 
ATOM      9  C   UNL     1       2.491  12.977  18.031  0.00  0.00    +0.000 A 
ATOM     10  C   UNL     1       1.801  12.431  19.169  0.00  0.00    +0.000 A 
ENDROOT
BRANCH   1  12
ATOM     11  O   UNL     1      -0.946  10.821  18.196  0.00  0.00    +0.000 OA
ATOM     12  C   UNL     1       0.204  10.434  18.385  0.00  0.00    +0.000 C 
ATOM     13  N   UNL     1       0.661   9.181  17.862  0.00  0.00    +0.000 N 
ATOM     14  H   UNL     1      -0.038   8.607  17.399  0.00  0.00    +0.000 HD
BRANCH  13  15
ATOM     15  N   UNL     1       1.975   8.930  17.504  0.00  0.00    +0.000 NA
ATOM     16  C   UNL     1       2.692   8.064  18.177  0.00  0.00    +0.000 C 
BRANCH  16  17
ATOM     17  C   UNL     1       2.391   7.286  19.436  0.00  0.00    +0.000 C 
BRANCH  17  18
ATOM     18  C   UNL     1       1.976   5.842  19.276  0.00  0.00    +0.000 A 
ATOM     19  C   UNL     1       2.041   5.149  18.063  0.00  0.00    +0.000 A 
ATOM     20  C   UNL     1       1.657   3.805  17.995  0.00  0.00    +0.000 A 
ATOM     21  C   UNL     1       1.209   3.136  19.134  0.00  0.00    +0.000 A 
ATOM     22  C   UNL     1       1.178   3.799  20.354  0.00  0.00    +0.000 A 
ATOM     23  C   UNL     1       1.585   5.131  20.426  0.00  0.00    +0.000 A 
ENDBRANCH  17  18
ENDBRANCH  16  17
ENDBRANCH  13  15
ENDBRANCH   1  12
BRANCH   3  24
ATOM     24  C   UNL     1      -0.992  12.615  20.846  0.00  0.00    +0.000 C 
ATOM     25  N   UNL     1      -2.149  12.032  20.753  0.00  0.00    +0.000 NA
BRANCH  25  26
ATOM     26  N   UNL     1      -3.059  12.730  20.020  0.00  0.00    +0.000 N 
ATOM     27  H   UNL     1      -2.769  13.553  19.498  0.00  0.00    +0.000 HD
BRANCH  26  28
ATOM     28  C   UNL     1      -4.416  12.748  20.389  0.00  0.00    +0.000 A 
ATOM     29  C   UNL     1      -5.453  12.767  19.459  0.00  0.00    +0.000 A 
ATOM     30  C   UNL     1      -6.788  12.668  19.851  0.00  0.00    +0.000 A 
ATOM     31  C   UNL     1      -7.110  12.657  21.202  0.00  0.00    +0.000 A 
ATOM     32  C   UNL     1      -6.100  12.771  22.166  0.00  0.00    +0.000 A 
ATOM     33  C   UNL     1      -4.757  12.812  21.746  0.00  0.00    +0.000 A 
BRANCH  32  34
ATOM     34  C   UNL     1      -6.436  12.860  23.632  0.00  0.00    +0.000 C 
ATOM     35  F   UNL     1      -6.839  14.100  24.025  0.00  0.00    +0.000 F 
ATOM     36  F   UNL     1      -7.443  12.013  23.987  0.00  0.00    +0.000 F 
ATOM     37  F   UNL     1      -5.381  12.540  24.432  0.00  0.00    +0.000 F 
ENDBRANCH  32  34
ENDBRANCH  26  28
ENDBRANCH  25  26
ENDBRANCH   3  24
TORSDOF 8
ENDMDL
MODEL 6
REMARK VINA RESULT:      -8.4      6.443     11.639
REMARK  Name = 
REMARK  8 active torsions:
REMARK  status: ('A' for Active; 'I' for Inactive)
REMARK    1  A    between atoms: C_2  and  C_13
REMARK    2  A    between atoms: N_3  and  N_4
REMARK    3  A    between atoms: C_5  and  C_6
REMARK    4  A    between atoms: C_6  and  C_7
REMARK    5  A    between atoms: C_15  and  C_16
REMARK    6  A    between atoms: N_17  and  N_18
REMARK    7  A    between atoms: N_18  and  C_19
REMARK    8  A    between atoms: C_23  and  C_24
REMARK                            x       y       z     vdW  Elec       q    Type
REMARK                         _______ _______ _______ _____ _____    ______ ____
ROOT
ATOM      1  C   UNL     1       0.989  10.406  19.162  0.00  0.00    +0.000 A 
ATOM      2  C   UNL     1       0.195  10.130  20.257  0.00  0.00    +0.000 A 
ATOM      3  C   UNL     1      -0.666  11.151  20.555  0.00  0.00    +0.000 A 
ATOM      4  N   UNL     1      -0.074  12.287  20.862  0.00  0.00    +0.000 NA
ATOM      5  C   UNL     1       0.879  12.660  20.008  0.00  0.00    +0.000 A 
ATOM      6  C   UNL     1       1.112  14.019  20.001  0.00  0.00    +0.000 A 
ATOM      7  C   UNL     1       2.014  14.589  19.121  0.00  0.00    +0.000 A 
ATOM      8  C   UNL     1       2.731  13.765  18.264  0.00  0.00    +0.000 A 
ATOM      9  C   UNL     1       2.461  12.377  18.208  0.00  0.00    +0.000 A 
ATOM     10  C   UNL     1       1.477  11.773  19.067  0.00  0.00    +0.000 A 
ENDROOT
BRANCH   1  12
ATOM     11  O   UNL     1      -0.320   9.630  17.312  0.00  0.00    +0.000 OA
ATOM     12  C   UNL     1       0.668   9.449  18.020  0.00  0.00    +0.000 C 
ATOM     13  N   UNL     1       1.428   8.238  17.938  0.00  0.00    +0.000 N 
ATOM     14  H   UNL     1       1.059   7.517  17.324  0.00  0.00    +0.000 HD
BRANCH  13  15
ATOM     15  N   UNL     1       2.785   8.163  18.204  0.00  0.00    +0.000 NA
ATOM     16  C   UNL     1       3.445   7.054  17.974  0.00  0.00    +0.000 C 
BRANCH  16  17
ATOM     17  C   UNL     1       2.976   5.688  17.536  0.00  0.00    +0.000 C 
BRANCH  17  18
ATOM     18  C   UNL     1       2.291   4.825  18.571  0.00  0.00    +0.000 A 
ATOM     19  C   UNL     1       2.183   5.175  19.920  0.00  0.00    +0.000 A 
ATOM     20  C   UNL     1       1.517   4.333  20.818  0.00  0.00    +0.000 A 
ATOM     21  C   UNL     1       0.950   3.136  20.381  0.00  0.00    +0.000 A 
ATOM     22  C   UNL     1       1.013   2.794  19.036  0.00  0.00    +0.000 A 
ATOM     23  C   UNL     1       1.655   3.647  18.138  0.00  0.00    +0.000 A 
ENDBRANCH  17  18
ENDBRANCH  16  17
ENDBRANCH  13  15
ENDBRANCH   1  12
BRANCH   3  24
ATOM     24  C   UNL     1      -1.740  11.488  19.534  0.00  0.00    +0.000 C 
ATOM     25  N   UNL     1      -2.513  12.531  19.558  0.00  0.00    +0.000 NA
BRANCH  25  26
ATOM     26  N   UNL     1      -3.570  12.452  18.703  0.00  0.00    +0.000 N 
ATOM     27  H   UNL     1      -3.648  13.105  17.928  0.00  0.00    +0.000 HD
BRANCH  26  28
ATOM     28  C   UNL     1      -4.807  11.944  19.137  0.00  0.00    +0.000 A 
ATOM     29  C   UNL     1      -5.557  11.038  18.390  0.00  0.00    +0.000 A 
ATOM     30  C   UNL     1      -6.724  10.463  18.896  0.00  0.00    +0.000 A 
ATOM     31  C   UNL     1      -7.216  10.874  20.128  0.00  0.00    +0.000 A 
ATOM     32  C   UNL     1      -6.559  11.881  20.846  0.00  0.00    +0.000 A 
ATOM     33  C   UNL     1      -5.354  12.404  20.342  0.00  0.00    +0.000 A 
BRANCH  32  34
ATOM     34  C   UNL     1      -7.131  12.410  22.135  0.00  0.00    +0.000 C 
ATOM     35  F   UNL     1      -6.184  12.783  23.041  0.00  0.00    +0.000 F 
ATOM     36  F   UNL     1      -7.914  13.508  21.945  0.00  0.00    +0.000 F 
ATOM     37  F   UNL     1      -7.916  11.498  22.774  0.00  0.00    +0.000 F 
ENDBRANCH  32  34
ENDBRANCH  26  28
ENDBRANCH  25  26
ENDBRANCH   3  24
TORSDOF 8
ENDMDL
MODEL 7
REMARK VINA RESULT:      -8.3      7.996     10.715
REMARK  Name = 
REMARK  8 active torsions:
REMARK  status: ('A' for Active; 'I' for Inactive)
REMARK    1  A    between atoms: C_2  and  C_13
REMARK    2  A    between atoms: N_3  and  N_4
REMARK    3  A    between atoms: C_5  and  C_6
REMARK    4  A    between atoms: C_6  and  C_7
REMARK    5  A    between atoms: C_15  and  C_16
REMARK    6  A    between atoms: N_17  and  N_18
REMARK    7  A    between atoms: N_18  and  C_19
REMARK    8  A    between atoms: C_23  and  C_24
REMARK                            x       y       z     vdW  Elec       q    Type
REMARK                         _______ _______ _______ _____ _____    ______ ____
ROOT
ATOM      1  C   UNL     1      -1.474  11.541  19.603  0.00  0.00    +0.000 A 
ATOM      2  C   UNL     1      -2.445  12.232  20.298  0.00  0.00    +0.000 A 
ATOM      3  C   UNL     1      -2.010  12.669  21.519  0.00  0.00    +0.000 A 
ATOM      4  N   UNL     1      -1.646  11.706  22.342  0.00  0.00    +0.000 NA
ATOM      5  C   UNL     1      -0.827  10.803  21.804  0.00  0.00    +0.000 A 
ATOM      6  C   UNL     1      -0.047  10.145  22.731  0.00  0.00    +0.000 A 
ATOM      7  C   UNL     1       0.914   9.229  22.343  0.00  0.00    +0.000 A 
ATOM      8  C   UNL     1       1.057   8.936  20.994  0.00  0.00    +0.000 A 
ATOM      9  C   UNL     1       0.315   9.646  20.021  0.00  0.00    +0.000 A 
ATOM     10  C   UNL     1      -0.641  10.652  20.399  0.00  0.00    +0.000 A 
ENDROOT
BRANCH   1  12
ATOM     11  O   UNL     1      -0.199  13.151  18.370  0.00  0.00    +0.000 OA
ATOM     12  C   UNL     1      -1.084  12.300  18.340  0.00  0.00    +0.000 C 
ATOM     13  N   UNL     1      -1.916  12.135  17.186  0.00  0.00    +0.000 N 
ATOM     14  H   UNL     1      -1.782  12.808  16.437  0.00  0.00    +0.000 HD
BRANCH  13  15
ATOM     15  N   UNL     1      -2.484  10.928  16.813  0.00  0.00    +0.000 NA
ATOM     16  C   UNL     1      -3.779  10.829  16.642  0.00  0.00    +0.000 C 
BRANCH  16  17
ATOM     17  C   UNL     1      -4.895  11.817  16.886  0.00  0.00    +0.000 C 
BRANCH  17  18
ATOM     18  C   UNL     1      -5.610  11.742  18.215  0.00  0.00    +0.000 A 
ATOM     19  C   UNL     1      -5.635  12.790  19.139  0.00  0.00    +0.000 A 
ATOM     20  C   UNL     1      -6.335  12.655  20.344  0.00  0.00    +0.000 A 
ATOM     21  C   UNL     1      -7.021  11.477  20.638  0.00  0.00    +0.000 A 
ATOM     22  C   UNL     1      -7.040  10.442  19.711  0.00  0.00    +0.000 A 
ATOM     23  C   UNL     1      -6.363  10.588  18.500  0.00  0.00    +0.000 A 
ENDBRANCH  17  18
ENDBRANCH  16  17
ENDBRANCH  13  15
ENDBRANCH   1  12
BRANCH   3  24
ATOM     24  C   UNL     1      -0.892  13.699  21.542  0.00  0.00    +0.000 C 
ATOM     25  N   UNL     1      -1.040  14.986  21.454  0.00  0.00    +0.000 NA
BRANCH  25  26
ATOM     26  N   UNL     1       0.119  15.657  21.210  0.00  0.00    +0.000 N 
ATOM     27  H   UNL     1       0.660  16.037  21.982  0.00  0.00    +0.000 HD
BRANCH  26  28
ATOM     28  C   UNL     1       0.307  16.345  19.998  0.00  0.00    +0.000 A 
ATOM     29  C   UNL     1      -0.666  17.169  19.437  0.00  0.00    +0.000 A 
ATOM     30  C   UNL     1      -0.410  17.929  18.295  0.00  0.00    +0.000 A 
ATOM     31  C   UNL     1       0.803  17.791  17.633  0.00  0.00    +0.000 A 
ATOM     32  C   UNL     1       1.754  16.872  18.095  0.00  0.00    +0.000 A 
ATOM     33  C   UNL     1       1.495  16.159  19.280  0.00  0.00    +0.000 A 
BRANCH  32  34
ATOM     34  C   UNL     1       3.033  16.635  17.335  0.00  0.00    +0.000 C 
ATOM     35  F   UNL     1       3.065  17.243  16.116  0.00  0.00    +0.000 F 
ATOM     36  F   UNL     1       4.128  17.092  18.005  0.00  0.00    +0.000 F 
ATOM     37  F   UNL     1       3.266  15.314  17.098  0.00  0.00    +0.000 F 
ENDBRANCH  32  34
ENDBRANCH  26  28
ENDBRANCH  25  26
ENDBRANCH   3  24
TORSDOF 8
ENDMDL
MODEL 8
REMARK VINA RESULT:      -8.3      0.805      1.282
REMARK  Name = 
REMARK  8 active torsions:
REMARK  status: ('A' for Active; 'I' for Inactive)
REMARK    1  A    between atoms: C_2  and  C_13
REMARK    2  A    between atoms: N_3  and  N_4
REMARK    3  A    between atoms: C_5  and  C_6
REMARK    4  A    between atoms: C_6  and  C_7
REMARK    5  A    between atoms: C_15  and  C_16
REMARK    6  A    between atoms: N_17  and  N_18
REMARK    7  A    between atoms: N_18  and  C_19
REMARK    8  A    between atoms: C_23  and  C_24
REMARK                            x       y       z     vdW  Elec       q    Type
REMARK                         _______ _______ _______ _____ _____    ______ ____
ROOT
ATOM      1  C   UNL     1       3.093   5.864  19.603  0.00  0.00    +0.000 A 
ATOM      2  C   UNL     1       4.472   5.846  19.562  0.00  0.00    +0.000 A 
ATOM      3  C   UNL     1       4.964   4.873  18.735  0.00  0.00    +0.000 A 
ATOM      4  N   UNL     1       4.634   3.647  19.085  0.00  0.00    +0.000 NA
ATOM      5  C   UNL     1       3.339   3.479  19.352  0.00  0.00    +0.000 A 
ATOM      6  C   UNL     1       2.907   2.180  19.190  0.00  0.00    +0.000 A 
ATOM      7  C   UNL     1       1.576   1.840  19.351  0.00  0.00    +0.000 A 
ATOM      8  C   UNL     1       0.672   2.823  19.730  0.00  0.00    +0.000 A 
ATOM      9  C   UNL     1       1.080   4.173  19.836  0.00  0.00    +0.000 A 
ATOM     10  C   UNL     1       2.446   4.560  19.606  0.00  0.00    +0.000 A 
ENDROOT
BRANCH   1  12
ATOM     11  O   UNL     1       2.774   7.453  17.839  0.00  0.00    +0.000 OA
ATOM     12  C   UNL     1       2.562   7.166  19.014  0.00  0.00    +0.000 C 
ATOM     13  N   UNL     1       1.998   8.120  19.922  0.00  0.00    +0.000 N 
ATOM     14  H   UNL     1       1.860   9.058  19.557  0.00  0.00    +0.000 HD
BRANCH  13  15
ATOM     15  N   UNL     1       1.209   7.776  21.007  0.00  0.00    +0.000 NA
ATOM     16  C   UNL     1       0.526   8.692  21.647  0.00  0.00    +0.000 C 
BRANCH  16  17
ATOM     17  C   UNL     1       0.493  10.195  21.499  0.00  0.00    +0.000 C 
BRANCH  17  18
ATOM     18  C   UNL     1      -0.573  10.781  20.602  0.00  0.00    +0.000 A 
ATOM     19  C   UNL     1      -1.353  11.887  20.949  0.00  0.00    +0.000 A 
ATOM     20  C   UNL     1      -2.310  12.387  20.058  0.00  0.00    +0.000 A 
ATOM     21  C   UNL     1      -2.496  11.792  18.810  0.00  0.00    +0.000 A 
ATOM     22  C   UNL     1      -1.700  10.717  18.434  0.00  0.00    +0.000 A 
ATOM     23  C   UNL     1      -0.729  10.237  19.314  0.00  0.00    +0.000 A 
ENDBRANCH  17  18
ENDBRANCH  16  17
ENDBRANCH  13  15
ENDBRANCH   1  12
BRANCH   3  24
ATOM     24  C   UNL     1       4.663   4.992  17.250  0.00  0.00    +0.000 C 
ATOM     25  N   UNL     1       5.248   4.330  16.299  0.00  0.00    +0.000 NA
BRANCH  25  26
ATOM     26  N   UNL     1       5.003   4.824  15.054  0.00  0.00    +0.000 N 
ATOM     27  H   UNL     1       4.055   5.074  14.782  0.00  0.00    +0.000 HD
BRANCH  26  28
ATOM     28  C   UNL     1       5.825   4.474  13.968  0.00  0.00    +0.000 A 
ATOM     29  C   UNL     1       6.968   5.192  13.622  0.00  0.00    +0.000 A 
ATOM     30  C   UNL     1       7.827   4.756  12.613  0.00  0.00    +0.000 A 
ATOM     31  C   UNL     1       7.492   3.639  11.858  0.00  0.00    +0.000 A 
ATOM     32  C   UNL     1       6.283   2.971  12.091  0.00  0.00    +0.000 A 
ATOM     33  C   UNL     1       5.461   3.396  13.152  0.00  0.00    +0.000 A 
BRANCH  32  34
ATOM     34  C   UNL     1       5.856   1.819  11.219  0.00  0.00    +0.000 C 
ATOM     35  F   UNL     1       6.697   1.584  10.174  0.00  0.00    +0.000 F 
ATOM     36  F   UNL     1       5.782   0.645  11.907  0.00  0.00    +0.000 F 
ATOM     37  F   UNL     1       4.624   2.008  10.669  0.00  0.00    +0.000 F 
ENDBRANCH  32  34
ENDBRANCH  26  28
ENDBRANCH  25  26
ENDBRANCH   3  24
TORSDOF 8
ENDMDL
MODEL 9
REMARK VINA RESULT:      -8.3      6.487     11.803
REMARK  Name = 
REMARK  8 active torsions:
REMARK  status: ('A' for Active; 'I' for Inactive)
REMARK    1  A    between atoms: C_2  and  C_13
REMARK    2  A    between atoms: N_3  and  N_4
REMARK    3  A    between atoms: C_5  and  C_6
REMARK    4  A    between atoms: C_6  and  C_7
REMARK    5  A    between atoms: C_15  and  C_16
REMARK    6  A    between atoms: N_17  and  N_18
REMARK    7  A    between atoms: N_18  and  C_19
REMARK    8  A    between atoms: C_23  and  C_24
REMARK                            x       y       z     vdW  Elec       q    Type
REMARK                         _______ _______ _______ _____ _____    ______ ____
ROOT
ATOM      1  C   UNL     1       0.056  10.365  18.741  0.00  0.00    +0.000 A 
ATOM      2  C   UNL     1       0.737  11.562  18.815  0.00  0.00    +0.000 A 
ATOM      3  C   UNL     1      -0.059  12.599  19.219  0.00  0.00    +0.000 A 
ATOM      4  N   UNL     1      -1.070  12.851  18.413  0.00  0.00    +0.000 NA
ATOM      5  C   UNL     1      -1.776  11.777  18.061  0.00  0.00    +0.000 A 
ATOM      6  C   UNL     1      -3.073  12.065  17.695  0.00  0.00    +0.000 A 
ATOM      7  C   UNL     1      -3.969  11.062  17.373  0.00  0.00    +0.000 A 
ATOM      8  C   UNL     1      -3.532   9.744  17.373  0.00  0.00    +0.000 A 
ATOM      9  C   UNL     1      -2.226   9.420  17.808  0.00  0.00    +0.000 A 
ATOM     10  C   UNL     1      -1.299  10.443  18.214  0.00  0.00    +0.000 A 
ENDROOT
BRANCH   1  12
ATOM     11  O   UNL     1       0.045   9.239  20.855  0.00  0.00    +0.000 OA
ATOM     12  C   UNL     1       0.600   9.379  19.768  0.00  0.00    +0.000 C 
ATOM     13  N   UNL     1       1.879   8.789  19.505  0.00  0.00    +0.000 N 
ATOM     14  H   UNL     1       2.326   8.321  20.288  0.00  0.00    +0.000 HD
BRANCH  13  15
ATOM     15  N   UNL     1       2.295   8.385  18.248  0.00  0.00    +0.000 NA
ATOM     16  C   UNL     1       2.868   7.218  18.082  0.00  0.00    +0.000 C 
BRANCH  16  17
ATOM     17  C   UNL     1       3.298   6.169  19.079  0.00  0.00    +0.000 C 
BRANCH  17  18
ATOM     18  C   UNL     1       2.404   4.962  19.246  0.00  0.00    +0.000 A 
ATOM     19  C   UNL     1       1.931   4.197  18.176  0.00  0.00    +0.000 A 
ATOM     20  C   UNL     1       1.121   3.080  18.409  0.00  0.00    +0.000 A 
ATOM     21  C   UNL     1       0.776   2.712  19.709  0.00  0.00    +0.000 A 
ATOM     22  C   UNL     1       1.271   3.438  20.785  0.00  0.00    +0.000 A 
ATOM     23  C   UNL     1       2.101   4.536  20.552  0.00  0.00    +0.000 A 
ENDBRANCH  17  18
ENDBRANCH  16  17
ENDBRANCH  13  15
ENDBRANCH   1  12
BRANCH   3  24
ATOM     24  C   UNL     1      -0.634  12.540  20.625  0.00  0.00    +0.000 C 
ATOM     25  N   UNL     1       0.049  12.440  21.724  0.00  0.00    +0.000 NA
BRANCH  25  26
ATOM     26  N   UNL     1      -0.703  12.118  22.812  0.00  0.00    +0.000 N 
ATOM     27  H   UNL     1      -0.911  11.144  23.017  0.00  0.00    +0.000 HD
BRANCH  26  28
ATOM     28  C   UNL     1      -1.665  13.014  23.310  0.00  0.00    +0.000 A 
ATOM     29  C   UNL     1      -1.338  14.272  23.813  0.00  0.00    +0.000 A 
ATOM     30  C   UNL     1      -2.321  15.185  24.194  0.00  0.00    +0.000 A 
ATOM     31  C   UNL     1      -3.658  14.806  24.176  0.00  0.00    +0.000 A 
ATOM     32  C   UNL     1      -4.013  13.504  23.802  0.00  0.00    +0.000 A 
ATOM     33  C   UNL     1      -3.007  12.619  23.368  0.00  0.00    +0.000 A 
BRANCH  32  34
ATOM     34  C   UNL     1      -5.445  13.043  23.871  0.00  0.00    +0.000 C 
ATOM     35  F   UNL     1      -6.326  14.039  24.168  0.00  0.00    +0.000 F 
ATOM     36  F   UNL     1      -5.876  12.507  22.694  0.00  0.00    +0.000 F 
ATOM     37  F   UNL     1      -5.642  12.080  24.813  0.00  0.00    +0.000 F 
ENDBRANCH  32  34
ENDBRANCH  26  28
ENDBRANCH  25  26
ENDBRANCH   3  24
TORSDOF 8
ENDMDL
