MODEL 1
REMARK VINA RESULT:      -7.7      0.000      0.000
REMARK  Name = 
REMARK  6 active torsions:
REMARK  status: ('A' for Active; 'I' for Inactive)
REMARK    1  A    between atoms: C_2  and  O_3
REMARK    2  A    between atoms: C_2  and  C_18
REMARK    3  A    between atoms: O_3  and  C_4
REMARK    4  A    between atoms: C_4  and  C_5
REMARK    5  A    between atoms: N_7  and  C_8
REMARK    6  A    between atoms: C_8  and  C_9
REMARK                            x       y       z     vdW  Elec       q    Type
REMARK                         _______ _______ _______ _____ _____    ______ ____
ROOT
ATOM      1  C   UNL     1       5.579   5.515  17.862  0.00  0.00    +0.000 A 
ATOM      2  C   UNL     1       4.830   4.362  17.928  0.00  0.00    +0.000 A 
ATOM      3  N   UNL     1       5.111   3.851  19.160  0.00  0.00    +0.000 N 
ATOM      4  N   UNL     1       5.986   4.632  19.821  0.00  0.00    +0.000 NA
ATOM      5  N   UNL     1       6.275   5.664  19.033  0.00  0.00    +0.000 NA
ENDROOT
BRANCH   1   6
ATOM      6  C   UNL     1       5.699   6.481  16.735  0.00  0.00    +0.000 C 
BRANCH   6   7
ATOM      7  O   UNL     1       6.964   6.385  16.044  0.00  0.00    +0.000 OA
BRANCH   7   9
ATOM      8  O   UNL     1       8.035   4.421  16.561  0.00  0.00    +0.000 OA
ATOM      9  C   UNL     1       7.396   5.125  15.795  0.00  0.00    +0.000 C 
BRANCH   9  10
ATOM     10  C   UNL     1       7.016   4.690  14.432  0.00  0.00    +0.000 A 
ATOM     11  C   UNL     1       7.730   5.027  13.277  0.00  0.00    +0.000 A 
ATOM     12  C   UNL     1       7.308   4.545  12.040  0.00  0.00    +0.000 A 
ATOM     13  C   UNL     1       6.180   3.735  11.994  0.00  0.00    +0.000 A 
ATOM     14  N   UNL     1       5.460   3.398  13.083  0.00  0.00    +0.000 NA
ATOM     15  C   UNL     1       5.892   3.887  14.278  0.00  0.00    +0.000 A 
ENDBRANCH   9  10
ENDBRANCH   7   9
ENDBRANCH   6   7
ENDBRANCH   1   6
BRANCH   3  16
ATOM     16  C   UNL     1       4.629   2.605  19.730  0.00  0.00    +0.000 C 
BRANCH  16  17
ATOM     17  C   UNL     1       3.130   2.607  19.825  0.00  0.00    +0.000 A 
ATOM     18  C   UNL     1       2.476   3.129  20.950  0.00  0.00    +0.000 A 
ATOM     19  C   UNL     1       1.084   3.237  20.967  0.00  0.00    +0.000 A 
ATOM     20  C   UNL     1       0.332   2.827  19.865  0.00  0.00    +0.000 A 
ATOM     21  C   UNL     1       0.971   2.274  18.757  0.00  0.00    +0.000 A 
ATOM     22  C   UNL     1       2.357   2.164  18.748  0.00  0.00    +0.000 A 
ATOM     23  F   UNL     1       2.958   1.635  17.673  0.00  0.00    +0.000 F 
ENDBRANCH  16  17
ENDBRANCH   3  16
TORSDOF 6
ENDMDL
MODEL 2
REMARK VINA RESULT:      -7.6      2.936      7.222
REMARK  Name = 
REMARK  6 active torsions:
REMARK  status: ('A' for Active; 'I' for Inactive)
REMARK    1  A    between atoms: C_2  and  O_3
REMARK    2  A    between atoms: C_2  and  C_18
REMARK    3  A    between atoms: O_3  and  C_4
REMARK    4  A    between atoms: C_4  and  C_5
REMARK    5  A    between atoms: N_7  and  C_8
REMARK    6  A    between atoms: C_8  and  C_9
REMARK                            x       y       z     vdW  Elec       q    Type
REMARK                         _______ _______ _______ _____ _____    ______ ____
ROOT
ATOM      1  C   UNL     1       4.403   6.202  17.571  0.00  0.00    +0.000 A 
ATOM      2  C   UNL     1       5.535   5.428  17.461  0.00  0.00    +0.000 A 
ATOM      3  N   UNL     1       6.096   5.824  16.283  0.00  0.00    +0.000 N 
ATOM      4  N   UNL     1       5.357   6.780  15.691  0.00  0.00    +0.000 NA
ATOM      5  N   UNL     1       4.315   7.026  16.480  0.00  0.00    +0.000 NA
ENDROOT
BRANCH   1   6
ATOM      6  C   UNL     1       3.371   6.189  18.645  0.00  0.00    +0.000 C 
BRANCH   6   7
ATOM      7  O   UNL     1       2.053   5.863  18.156  0.00  0.00    +0.000 OA
BRANCH   7   9
ATOM      8  O   UNL     1       1.387   3.966  17.047  0.00  0.00    +0.000 OA
ATOM      9  C   UNL     1       1.783   4.539  18.050  0.00  0.00    +0.000 C 
BRANCH   9  10
ATOM     10  C   UNL     1       2.003   3.845  19.339  0.00  0.00    +0.000 A 
ATOM     11  C   UNL     1       1.078   3.834  20.388  0.00  0.00    +0.000 A 
ATOM     12  C   UNL     1       1.365   3.127  21.553  0.00  0.00    +0.000 A 
ATOM     13  C   UNL     1       2.574   2.447  21.635  0.00  0.00    +0.000 A 
ATOM     14  N   UNL     1       3.495   2.444  20.650  0.00  0.00    +0.000 NA
ATOM     15  C   UNL     1       3.190   3.147  19.525  0.00  0.00    +0.000 A 
ENDBRANCH   9  10
ENDBRANCH   7   9
ENDBRANCH   6   7
ENDBRANCH   1   6
BRANCH   3  16
ATOM     16  C   UNL     1       7.288   5.287  15.648  0.00  0.00    +0.000 C 
BRANCH  16  17
ATOM     17  C   UNL     1       6.950   4.651  14.331  0.00  0.00    +0.000 A 
ATOM     18  C   UNL     1       5.860   3.780  14.205  0.00  0.00    +0.000 A 
ATOM     19  C   UNL     1       5.486   3.296  12.949  0.00  0.00    +0.000 A 
ATOM     20  C   UNL     1       6.194   3.678  11.809  0.00  0.00    +0.000 A 
ATOM     21  C   UNL     1       7.301   4.516  11.928  0.00  0.00    +0.000 A 
ATOM     22  C   UNL     1       7.671   4.989  13.182  0.00  0.00    +0.000 A 
ATOM     23  F   UNL     1       8.735   5.799  13.281  0.00  0.00    +0.000 F 
ENDBRANCH  16  17
ENDBRANCH   3  16
TORSDOF 6
ENDMDL
MODEL 3
REMARK VINA RESULT:      -7.6      3.574      6.373
REMARK  Name = 
REMARK  6 active torsions:
REMARK  status: ('A' for Active; 'I' for Inactive)
REMARK    1  A    between atoms: C_2  and  O_3
REMARK    2  A    between atoms: C_2  and  C_18
REMARK    3  A    between atoms: O_3  and  C_4
REMARK    4  A    between atoms: C_4  and  C_5
REMARK    5  A    between atoms: N_7  and  C_8
REMARK    6  A    between atoms: C_8  and  C_9
REMARK                            x       y       z     vdW  Elec       q    Type
REMARK                         _______ _______ _______ _____ _____    ______ ____
ROOT
ATOM      1  C   UNL     1       2.360   6.472  19.778  0.00  0.00    +0.000 A 
ATOM      2  C   UNL     1       3.288   6.003  18.877  0.00  0.00    +0.000 A 
ATOM      3  N   UNL     1       3.413   7.013  17.970  0.00  0.00    +0.000 N 
ATOM      4  N   UNL     1       2.608   8.045  18.280  0.00  0.00    +0.000 NA
ATOM      5  N   UNL     1       1.959   7.726  19.396  0.00  0.00    +0.000 NA
ENDROOT
BRANCH   1   6
ATOM      6  C   UNL     1       1.800   5.787  20.976  0.00  0.00    +0.000 C 
BRANCH   6   7
ATOM      7  O   UNL     1       0.922   4.691  20.639  0.00  0.00    +0.000 OA
BRANCH   7   9
ATOM      8  O   UNL     1       1.190   2.903  22.053  0.00  0.00    +0.000 OA
ATOM      9  C   UNL     1       1.371   3.460  20.981  0.00  0.00    +0.000 C 
BRANCH   9  10
ATOM     10  C   UNL     1       2.154   2.853  19.882  0.00  0.00    +0.000 A 
ATOM     11  C   UNL     1       1.659   2.651  18.589  0.00  0.00    +0.000 A 
ATOM     12  C   UNL     1       2.484   2.097  17.613  0.00  0.00    +0.000 A 
ATOM     13  C   UNL     1       3.787   1.761  17.960  0.00  0.00    +0.000 A 
ATOM     14  N   UNL     1       4.296   1.930  19.197  0.00  0.00    +0.000 NA
ATOM     15  C   UNL     1       3.466   2.469  20.131  0.00  0.00    +0.000 A 
ENDBRANCH   9  10
ENDBRANCH   7   9
ENDBRANCH   6   7
ENDBRANCH   1   6
BRANCH   3  16
ATOM     16  C   UNL     1       4.228   7.023  16.767  0.00  0.00    +0.000 C 
BRANCH  16  17
ATOM     17  C   UNL     1       5.485   6.228  16.969  0.00  0.00    +0.000 A 
ATOM     18  C   UNL     1       6.554   6.739  17.717  0.00  0.00    +0.000 A 
ATOM     19  C   UNL     1       7.663   5.938  17.999  0.00  0.00    +0.000 A 
ATOM     20  C   UNL     1       7.715   4.621  17.538  0.00  0.00    +0.000 A 
ATOM     21  C   UNL     1       6.674   4.116  16.763  0.00  0.00    +0.000 A 
ATOM     22  C   UNL     1       5.576   4.921  16.481  0.00  0.00    +0.000 A 
ATOM     23  F   UNL     1       4.578   4.419  15.739  0.00  0.00    +0.000 F 
ENDBRANCH  16  17
ENDBRANCH   3  16
TORSDOF 6
ENDMDL
MODEL 4
REMARK VINA RESULT:      -7.6      1.782      2.157
REMARK  Name = 
REMARK  6 active torsions:
REMARK  status: ('A' for Active; 'I' for Inactive)
REMARK    1  A    between atoms: C_2  and  O_3
REMARK    2  A    between atoms: C_2  and  C_18
REMARK    3  A    between atoms: O_3  and  C_4
REMARK    4  A    between atoms: C_4  and  C_5
REMARK    5  A    between atoms: N_7  and  C_8
REMARK    6  A    between atoms: C_8  and  C_9
REMARK                            x       y       z     vdW  Elec       q    Type
REMARK                         _______ _______ _______ _____ _____    ______ ____
ROOT
ATOM      1  C   UNL     1       4.827   6.605  17.489  0.00  0.00    +0.000 A 
ATOM      2  C   UNL     1       4.129   5.420  17.512  0.00  0.00    +0.000 A 
ATOM      3  N   UNL     1       2.833   5.800  17.704  0.00  0.00    +0.000 N 
ATOM      4  N   UNL     1       2.730   7.137  17.801  0.00  0.00    +0.000 NA
ATOM      5  N   UNL     1       3.951   7.645  17.663  0.00  0.00    +0.000 NA
ENDROOT
BRANCH   1   6
ATOM      6  C   UNL     1       6.294   6.815  17.338  0.00  0.00    +0.000 C 
BRANCH   6   7
ATOM      7  O   UNL     1       6.780   6.468  16.024  0.00  0.00    +0.000 OA
BRANCH   7   9
ATOM      8  O   UNL     1       7.844   4.559  16.729  0.00  0.00    +0.000 OA
ATOM      9  C   UNL     1       7.230   5.197  15.887  0.00  0.00    +0.000 C 
BRANCH   9  10
ATOM     10  C   UNL     1       6.907   4.657  14.548  0.00  0.00    +0.000 A 
ATOM     11  C   UNL     1       5.832   3.799  14.290  0.00  0.00    +0.000 A 
ATOM     12  C   UNL     1       5.593   3.366  12.988  0.00  0.00    +0.000 A 
ATOM     13  C   UNL     1       6.437   3.807  11.977  0.00  0.00    +0.000 A 
ATOM     14  N   UNL     1       7.489   4.624  12.188  0.00  0.00    +0.000 NA
ATOM     15  C   UNL     1       7.702   5.028  13.470  0.00  0.00    +0.000 A 
ENDBRANCH   9  10
ENDBRANCH   7   9
ENDBRANCH   6   7
ENDBRANCH   1   6
BRANCH   3  16
ATOM     16  C   UNL     1       1.675   4.937  17.863  0.00  0.00    +0.000 C 
BRANCH  16  17
ATOM     17  C   UNL     1       1.807   4.089  19.095  0.00  0.00    +0.000 A 
ATOM     18  C   UNL     1       1.842   4.665  20.372  0.00  0.00    +0.000 A 
ATOM     19  C   UNL     1       1.839   3.856  21.510  0.00  0.00    +0.000 A 
ATOM     20  C   UNL     1       1.801   2.466  21.385  0.00  0.00    +0.000 A 
ATOM     21  C   UNL     1       1.802   1.883  20.120  0.00  0.00    +0.000 A 
ATOM     22  C   UNL     1       1.811   2.695  18.991  0.00  0.00    +0.000 A 
ATOM     23  F   UNL     1       1.806   2.120  17.779  0.00  0.00    +0.000 F 
ENDBRANCH  16  17
ENDBRANCH   3  16
TORSDOF 6
ENDMDL
MODEL 5
REMARK VINA RESULT:      -7.5      1.811      2.260
REMARK  Name = 
REMARK  6 active torsions:
REMARK  status: ('A' for Active; 'I' for Inactive)
REMARK    1  A    between atoms: C_2  and  O_3
REMARK    2  A    between atoms: C_2  and  C_18
REMARK    3  A    between atoms: O_3  and  C_4
REMARK    4  A    between atoms: C_4  and  C_5
REMARK    5  A    between atoms: N_7  and  C_8
REMARK    6  A    between atoms: C_8  and  C_9
REMARK                            x       y       z     vdW  Elec       q    Type
REMARK                         _______ _______ _______ _____ _____    ______ ____
ROOT
ATOM      1  C   UNL     1       6.021   5.083  16.852  0.00  0.00    +0.000 A 
ATOM      2  C   UNL     1       4.716   5.519  16.843  0.00  0.00    +0.000 A 
ATOM      3  N   UNL     1       4.408   5.677  18.162  0.00  0.00    +0.000 N 
ATOM      4  N   UNL     1       5.452   5.353  18.946  0.00  0.00    +0.000 NA
ATOM      5  N   UNL     1       6.454   4.993  18.150  0.00  0.00    +0.000 NA
ENDROOT
BRANCH   1   6
ATOM      6  C   UNL     1       6.885   4.715  15.697  0.00  0.00    +0.000 C 
BRANCH   6   7
ATOM      7  O   UNL     1       6.204   4.824  14.428  0.00  0.00    +0.000 OA
BRANCH   7   9
ATOM      8  O   UNL     1       7.900   5.562  13.066  0.00  0.00    +0.000 OA
ATOM      9  C   UNL     1       7.002   4.778  13.334  0.00  0.00    +0.000 C 
BRANCH   9  10
ATOM     10  C   UNL     1       6.637   3.645  12.454  0.00  0.00    +0.000 A 
ATOM     11  C   UNL     1       7.569   2.825  11.808  0.00  0.00    +0.000 A 
ATOM     12  C   UNL     1       7.126   1.765  11.022  0.00  0.00    +0.000 A 
ATOM     13  C   UNL     1       5.758   1.553  10.904  0.00  0.00    +0.000 A 
ATOM     14  N   UNL     1       4.830   2.328  11.501  0.00  0.00    +0.000 NA
ATOM     15  C   UNL     1       5.291   3.359  12.260  0.00  0.00    +0.000 A 
ENDBRANCH   9  10
ENDBRANCH   7   9
ENDBRANCH   6   7
ENDBRANCH   1   6
BRANCH   3  16
ATOM     16  C   UNL     1       3.128   6.068  18.729  0.00  0.00    +0.000 C 
BRANCH  16  17
ATOM     17  C   UNL     1       2.450   4.895  19.375  0.00  0.00    +0.000 A 
ATOM     18  C   UNL     1       2.537   4.679  20.757  0.00  0.00    +0.000 A 
ATOM     19  C   UNL     1       1.799   3.656  21.357  0.00  0.00    +0.000 A 
ATOM     20  C   UNL     1       0.968   2.842  20.586  0.00  0.00    +0.000 A 
ATOM     21  C   UNL     1       0.902   3.027  19.207  0.00  0.00    +0.000 A 
ATOM     22  C   UNL     1       1.645   4.043  18.614  0.00  0.00    +0.000 A 
ATOM     23  F   UNL     1       1.567   4.212  17.287  0.00  0.00    +0.000 F 
ENDBRANCH  16  17
ENDBRANCH   3  16
TORSDOF 6
ENDMDL
MODEL 6
REMARK VINA RESULT:      -7.5      2.004      2.360
REMARK  Name = 
REMARK  6 active torsions:
REMARK  status: ('A' for Active; 'I' for Inactive)
REMARK    1  A    between atoms: C_2  and  O_3
REMARK    2  A    between atoms: C_2  and  C_18
REMARK    3  A    between atoms: O_3  and  C_4
REMARK    4  A    between atoms: C_4  and  C_5
REMARK    5  A    between atoms: N_7  and  C_8
REMARK    6  A    between atoms: C_8  and  C_9
REMARK                            x       y       z     vdW  Elec       q    Type
REMARK                         _______ _______ _______ _____ _____    ______ ____
ROOT
ATOM      1  C   UNL     1       5.658   6.059  17.727  0.00  0.00    +0.000 A 
ATOM      2  C   UNL     1       4.865   5.678  18.785  0.00  0.00    +0.000 A 
ATOM      3  N   UNL     1       3.717   6.394  18.616  0.00  0.00    +0.000 N 
ATOM      4  N   UNL     1       3.791   7.178  17.525  0.00  0.00    +0.000 NA
ATOM      5  N   UNL     1       4.980   6.975  16.965  0.00  0.00    +0.000 NA
ENDROOT
BRANCH   1   6
ATOM      6  C   UNL     1       7.046   5.626  17.404  0.00  0.00    +0.000 C 
BRANCH   6   7
ATOM      7  O   UNL     1       7.100   4.320  16.792  0.00  0.00    +0.000 OA
BRANCH   7   9
ATOM      8  O   UNL     1       4.972   3.663  16.234  0.00  0.00    +0.000 OA
ATOM      9  C   UNL     1       6.093   4.039  15.930  0.00  0.00    +0.000 C 
BRANCH   9  10
ATOM     10  C   UNL     1       6.526   4.222  14.526  0.00  0.00    +0.000 A 
ATOM     11  C   UNL     1       6.043   3.461  13.455  0.00  0.00    +0.000 A 
ATOM     12  C   UNL     1       6.491   3.728  12.163  0.00  0.00    +0.000 A 
ATOM     13  C   UNL     1       7.411   4.752  11.979  0.00  0.00    +0.000 A 
ATOM     14  N   UNL     1       7.907   5.499  12.987  0.00  0.00    +0.000 NA
ATOM     15  C   UNL     1       7.456   5.214  14.239  0.00  0.00    +0.000 A 
ENDBRANCH   9  10
ENDBRANCH   7   9
ENDBRANCH   6   7
ENDBRANCH   1   6
BRANCH   3  16
ATOM     16  C   UNL     1       2.555   6.418  19.488  0.00  0.00    +0.000 C 
BRANCH  16  17
ATOM     17  C   UNL     1       2.156   5.025  19.881  0.00  0.00    +0.000 A 
ATOM     18  C   UNL     1       2.337   4.562  21.191  0.00  0.00    +0.000 A 
ATOM     19  C   UNL     1       1.846   3.310  21.570  0.00  0.00    +0.000 A 
ATOM     20  C   UNL     1       1.170   2.510  20.646  0.00  0.00    +0.000 A 
ATOM     21  C   UNL     1       1.017   2.947  19.332  0.00  0.00    +0.000 A 
ATOM     22  C   UNL     1       1.513   4.192  18.960  0.00  0.00    +0.000 A 
ATOM     23  F   UNL     1       1.353   4.601  17.694  0.00  0.00    +0.000 F 
ENDBRANCH  16  17
ENDBRANCH   3  16
TORSDOF 6
ENDMDL
MODEL 7
REMARK VINA RESULT:      -7.5      1.934      2.391
REMARK  Name = 
REMARK  6 active torsions:
REMARK  status: ('A' for Active; 'I' for Inactive)
REMARK    1  A    between atoms: C_2  and  O_3
REMARK    2  A    between atoms: C_2  and  C_18
REMARK    3  A    between atoms: O_3  and  C_4
REMARK    4  A    between atoms: C_4  and  C_5
REMARK    5  A    between atoms: N_7  and  C_8
REMARK    6  A    between atoms: C_8  and  C_9
REMARK                            x       y       z     vdW  Elec       q    Type
REMARK                         _______ _______ _______ _____ _____    ______ ____
ROOT
ATOM      1  C   UNL     1       5.546   5.726  17.288  0.00  0.00    +0.000 A 
ATOM      2  C   UNL     1       4.710   5.342  18.311  0.00  0.00    +0.000 A 
ATOM      3  N   UNL     1       3.707   6.266  18.286  0.00  0.00    +0.000 N 
ATOM      4  N   UNL     1       3.908   7.174  17.314  0.00  0.00    +0.000 NA
ATOM      5  N   UNL     1       5.034   6.847  16.687  0.00  0.00    +0.000 NA
ENDROOT
BRANCH   1   6
ATOM      6  C   UNL     1       6.830   5.107  16.856  0.00  0.00    +0.000 C 
BRANCH   6   7
ATOM      7  O   UNL     1       6.670   4.197  15.745  0.00  0.00    +0.000 OA
BRANCH   7   9
ATOM      8  O   UNL     1       7.820   5.607  14.345  0.00  0.00    +0.000 OA
ATOM      9  C   UNL     1       7.044   4.684  14.537  0.00  0.00    +0.000 C 
BRANCH   9  10
ATOM     10  C   UNL     1       6.363   3.964  13.438  0.00  0.00    +0.000 A 
ATOM     11  C   UNL     1       4.977   3.967  13.243  0.00  0.00    +0.000 A 
ATOM     12  C   UNL     1       4.432   3.281  12.161  0.00  0.00    +0.000 A 
ATOM     13  C   UNL     1       5.292   2.611  11.299  0.00  0.00    +0.000 A 
ATOM     14  N   UNL     1       6.630   2.577  11.460  0.00  0.00    +0.000 NA
ATOM     15  C   UNL     1       7.135   3.252  12.529  0.00  0.00    +0.000 A 
ENDBRANCH   9  10
ENDBRANCH   7   9
ENDBRANCH   6   7
ENDBRANCH   1   6
BRANCH   3  16
ATOM     16  C   UNL     1       2.578   6.368  19.195  0.00  0.00    +0.000 C 
BRANCH  16  17
ATOM     17  C   UNL     1       2.180   5.013  19.704  0.00  0.00    +0.000 A 
ATOM     18  C   UNL     1       2.441   4.629  21.026  0.00  0.00    +0.000 A 
ATOM     19  C   UNL     1       1.952   3.416  21.517  0.00  0.00    +0.000 A 
ATOM     20  C   UNL     1       1.199   2.576  20.694  0.00  0.00    +0.000 A 
ATOM     21  C   UNL     1       0.965   2.933  19.368  0.00  0.00    +0.000 A 
ATOM     22  C   UNL     1       1.459   4.139  18.884  0.00  0.00    +0.000 A 
ATOM     23  F   UNL     1       1.221   4.472  17.607  0.00  0.00    +0.000 F 
ENDBRANCH  16  17
ENDBRANCH   3  16
TORSDOF 6
ENDMDL
MODEL 8
REMARK VINA RESULT:      -7.5      2.050      2.627
REMARK  Name = 
REMARK  6 active torsions:
REMARK  status: ('A' for Active; 'I' for Inactive)
REMARK    1  A    between atoms: C_2  and  O_3
REMARK    2  A    between atoms: C_2  and  C_18
REMARK    3  A    between atoms: O_3  and  C_4
REMARK    4  A    between atoms: C_4  and  C_5
REMARK    5  A    between atoms: N_7  and  C_8
REMARK    6  A    between atoms: C_8  and  C_9
REMARK                            x       y       z     vdW  Elec       q    Type
REMARK                         _______ _______ _______ _____ _____    ______ ____
ROOT
ATOM      1  C   UNL     1       6.033   5.008  16.731  0.00  0.00    +0.000 A 
ATOM      2  C   UNL     1       4.801   5.616  16.664  0.00  0.00    +0.000 A 
ATOM      3  N   UNL     1       4.384   5.671  17.961  0.00  0.00    +0.000 N 
ATOM      4  N   UNL     1       5.297   5.125  18.786  0.00  0.00    +0.000 NA
ATOM      5  N   UNL     1       6.320   4.720  18.040  0.00  0.00    +0.000 NA
ENDROOT
BRANCH   1   6
ATOM      6  C   UNL     1       6.955   4.653  15.617  0.00  0.00    +0.000 C 
BRANCH   6   7
ATOM      7  O   UNL     1       6.673   5.378  14.400  0.00  0.00    +0.000 OA
BRANCH   7   9
ATOM      8  O   UNL     1       8.497   5.623  13.028  0.00  0.00    +0.000 OA
ATOM      9  C   UNL     1       7.457   5.065  13.341  0.00  0.00    +0.000 C 
BRANCH   9  10
ATOM     10  C   UNL     1       6.880   3.946  12.562  0.00  0.00    +0.000 A 
ATOM     11  C   UNL     1       7.643   3.026  11.835  0.00  0.00    +0.000 A 
ATOM     12  C   UNL     1       7.009   1.989  11.155  0.00  0.00    +0.000 A 
ATOM     13  C   UNL     1       5.624   1.901  11.224  0.00  0.00    +0.000 A 
ATOM     14  N   UNL     1       4.854   2.775  11.904  0.00  0.00    +0.000 NA
ATOM     15  C   UNL     1       5.501   3.781  12.555  0.00  0.00    +0.000 A 
ENDBRANCH   9  10
ENDBRANCH   7   9
ENDBRANCH   6   7
ENDBRANCH   1   6
BRANCH   3  16
ATOM     16  C   UNL     1       3.114   6.169  18.460  0.00  0.00    +0.000 C 
BRANCH  16  17
ATOM     17  C   UNL     1       2.234   5.036  18.903  0.00  0.00    +0.000 A 
ATOM     18  C   UNL     1       1.875   4.010  18.019  0.00  0.00    +0.000 A 
ATOM     19  C   UNL     1       1.161   2.901  18.479  0.00  0.00    +0.000 A 
ATOM     20  C   UNL     1       0.799   2.806  19.825  0.00  0.00    +0.000 A 
ATOM     21  C   UNL     1       1.122   3.838  20.704  0.00  0.00    +0.000 A 
ATOM     22  C   UNL     1       1.827   4.941  20.237  0.00  0.00    +0.000 A 
ATOM     23  F   UNL     1       2.135   5.924  21.096  0.00  0.00    +0.000 F 
ENDBRANCH  16  17
ENDBRANCH   3  16
TORSDOF 6
ENDMDL
MODEL 9
REMARK VINA RESULT:      -7.5      4.465      6.066
REMARK  Name = 
REMARK  6 active torsions:
REMARK  status: ('A' for Active; 'I' for Inactive)
REMARK    1  A    between atoms: C_2  and  O_3
REMARK    2  A    between atoms: C_2  and  C_18
REMARK    3  A    between atoms: O_3  and  C_4
REMARK    4  A    between atoms: C_4  and  C_5
REMARK    5  A    between atoms: N_7  and  C_8
REMARK    6  A    between atoms: C_8  and  C_9
REMARK                            x       y       z     vdW  Elec       q    Type
REMARK                         _______ _______ _______ _____ _____    ______ ____
ROOT
ATOM      1  C   UNL     1       7.339   6.874  17.976  0.00  0.00    +0.000 A 
ATOM      2  C   UNL     1       6.270   6.172  17.468  0.00  0.00    +0.000 A 
ATOM      3  N   UNL     1       6.143   5.104  18.306  0.00  0.00    +0.000 N 
ATOM      4  N   UNL     1       7.078   5.133  19.273  0.00  0.00    +0.000 NA
ATOM      5  N   UNL     1       7.816   6.223  19.084  0.00  0.00    +0.000 NA
ENDROOT
BRANCH   1   6
ATOM      6  C   UNL     1       7.962   8.122  17.455  0.00  0.00    +0.000 C 
BRANCH   6   7
ATOM      7  O   UNL     1       8.468   8.978  18.503  0.00  0.00    +0.000 OA
BRANCH   7   9
ATOM      8  O   UNL     1       7.731  10.924  17.531  0.00  0.00    +0.000 OA
ATOM      9  C   UNL     1       8.543  10.295  18.192  0.00  0.00    +0.000 C 
BRANCH   9  10
ATOM     10  C   UNL     1       9.776  10.903  18.741  0.00  0.00    +0.000 A 
ATOM     11  C   UNL     1      10.855  11.324  17.956  0.00  0.00    +0.000 A 
ATOM     12  C   UNL     1      11.961  11.912  18.564  0.00  0.00    +0.000 A 
ATOM     13  C   UNL     1      11.956  12.065  19.945  0.00  0.00    +0.000 A 
ATOM     14  N   UNL     1      10.940  11.662  20.735  0.00  0.00    +0.000 NA
ATOM     15  C   UNL     1       9.874  11.087  20.115  0.00  0.00    +0.000 A 
ENDBRANCH   9  10
ENDBRANCH   7   9
ENDBRANCH   6   7
ENDBRANCH   1   6
BRANCH   3  16
ATOM     16  C   UNL     1       5.200   4.005  18.198  0.00  0.00    +0.000 C 
BRANCH  16  17
ATOM     17  C   UNL     1       4.154   4.092  19.272  0.00  0.00    +0.000 A 
ATOM     18  C   UNL     1       3.440   5.277  19.493  0.00  0.00    +0.000 A 
ATOM     19  C   UNL     1       2.386   5.304  20.410  0.00  0.00    +0.000 A 
ATOM     20  C   UNL     1       2.035   4.150  21.112  0.00  0.00    +0.000 A 
ATOM     21  C   UNL     1       2.762   2.976  20.925  0.00  0.00    +0.000 A 
ATOM     22  C   UNL     1       3.814   2.958  20.015  0.00  0.00    +0.000 A 
ATOM     23  F   UNL     1       4.501   1.820  19.841  0.00  0.00    +0.000 F 
ENDBRANCH  16  17
ENDBRANCH   3  16
TORSDOF 6
ENDMDL
