MODEL 1
REMARK VINA RESULT:      -8.9      0.000      0.000
REMARK  Name = 
REMARK  2 active torsions:
REMARK  status: ('A' for Active; 'I' for Inactive)
REMARK    1  A    between atoms: C_4  and  C_5
REMARK    2  A    between atoms: C_12  and  O_13
REMARK                            x       y       z     vdW  Elec       q    Type
REMARK                         _______ _______ _______ _____ _____    ______ ____
ROOT
ATOM      1  O   UNL     1       7.714   6.521  16.311  0.00  0.00    +0.000 OA
ATOM      2  C   UNL     1       6.824   5.744  15.987  0.00  0.00    +0.000 A 
ATOM      3  N   UNL     1       5.778   5.421  16.812  0.00  0.00    +0.000 N 
ATOM      4  C   UNL     1       4.815   4.494  16.489  0.00  0.00    +0.000 A 
ATOM      5  N   UNL     1       4.781   3.878  15.350  0.00  0.00    +0.000 NA
ATOM      6  C   UNL     1       5.768   4.186  14.407  0.00  0.00    +0.000 A 
ATOM      7  C   UNL     1       5.700   3.574  13.155  0.00  0.00    +0.000 A 
ATOM      8  C   UNL     1       6.663   3.846  12.181  0.00  0.00    +0.000 A 
ATOM      9  C   UNL     1       7.705   4.732  12.457  0.00  0.00    +0.000 A 
ATOM     10  C   UNL     1       7.779   5.358  13.701  0.00  0.00    +0.000 A 
ATOM     11  C   UNL     1       6.809   5.083  14.666  0.00  0.00    +0.000 A 
ATOM     12  H   UNL     1       5.729   5.867  17.724  0.00  0.00    +0.000 HD
ENDROOT
BRANCH   4  13
ATOM     13  C   UNL     1       3.789   4.242  17.531  0.00  0.00    +0.000 A 
ATOM     14  C   UNL     1       2.555   4.862  17.445  0.00  0.00    +0.000 A 
ATOM     15  C   UNL     1       1.646   4.634  18.464  0.00  0.00    +0.000 A 
ATOM     16  C   UNL     1       2.002   3.811  19.542  0.00  0.00    +0.000 A 
ATOM     17  C   UNL     1       1.107   3.593  20.600  0.00  0.00    +0.000 A 
ATOM     18  C   UNL     1       1.475   2.796  21.682  0.00  0.00    +0.000 A 
ATOM     19  C   UNL     1       2.738   2.215  21.715  0.00  0.00    +0.000 A 
ATOM     20  C   UNL     1       3.623   2.430  20.655  0.00  0.00    +0.000 A 
ATOM     21  C   UNL     1       3.288   3.221  19.549  0.00  0.00    +0.000 A 
ATOM     22  N   UNL     1       4.167   3.424  18.544  0.00  0.00    +0.000 NA
BRANCH  20  23
ATOM     23  O   UNL     1       4.876   1.863  20.706  0.00  0.00    +0.000 OA
ATOM     24  H   UNL     1       4.846   0.977  20.313  0.00  0.00    +0.000 HD
ENDBRANCH  20  23
ENDBRANCH   4  13
TORSDOF 2
ENDMDL
MODEL 2
REMARK VINA RESULT:      -8.4      1.394      1.705
REMARK  Name = 
REMARK  2 active torsions:
REMARK  status: ('A' for Active; 'I' for Inactive)
REMARK    1  A    between atoms: C_4  and  C_5
REMARK    2  A    between atoms: C_12  and  O_13
REMARK                            x       y       z     vdW  Elec       q    Type
REMARK                         _______ _______ _______ _____ _____    ______ ____
ROOT
ATOM      1  O   UNL     1       7.760   6.412  16.163  0.00  0.00    +0.000 OA
ATOM      2  C   UNL     1       6.978   5.533  15.823  0.00  0.00    +0.000 A 
ATOM      3  N   UNL     1       6.051   4.988  16.675  0.00  0.00    +0.000 N 
ATOM      4  C   UNL     1       5.221   3.948  16.327  0.00  0.00    +0.000 A 
ATOM      5  N   UNL     1       5.203   3.424  15.142  0.00  0.00    +0.000 NA
ATOM      6  C   UNL     1       6.065   3.955  14.176  0.00  0.00    +0.000 A 
ATOM      7  C   UNL     1       6.005   3.438  12.881  0.00  0.00    +0.000 A 
ATOM      8  C   UNL     1       6.848   3.931  11.882  0.00  0.00    +0.000 A 
ATOM      9  C   UNL     1       7.759   4.946  12.176  0.00  0.00    +0.000 A 
ATOM     10  C   UNL     1       7.822   5.479  13.464  0.00  0.00    +0.000 A 
ATOM     11  C   UNL     1       6.973   4.981  14.453  0.00  0.00    +0.000 A 
ATOM     12  H   UNL     1       5.998   5.349  17.622  0.00  0.00    +0.000 HD
ENDROOT
BRANCH   4  13
ATOM     13  C   UNL     1       4.319   3.459  17.398  0.00  0.00    +0.000 A 
ATOM     14  C   UNL     1       3.867   2.151  17.373  0.00  0.00    +0.000 A 
ATOM     15  C   UNL     1       2.990   1.752  18.367  0.00  0.00    +0.000 A 
ATOM     16  C   UNL     1       2.579   2.673  19.342  0.00  0.00    +0.000 A 
ATOM     17  C   UNL     1       1.667   2.297  20.340  0.00  0.00    +0.000 A 
ATOM     18  C   UNL     1       1.241   3.222  21.291  0.00  0.00    +0.000 A 
ATOM     19  C   UNL     1       1.721   4.527  21.249  0.00  0.00    +0.000 A 
ATOM     20  C   UNL     1       2.636   4.894  20.258  0.00  0.00    +0.000 A 
ATOM     21  C   UNL     1       3.090   3.991  19.288  0.00  0.00    +0.000 A 
ATOM     22  N   UNL     1       3.963   4.375  18.332  0.00  0.00    +0.000 NA
BRANCH  20  23
ATOM     23  O   UNL     1       3.092   6.192  20.218  0.00  0.00    +0.000 OA
ATOM     24  H   UNL     1       4.022   6.198  19.941  0.00  0.00    +0.000 HD
ENDBRANCH  20  23
ENDBRANCH   4  13
TORSDOF 2
ENDMDL
MODEL 3
REMARK VINA RESULT:      -8.1      4.892      7.746
REMARK  Name = 
REMARK  2 active torsions:
REMARK  status: ('A' for Active; 'I' for Inactive)
REMARK    1  A    between atoms: C_4  and  C_5
REMARK    2  A    between atoms: C_12  and  O_13
REMARK                            x       y       z     vdW  Elec       q    Type
REMARK                         _______ _______ _______ _____ _____    ______ ____
ROOT
ATOM      1  O   UNL     1       1.115  11.270  18.590  0.00  0.00    +0.000 OA
ATOM      2  C   UNL     1       1.108  10.294  19.330  0.00  0.00    +0.000 A 
ATOM      3  N   UNL     1       1.684   9.097  18.991  0.00  0.00    +0.000 N 
ATOM      4  C   UNL     1       1.616   7.972  19.780  0.00  0.00    +0.000 A 
ATOM      5  N   UNL     1       1.045   7.959  20.943  0.00  0.00    +0.000 NA
ATOM      6  C   UNL     1       0.484   9.152  21.414  0.00  0.00    +0.000 A 
ATOM      7  C   UNL     1      -0.075   9.159  22.692  0.00  0.00    +0.000 A 
ATOM      8  C   UNL     1      -0.650  10.324  23.205  0.00  0.00    +0.000 A 
ATOM      9  C   UNL     1      -0.671  11.489  22.439  0.00  0.00    +0.000 A 
ATOM     10  C   UNL     1      -0.107  11.497  21.163  0.00  0.00    +0.000 A 
ATOM     11  C   UNL     1       0.469  10.329  20.661  0.00  0.00    +0.000 A 
ATOM     12  H   UNL     1       2.157   9.027  18.095  0.00  0.00    +0.000 HD
ENDROOT
BRANCH   4  13
ATOM     13  C   UNL     1       2.256   6.755  19.223  0.00  0.00    +0.000 A 
ATOM     14  C   UNL     1       3.240   6.878  18.256  0.00  0.00    +0.000 A 
ATOM     15  C   UNL     1       3.776   5.714  17.731  0.00  0.00    +0.000 A 
ATOM     16  C   UNL     1       3.304   4.470  18.173  0.00  0.00    +0.000 A 
ATOM     17  C   UNL     1       3.813   3.279  17.632  0.00  0.00    +0.000 A 
ATOM     18  C   UNL     1       3.322   2.046  18.055  0.00  0.00    +0.000 A 
ATOM     19  C   UNL     1       2.321   1.994  19.018  0.00  0.00    +0.000 A 
ATOM     20  C   UNL     1       1.823   3.182  19.560  0.00  0.00    +0.000 A 
ATOM     21  C   UNL     1       2.294   4.441  19.163  0.00  0.00    +0.000 A 
ATOM     22  N   UNL     1       1.786   5.575  19.692  0.00  0.00    +0.000 NA
BRANCH  20  23
ATOM     23  O   UNL     1       0.821   3.119  20.501  0.00  0.00    +0.000 OA
ATOM     24  H   UNL     1       1.113   2.573  21.248  0.00  0.00    +0.000 HD
ENDBRANCH  20  23
ENDBRANCH   4  13
TORSDOF 2
ENDMDL
MODEL 4
REMARK VINA RESULT:      -8.0      5.007      7.434
REMARK  Name = 
REMARK  2 active torsions:
REMARK  status: ('A' for Active; 'I' for Inactive)
REMARK    1  A    between atoms: C_4  and  C_5
REMARK    2  A    between atoms: C_12  and  O_13
REMARK                            x       y       z     vdW  Elec       q    Type
REMARK                         _______ _______ _______ _____ _____    ______ ____
ROOT
ATOM      1  O   UNL     1       1.141   9.279  22.994  0.00  0.00    +0.000 OA
ATOM      2  C   UNL     1       1.200   9.213  21.773  0.00  0.00    +0.000 A 
ATOM      3  N   UNL     1       1.651   8.103  21.106  0.00  0.00    +0.000 N 
ATOM      4  C   UNL     1       1.794   8.044  19.740  0.00  0.00    +0.000 A 
ATOM      5  N   UNL     1       1.463   9.018  18.952  0.00  0.00    +0.000 NA
ATOM      6  C   UNL     1       0.927  10.176  19.529  0.00  0.00    +0.000 A 
ATOM      7  C   UNL     1       0.509  11.203  18.681  0.00  0.00    +0.000 A 
ATOM      8  C   UNL     1      -0.029  12.379  19.208  0.00  0.00    +0.000 A 
ATOM      9  C   UNL     1      -0.151  12.535  20.589  0.00  0.00    +0.000 A 
ATOM     10  C   UNL     1       0.255  11.512  21.447  0.00  0.00    +0.000 A 
ATOM     11  C   UNL     1       0.787  10.339  20.910  0.00  0.00    +0.000 A 
ATOM     12  H   UNL     1       1.926   7.292  21.653  0.00  0.00    +0.000 HD
ENDROOT
BRANCH   4  13
ATOM     13  C   UNL     1       2.345   6.775  19.204  0.00  0.00    +0.000 A 
ATOM     14  C   UNL     1       3.315   6.808  18.218  0.00  0.00    +0.000 A 
ATOM     15  C   UNL     1       3.766   5.599  17.715  0.00  0.00    +0.000 A 
ATOM     16  C   UNL     1       3.224   4.400  18.198  0.00  0.00    +0.000 A 
ATOM     17  C   UNL     1       3.644   3.166  17.680  0.00  0.00    +0.000 A 
ATOM     18  C   UNL     1       3.084   1.978  18.145  0.00  0.00    +0.000 A 
ATOM     19  C   UNL     1       2.100   2.016  19.127  0.00  0.00    +0.000 A 
ATOM     20  C   UNL     1       1.689   3.247  19.645  0.00  0.00    +0.000 A 
ATOM     21  C   UNL     1       2.232   4.462  19.207  0.00  0.00    +0.000 A 
ATOM     22  N   UNL     1       1.809   5.639  19.713  0.00  0.00    +0.000 NA
BRANCH  20  23
ATOM     23  O   UNL     1       0.703   3.273  20.605  0.00  0.00    +0.000 OA
ATOM     24  H   UNL     1      -0.124   2.936  20.227  0.00  0.00    +0.000 HD
ENDBRANCH  20  23
ENDBRANCH   4  13
TORSDOF 2
ENDMDL
MODEL 5
REMARK VINA RESULT:      -8.0      4.341      7.825
REMARK  Name = 
REMARK  2 active torsions:
REMARK  status: ('A' for Active; 'I' for Inactive)
REMARK    1  A    between atoms: C_4  and  C_5
REMARK    2  A    between atoms: C_12  and  O_13
REMARK                            x       y       z     vdW  Elec       q    Type
REMARK                         _______ _______ _______ _____ _____    ______ ____
ROOT
ATOM      1  O   UNL     1       1.118  11.103  18.136  0.00  0.00    +0.000 OA
ATOM      2  C   UNL     1       1.317  10.085  18.786  0.00  0.00    +0.000 A 
ATOM      3  N   UNL     1       1.996   9.003  18.289  0.00  0.00    +0.000 N 
ATOM      4  C   UNL     1       2.160   7.826  18.981  0.00  0.00    +0.000 A 
ATOM      5  N   UNL     1       1.730   7.652  20.191  0.00  0.00    +0.000 NA
ATOM      6  C   UNL     1       1.080   8.722  20.817  0.00  0.00    +0.000 A 
ATOM      7  C   UNL     1       0.672   8.563  22.142  0.00  0.00    +0.000 A 
ATOM      8  C   UNL     1       0.016   9.600  22.810  0.00  0.00    +0.000 A 
ATOM      9  C   UNL     1      -0.237  10.804  22.152  0.00  0.00    +0.000 A 
ATOM     10  C   UNL     1       0.174  10.979  20.831  0.00  0.00    +0.000 A 
ATOM     11  C   UNL     1       0.832   9.938  20.174  0.00  0.00    +0.000 A 
ATOM     12  H   UNL     1       2.371   9.062  17.346  0.00  0.00    +0.000 HD
ENDROOT
BRANCH   4  13
ATOM     13  C   UNL     1       2.882   6.749  18.259  0.00  0.00    +0.000 A 
ATOM     14  C   UNL     1       2.302   5.499  18.131  0.00  0.00    +0.000 A 
ATOM     15  C   UNL     1       3.032   4.512  17.490  0.00  0.00    +0.000 A 
ATOM     16  C   UNL     1       4.319   4.798  17.013  0.00  0.00    +0.000 A 
ATOM     17  C   UNL     1       5.087   3.804  16.389  0.00  0.00    +0.000 A 
ATOM     18  C   UNL     1       6.376   4.086  15.940  0.00  0.00    +0.000 A 
ATOM     19  C   UNL     1       6.905   5.360  16.116  0.00  0.00    +0.000 A 
ATOM     20  C   UNL     1       6.134   6.349  16.732  0.00  0.00    +0.000 A 
ATOM     21  C   UNL     1       4.833   6.105  17.191  0.00  0.00    +0.000 A 
ATOM     22  N   UNL     1       4.113   7.074  17.796  0.00  0.00    +0.000 NA
BRANCH  20  23
ATOM     23  O   UNL     1       6.674   7.601  16.913  0.00  0.00    +0.000 OA
ATOM     24  H   UNL     1       7.244   7.596  17.698  0.00  0.00    +0.000 HD
ENDBRANCH  20  23
ENDBRANCH   4  13
TORSDOF 2
ENDMDL
MODEL 6
REMARK VINA RESULT:      -8.0      5.332      7.993
REMARK  Name = 
REMARK  2 active torsions:
REMARK  status: ('A' for Active; 'I' for Inactive)
REMARK    1  A    between atoms: C_4  and  C_5
REMARK    2  A    between atoms: C_12  and  O_13
REMARK                            x       y       z     vdW  Elec       q    Type
REMARK                         _______ _______ _______ _____ _____    ______ ____
ROOT
ATOM      1  O   UNL     1       0.945   9.546  23.590  0.00  0.00    +0.000 OA
ATOM      2  C   UNL     1       0.867   9.467  22.370  0.00  0.00    +0.000 A 
ATOM      3  N   UNL     1       1.441   8.451  21.650  0.00  0.00    +0.000 N 
ATOM      4  C   UNL     1       1.425   8.393  20.276  0.00  0.00    +0.000 A 
ATOM      5  N   UNL     1       0.817   9.268  19.538  0.00  0.00    +0.000 NA
ATOM      6  C   UNL     1       0.140  10.311  20.180  0.00  0.00    +0.000 A 
ATOM      7  C   UNL     1      -0.571  11.220  19.394  0.00  0.00    +0.000 A 
ATOM      8  C   UNL     1      -1.260  12.280  19.987  0.00  0.00    +0.000 A 
ATOM      9  C   UNL     1      -1.240  12.438  21.373  0.00  0.00    +0.000 A 
ATOM     10  C   UNL     1      -0.542  11.531  22.170  0.00  0.00    +0.000 A 
ATOM     11  C   UNL     1       0.140  10.473  21.569  0.00  0.00    +0.000 A 
ATOM     12  H   UNL     1       1.933   7.721  22.156  0.00  0.00    +0.000 HD
ENDROOT
BRANCH   4  13
ATOM     13  C   UNL     1       2.143   7.243  19.672  0.00  0.00    +0.000 A 
ATOM     14  C   UNL     1       2.719   7.373  18.420  0.00  0.00    +0.000 A 
ATOM     15  C   UNL     1       3.339   6.260  17.877  0.00  0.00    +0.000 A 
ATOM     16  C   UNL     1       3.349   5.053  18.590  0.00  0.00    +0.000 A 
ATOM     17  C   UNL     1       3.944   3.905  18.044  0.00  0.00    +0.000 A 
ATOM     18  C   UNL     1       3.928   2.701  18.744  0.00  0.00    +0.000 A 
ATOM     19  C   UNL     1       3.317   2.635  19.991  0.00  0.00    +0.000 A 
ATOM     20  C   UNL     1       2.732   3.782  20.534  0.00  0.00    +0.000 A 
ATOM     21  C   UNL     1       2.732   5.012  19.863  0.00  0.00    +0.000 A 
ATOM     22  N   UNL     1       2.148   6.102  20.403  0.00  0.00    +0.000 NA
BRANCH  20  23
ATOM     23  O   UNL     1       2.117   3.701  21.763  0.00  0.00    +0.000 OA
ATOM     24  H   UNL     1       2.361   2.866  22.191  0.00  0.00    +0.000 HD
ENDBRANCH  20  23
ENDBRANCH   4  13
TORSDOF 2
ENDMDL
MODEL 7
REMARK VINA RESULT:      -7.9      1.260      1.358
REMARK  Name = 
REMARK  2 active torsions:
REMARK  status: ('A' for Active; 'I' for Inactive)
REMARK    1  A    between atoms: C_4  and  C_5
REMARK    2  A    between atoms: C_12  and  O_13
REMARK                            x       y       z     vdW  Elec       q    Type
REMARK                         _______ _______ _______ _____ _____    ______ ____
ROOT
ATOM      1  O   UNL     1       8.131   6.226  15.355  0.00  0.00    +0.000 OA
ATOM      2  C   UNL     1       7.094   5.579  15.290  0.00  0.00    +0.000 A 
ATOM      3  N   UNL     1       6.184   5.522  16.314  0.00  0.00    +0.000 N 
ATOM      4  C   UNL     1       5.054   4.738  16.282  0.00  0.00    +0.000 A 
ATOM      5  N   UNL     1       4.720   4.022  15.255  0.00  0.00    +0.000 NA
ATOM      6  C   UNL     1       5.548   4.063  14.128  0.00  0.00    +0.000 A 
ATOM      7  C   UNL     1       5.159   3.344  12.997  0.00  0.00    +0.000 A 
ATOM      8  C   UNL     1       5.954   3.349  11.848  0.00  0.00    +0.000 A 
ATOM      9  C   UNL     1       7.146   4.075  11.826  0.00  0.00    +0.000 A 
ATOM     10  C   UNL     1       7.540   4.805  12.947  0.00  0.00    +0.000 A 
ATOM     11  C   UNL     1       6.737   4.796  14.089  0.00  0.00    +0.000 A 
ATOM     12  H   UNL     1       6.371   6.062  17.154  0.00  0.00    +0.000 HD
ENDROOT
BRANCH   4  13
ATOM     13  C   UNL     1       4.215   4.770  17.505  0.00  0.00    +0.000 A 
ATOM     14  C   UNL     1       4.162   5.920  18.273  0.00  0.00    +0.000 A 
ATOM     15  C   UNL     1       3.403   5.888  19.431  0.00  0.00    +0.000 A 
ATOM     16  C   UNL     1       2.736   4.709  19.793  0.00  0.00    +0.000 A 
ATOM     17  C   UNL     1       1.987   4.647  20.978  0.00  0.00    +0.000 A 
ATOM     18  C   UNL     1       1.348   3.465  21.346  0.00  0.00    +0.000 A 
ATOM     19  C   UNL     1       1.455   2.339  20.537  0.00  0.00    +0.000 A 
ATOM     20  C   UNL     1       2.196   2.409  19.354  0.00  0.00    +0.000 A 
ATOM     21  C   UNL     1       2.849   3.580  18.948  0.00  0.00    +0.000 A 
ATOM     22  N   UNL     1       3.570   3.617  17.807  0.00  0.00    +0.000 NA
BRANCH  20  23
ATOM     23  O   UNL     1       2.308   1.284  18.569  0.00  0.00    +0.000 OA
ATOM     24  H   UNL     1       2.691   0.562  19.092  0.00  0.00    +0.000 HD
ENDBRANCH  20  23
ENDBRANCH   4  13
TORSDOF 2
ENDMDL
MODEL 8
REMARK VINA RESULT:      -7.8      5.382      7.413
REMARK  Name = 
REMARK  2 active torsions:
REMARK  status: ('A' for Active; 'I' for Inactive)
REMARK    1  A    between atoms: C_4  and  C_5
REMARK    2  A    between atoms: C_12  and  O_13
REMARK                            x       y       z     vdW  Elec       q    Type
REMARK                         _______ _______ _______ _____ _____    ______ ____
ROOT
ATOM      1  O   UNL     1       4.338   5.855  17.583  0.00  0.00    +0.000 OA
ATOM      2  C   UNL     1       3.543   5.927  18.511  0.00  0.00    +0.000 A 
ATOM      3  N   UNL     1       2.806   7.053  18.777  0.00  0.00    +0.000 N 
ATOM      4  C   UNL     1       1.967   7.173  19.860  0.00  0.00    +0.000 A 
ATOM      5  N   UNL     1       1.757   6.209  20.700  0.00  0.00    +0.000 NA
ATOM      6  C   UNL     1       2.410   4.991  20.481  0.00  0.00    +0.000 A 
ATOM      7  C   UNL     1       2.138   3.930  21.346  0.00  0.00    +0.000 A 
ATOM      8  C   UNL     1       2.767   2.696  21.171  0.00  0.00    +0.000 A 
ATOM      9  C   UNL     1       3.677   2.517  20.127  0.00  0.00    +0.000 A 
ATOM     10  C   UNL     1       3.950   3.567  19.250  0.00  0.00    +0.000 A 
ATOM     11  C   UNL     1       3.313   4.795  19.432  0.00  0.00    +0.000 A 
ATOM     12  H   UNL     1       2.910   7.853  18.159  0.00  0.00    +0.000 HD
ENDROOT
BRANCH   4  13
ATOM     13  C   UNL     1       1.292   8.486  20.009  0.00  0.00    +0.000 A 
ATOM     14  C   UNL     1       1.330   9.400  18.970  0.00  0.00    +0.000 A 
ATOM     15  C   UNL     1       0.726  10.630  19.171  0.00  0.00    +0.000 A 
ATOM     16  C   UNL     1       0.121  10.914  20.404  0.00  0.00    +0.000 A 
ATOM     17  C   UNL     1      -0.469  12.165  20.639  0.00  0.00    +0.000 A 
ATOM     18  C   UNL     1      -1.045  12.452  21.873  0.00  0.00    +0.000 A 
ATOM     19  C   UNL     1      -1.034  11.494  22.881  0.00  0.00    +0.000 A 
ATOM     20  C   UNL     1      -0.452  10.247  22.640  0.00  0.00    +0.000 A 
ATOM     21  C   UNL     1       0.133   9.919  21.410  0.00  0.00    +0.000 A 
ATOM     22  N   UNL     1       0.702   8.712  21.207  0.00  0.00    +0.000 NA
BRANCH  20  23
ATOM     23  O   UNL     1      -0.434   9.312  23.650  0.00  0.00    +0.000 OA
ATOM     24  H   UNL     1      -0.977   9.625  24.390  0.00  0.00    +0.000 HD
ENDBRANCH  20  23
ENDBRANCH   4  13
TORSDOF 2
ENDMDL
MODEL 9
REMARK VINA RESULT:      -7.8      5.567      7.064
REMARK  Name = 
REMARK  2 active torsions:
REMARK  status: ('A' for Active; 'I' for Inactive)
REMARK    1  A    between atoms: C_4  and  C_5
REMARK    2  A    between atoms: C_12  and  O_13
REMARK                            x       y       z     vdW  Elec       q    Type
REMARK                         _______ _______ _______ _____ _____    ______ ____
ROOT
ATOM      1  O   UNL     1       2.412   4.555  21.126  0.00  0.00    +0.000 OA
ATOM      2  C   UNL     1       2.552   5.472  20.327  0.00  0.00    +0.000 A 
ATOM      3  N   UNL     1       1.925   6.684  20.463  0.00  0.00    +0.000 N 
ATOM      4  C   UNL     1       2.014   7.693  19.533  0.00  0.00    +0.000 A 
ATOM      5  N   UNL     1       2.744   7.608  18.466  0.00  0.00    +0.000 NA
ATOM      6  C   UNL     1       3.481   6.436  18.266  0.00  0.00    +0.000 A 
ATOM      7  C   UNL     1       4.319   6.364  17.152  0.00  0.00    +0.000 A 
ATOM      8  C   UNL     1       5.072   5.214  16.906  0.00  0.00    +0.000 A 
ATOM      9  C   UNL     1       4.988   4.125  17.775  0.00  0.00    +0.000 A 
ATOM     10  C   UNL     1       4.162   4.188  18.897  0.00  0.00    +0.000 A 
ATOM     11  C   UNL     1       3.417   5.343  19.136  0.00  0.00    +0.000 A 
ATOM     12  H   UNL     1       1.337   6.832  21.278  0.00  0.00    +0.000 HD
ENDROOT
BRANCH   4  13
ATOM     13  C   UNL     1       1.224   8.913  19.831  0.00  0.00    +0.000 A 
ATOM     14  C   UNL     1       1.137   9.923  18.888  0.00  0.00    +0.000 A 
ATOM     15  C   UNL     1       0.428  11.063  19.227  0.00  0.00    +0.000 A 
ATOM     16  C   UNL     1      -0.156  11.166  20.498  0.00  0.00    +0.000 A 
ATOM     17  C   UNL     1      -0.852  12.326  20.872  0.00  0.00    +0.000 A 
ATOM     18  C   UNL     1      -1.408  12.434  22.145  0.00  0.00    +0.000 A 
ATOM     19  C   UNL     1      -1.269  11.389  23.051  0.00  0.00    +0.000 A 
ATOM     20  C   UNL     1      -0.582  10.233  22.671  0.00  0.00    +0.000 A 
ATOM     21  C   UNL     1      -0.013  10.085  21.399  0.00  0.00    +0.000 A 
ATOM     22  N   UNL     1       0.658   8.963  21.061  0.00  0.00    +0.000 NA
BRANCH  20  23
ATOM     23  O   UNL     1      -0.438   9.211  23.581  0.00  0.00    +0.000 OA
ATOM     24  H   UNL     1       0.083   9.523  24.337  0.00  0.00    +0.000 HD
ENDBRANCH  20  23
ENDBRANCH   4  13
TORSDOF 2
ENDMDL
