MODEL 1
REMARK VINA RESULT:      -7.1      0.000      0.000
REMARK  Name = 
REMARK  6 active torsions:
REMARK  status: ('A' for Active; 'I' for Inactive)
REMARK    1  A    between atoms: C_1  and  N_2
REMARK    2  A    between atoms: C_4  and  C_5
REMARK    3  A    between atoms: C_7  and  S_8
REMARK    4  A    between atoms: S_8  and  C_9
REMARK    5  A    between atoms: C_14  and  O_15
REMARK    6  A    between atoms: O_15  and  C_16
REMARK                            x       y       z     vdW  Elec       q    Type
REMARK                         _______ _______ _______ _____ _____    ______ ____
ROOT
ATOM      1  C   UNL     1       3.577   6.373  18.519  0.00  0.00    +0.000 A 
ATOM      2  C   UNL     1       3.028   7.633  18.167  0.00  0.00    +0.000 A 
ATOM      3  C   UNL     1       1.945   8.185  18.869  0.00  0.00    +0.000 A 
ATOM      4  C   UNL     1       1.334   7.475  19.891  0.00  0.00    +0.000 A 
ATOM      5  C   UNL     1       1.869   6.246  20.252  0.00  0.00    +0.000 A 
ATOM      6  C   UNL     1       3.008   5.706  19.615  0.00  0.00    +0.000 A 
ENDROOT
BRANCH   1  10
ATOM      7  C   UNL     1       5.179   4.559  14.253  0.00  0.00    +0.000 C 
ATOM      8  N   UNL     1       5.514   5.031  15.581  0.00  0.00    +0.000 N 
ATOM      9  C   UNL     1       4.531   5.630  16.393  0.00  0.00    +0.000 A 
ATOM     10  C   UNL     1       4.749   5.954  17.696  0.00  0.00    +0.000 A 
ATOM     11  C   UNL     1       6.049   5.660  18.240  0.00  0.00    +0.000 A 
ATOM     12  C   UNL     1       6.618   5.817  19.521  0.00  0.00    +0.000 A 
ATOM     13  C   UNL     1       7.896   5.295  19.461  0.00  0.00    +0.000 A 
ATOM     14  N   UNL     1       8.114   4.835  18.187  0.00  0.00    +0.000 N 
ATOM     15  C   UNL     1       6.996   5.060  17.435  0.00  0.00    +0.000 A 
ATOM     16  C   UNL     1       6.799   4.701  16.062  0.00  0.00    +0.000 A 
ATOM     17  O   UNL     1       7.661   4.139  15.388  0.00  0.00    +0.000 OA
ATOM     18  H   UNL     1       8.954   4.379  17.844  0.00  0.00    +0.000 HD
ENDBRANCH   1  10
BRANCH   3  19
ATOM     19  S   UNL     1       1.480   9.885  18.620  0.00  0.00    +0.000 S 
ATOM     20  C   UNL     1      -0.139   9.806  17.914  0.00  0.00    +0.000 C 
ATOM     21  O   UNL     1       1.363  10.497  19.932  0.00  0.00    +0.000 OA
ATOM     22  O   UNL     1       2.384  10.436  17.629  0.00  0.00    +0.000 OA
ENDBRANCH   3  19
BRANCH   6  23
ATOM     23  O   UNL     1       3.448   4.645  20.334  0.00  0.00    +0.000 OA
BRANCH  23  24
ATOM     24  C   UNL     1       3.132   3.292  20.087  0.00  0.00    +0.000 C 
ATOM     25  C   UNL     1       1.975   3.325  19.086  0.00  0.00    +0.000 C 
ATOM     26  C   UNL     1       2.098   2.051  18.277  0.00  0.00    +0.000 C 
ATOM     27  C   UNL     1       3.575   1.680  18.304  0.00  0.00    +0.000 C 
ATOM     28  C   UNL     1       4.252   2.607  19.309  0.00  0.00    +0.000 C 
ENDBRANCH  23  24
ENDBRANCH   6  23
TORSDOF 4
ENDMDL
MODEL 2
REMARK VINA RESULT:      -7.0      1.523      1.840
REMARK  Name = 
REMARK  6 active torsions:
REMARK  status: ('A' for Active; 'I' for Inactive)
REMARK    1  A    between atoms: C_1  and  N_2
REMARK    2  A    between atoms: C_4  and  C_5
REMARK    3  A    between atoms: C_7  and  S_8
REMARK    4  A    between atoms: S_8  and  C_9
REMARK    5  A    between atoms: C_14  and  O_15
REMARK    6  A    between atoms: O_15  and  C_16
REMARK                            x       y       z     vdW  Elec       q    Type
REMARK                         _______ _______ _______ _____ _____    ______ ____
ROOT
ATOM      1  C   UNL     1       3.453   6.789  18.298  0.00  0.00    +0.000 A 
ATOM      2  C   UNL     1       2.834   8.022  17.963  0.00  0.00    +0.000 A 
ATOM      3  C   UNL     1       1.820   8.576  18.760  0.00  0.00    +0.000 A 
ATOM      4  C   UNL     1       1.345   7.892  19.869  0.00  0.00    +0.000 A 
ATOM      5  C   UNL     1       1.950   6.691  20.213  0.00  0.00    +0.000 A 
ATOM      6  C   UNL     1       3.027   6.153  19.473  0.00  0.00    +0.000 A 
ENDROOT
BRANCH   1  10
ATOM      7  C   UNL     1       5.256   3.266  15.400  0.00  0.00    +0.000 C 
ATOM      8  N   UNL     1       5.422   4.594  15.955  0.00  0.00    +0.000 N 
ATOM      9  C   UNL     1       4.385   5.191  16.698  0.00  0.00    +0.000 A 
ATOM     10  C   UNL     1       4.538   6.366  17.365  0.00  0.00    +0.000 A 
ATOM     11  C   UNL     1       5.827   7.003  17.291  0.00  0.00    +0.000 A 
ATOM     12  C   UNL     1       6.358   8.179  17.862  0.00  0.00    +0.000 A 
ATOM     13  C   UNL     1       7.684   8.248  17.480  0.00  0.00    +0.000 A 
ATOM     14  N   UNL     1       7.965   7.157  16.696  0.00  0.00    +0.000 N 
ATOM     15  C   UNL     1       6.837   6.398  16.571  0.00  0.00    +0.000 A 
ATOM     16  C   UNL     1       6.712   5.159  15.860  0.00  0.00    +0.000 A 
ATOM     17  O   UNL     1       7.647   4.639  15.255  0.00  0.00    +0.000 OA
ATOM     18  H   UNL     1       8.863   6.925  16.285  0.00  0.00    +0.000 HD
ENDBRANCH   1  10
BRANCH   3  19
ATOM     19  S   UNL     1       1.285  10.253  18.503  0.00  0.00    +0.000 S 
ATOM     20  C   UNL     1       1.020  10.892  20.130  0.00  0.00    +0.000 C 
ATOM     21  O   UNL     1       2.399  10.977  17.918  0.00  0.00    +0.000 OA
ATOM     22  O   UNL     1       0.006  10.195  17.822  0.00  0.00    +0.000 OA
ENDBRANCH   3  19
BRANCH   6  23
ATOM     23  O   UNL     1       3.572   5.131  20.178  0.00  0.00    +0.000 OA
BRANCH  23  24
ATOM     24  C   UNL     1       3.104   3.800  20.198  0.00  0.00    +0.000 C 
ATOM     25  C   UNL     1       2.365   3.654  21.530  0.00  0.00    +0.000 C 
ATOM     26  C   UNL     1       1.293   2.611  21.290  0.00  0.00    +0.000 C 
ATOM     27  C   UNL     1       0.967   2.682  19.804  0.00  0.00    +0.000 C 
ATOM     28  C   UNL     1       2.004   3.597  19.160  0.00  0.00    +0.000 C 
ENDBRANCH  23  24
ENDBRANCH   6  23
TORSDOF 4
ENDMDL
MODEL 3
REMARK VINA RESULT:      -7.0      1.149      1.192
REMARK  Name = 
REMARK  6 active torsions:
REMARK  status: ('A' for Active; 'I' for Inactive)
REMARK    1  A    between atoms: C_1  and  N_2
REMARK    2  A    between atoms: C_4  and  C_5
REMARK    3  A    between atoms: C_7  and  S_8
REMARK    4  A    between atoms: S_8  and  C_9
REMARK    5  A    between atoms: C_14  and  O_15
REMARK    6  A    between atoms: O_15  and  C_16
REMARK                            x       y       z     vdW  Elec       q    Type
REMARK                         _______ _______ _______ _____ _____    ______ ____
ROOT
ATOM      1  C   UNL     1       3.472   6.628  18.349  0.00  0.00    +0.000 A 
ATOM      2  C   UNL     1       2.859   7.883  18.091  0.00  0.00    +0.000 A 
ATOM      3  C   UNL     1       1.856   8.398  18.927  0.00  0.00    +0.000 A 
ATOM      4  C   UNL     1       1.384   7.656  19.998  0.00  0.00    +0.000 A 
ATOM      5  C   UNL     1       1.982   6.433  20.268  0.00  0.00    +0.000 A 
ATOM      6  C   UNL     1       3.049   5.929  19.490  0.00  0.00    +0.000 A 
ENDROOT
BRANCH   1  10
ATOM      7  C   UNL     1       5.285   3.218  15.326  0.00  0.00    +0.000 C 
ATOM      8  N   UNL     1       5.437   4.534  15.914  0.00  0.00    +0.000 N 
ATOM      9  C   UNL     1       4.403   5.091  16.691  0.00  0.00    +0.000 A 
ATOM     10  C   UNL     1       4.546   6.251  17.385  0.00  0.00    +0.000 A 
ATOM     11  C   UNL     1       5.821   6.915  17.305  0.00  0.00    +0.000 A 
ATOM     12  C   UNL     1       6.340   8.086  17.896  0.00  0.00    +0.000 A 
ATOM     13  C   UNL     1       7.657   8.192  17.491  0.00  0.00    +0.000 A 
ATOM     14  N   UNL     1       7.944   7.127  16.674  0.00  0.00    +0.000 N 
ATOM     15  C   UNL     1       6.828   6.350  16.549  0.00  0.00    +0.000 A 
ATOM     16  C   UNL     1       6.713   5.128  15.809  0.00  0.00    +0.000 A 
ATOM     17  O   UNL     1       7.647   4.641  15.173  0.00  0.00    +0.000 OA
ATOM     18  H   UNL     1       8.838   6.923  16.240  0.00  0.00    +0.000 HD
ENDBRANCH   1  10
BRANCH   3  19
ATOM     19  S   UNL     1       1.333  10.091  18.770  0.00  0.00    +0.000 S 
ATOM     20  C   UNL     1      -0.232  10.001  17.951  0.00  0.00    +0.000 C 
ATOM     21  O   UNL     1       1.103  10.598  20.111  0.00  0.00    +0.000 OA
ATOM     22  O   UNL     1       2.273  10.751  17.885  0.00  0.00    +0.000 OA
ENDBRANCH   3  19
BRANCH   6  23
ATOM     23  O   UNL     1       3.590   4.864  20.130  0.00  0.00    +0.000 OA
BRANCH  23  24
ATOM     24  C   UNL     1       3.171   3.523  20.003  0.00  0.00    +0.000 C 
ATOM     25  C   UNL     1       2.036   3.552  18.977  0.00  0.00    +0.000 C 
ATOM     26  C   UNL     1       2.069   2.201  18.293  0.00  0.00    +0.000 C 
ATOM     27  C   UNL     1       3.511   1.720  18.389  0.00  0.00    +0.000 C 
ATOM     28  C   UNL     1       4.244   2.682  19.319  0.00  0.00    +0.000 C 
ENDBRANCH  23  24
ENDBRANCH   6  23
TORSDOF 4
ENDMDL
MODEL 4
REMARK VINA RESULT:      -6.8      6.372     11.028
REMARK  Name = 
REMARK  6 active torsions:
REMARK  status: ('A' for Active; 'I' for Inactive)
REMARK    1  A    between atoms: C_1  and  N_2
REMARK    2  A    between atoms: C_4  and  C_5
REMARK    3  A    between atoms: C_7  and  S_8
REMARK    4  A    between atoms: S_8  and  C_9
REMARK    5  A    between atoms: C_14  and  O_15
REMARK    6  A    between atoms: O_15  and  C_16
REMARK                            x       y       z     vdW  Elec       q    Type
REMARK                         _______ _______ _______ _____ _____    ______ ____
ROOT
ATOM      1  C   UNL     1      -1.256  11.843  19.132  0.00  0.00    +0.000 A 
ATOM      2  C   UNL     1      -0.920  10.684  19.879  0.00  0.00    +0.000 A 
ATOM      3  C   UNL     1       0.366  10.499  20.411  0.00  0.00    +0.000 A 
ATOM      4  C   UNL     1       1.370  11.420  20.158  0.00  0.00    +0.000 A 
ATOM      5  C   UNL     1       1.051  12.563  19.438  0.00  0.00    +0.000 A 
ATOM      6  C   UNL     1      -0.255  12.812  18.962  0.00  0.00    +0.000 A 
ENDROOT
BRANCH   1  10
ATOM      7  C   UNL     1      -5.975  12.292  20.394  0.00  0.00    +0.000 C 
ATOM      8  N   UNL     1      -5.008  12.097  19.332  0.00  0.00    +0.000 N 
ATOM      9  C   UNL     1      -3.629  12.214  19.593  0.00  0.00    +0.000 A 
ATOM     10  C   UNL     1      -2.676  11.898  18.676  0.00  0.00    +0.000 A 
ATOM     11  C   UNL     1      -3.126  11.425  17.394  0.00  0.00    +0.000 A 
ATOM     12  C   UNL     1      -2.452  10.983  16.236  0.00  0.00    +0.000 A 
ATOM     13  C   UNL     1      -3.421  10.591  15.331  0.00  0.00    +0.000 A 
ATOM     14  N   UNL     1      -4.652  10.789  15.904  0.00  0.00    +0.000 N 
ATOM     15  C   UNL     1      -4.480  11.303  17.158  0.00  0.00    +0.000 A 
ATOM     16  C   UNL     1      -5.511  11.623  18.101  0.00  0.00    +0.000 A 
ATOM     17  O   UNL     1      -6.707  11.470  17.862  0.00  0.00    +0.000 OA
ATOM     18  H   UNL     1      -5.553  10.574  15.489  0.00  0.00    +0.000 HD
ENDBRANCH   1  10
BRANCH   3  19
ATOM     19  S   UNL     1       0.675   9.209  21.597  0.00  0.00    +0.000 S 
ATOM     20  C   UNL     1       1.546   7.967  20.690  0.00  0.00    +0.000 C 
ATOM     21  O   UNL     1       1.583   9.749  22.595  0.00  0.00    +0.000 OA
ATOM     22  O   UNL     1      -0.612   8.669  21.989  0.00  0.00    +0.000 OA
ENDBRANCH   3  19
BRANCH   6  23
ATOM     23  O   UNL     1      -0.326  14.095  18.532  0.00  0.00    +0.000 OA
BRANCH  23  24
ATOM     24  C   UNL     1      -0.222  15.245  19.344  0.00  0.00    +0.000 C 
ATOM     25  C   UNL     1      -0.421  16.428  18.394  0.00  0.00    +0.000 C 
ATOM     26  C   UNL     1      -1.033  17.528  19.236  0.00  0.00    +0.000 C 
ATOM     27  C   UNL     1      -1.784  16.826  20.360  0.00  0.00    +0.000 C 
ATOM     28  C   UNL     1      -1.414  15.347  20.291  0.00  0.00    +0.000 C 
ENDBRANCH  23  24
ENDBRANCH   6  23
TORSDOF 4
ENDMDL
MODEL 5
REMARK VINA RESULT:      -6.8      1.704      2.111
REMARK  Name = 
REMARK  6 active torsions:
REMARK  status: ('A' for Active; 'I' for Inactive)
REMARK    1  A    between atoms: C_1  and  N_2
REMARK    2  A    between atoms: C_4  and  C_5
REMARK    3  A    between atoms: C_7  and  S_8
REMARK    4  A    between atoms: S_8  and  C_9
REMARK    5  A    between atoms: C_14  and  O_15
REMARK    6  A    between atoms: O_15  and  C_16
REMARK                            x       y       z     vdW  Elec       q    Type
REMARK                         _______ _______ _______ _____ _____    ______ ____
ROOT
ATOM      1  C   UNL     1       2.576   6.858  18.905  0.00  0.00    +0.000 A 
ATOM      2  C   UNL     1       2.167   8.130  18.424  0.00  0.00    +0.000 A 
ATOM      3  C   UNL     1       1.425   9.014  19.223  0.00  0.00    +0.000 A 
ATOM      4  C   UNL     1       1.010   8.637  20.490  0.00  0.00    +0.000 A 
ATOM      5  C   UNL     1       1.413   7.401  20.976  0.00  0.00    +0.000 A 
ATOM      6  C   UNL     1       2.228   6.526  20.223  0.00  0.00    +0.000 A 
ENDROOT
BRANCH   1  10
ATOM      7  C   UNL     1       3.279   2.544  16.681  0.00  0.00    +0.000 C 
ATOM      8  N   UNL     1       3.732   3.907  16.872  0.00  0.00    +0.000 N 
ATOM      9  C   UNL     1       2.951   4.821  17.605  0.00  0.00    +0.000 A 
ATOM     10  C   UNL     1       3.391   6.063  17.941  0.00  0.00    +0.000 A 
ATOM     11  C   UNL     1       4.717   6.429  17.517  0.00  0.00    +0.000 A 
ATOM     12  C   UNL     1       5.506   7.585  17.701  0.00  0.00    +0.000 A 
ATOM     13  C   UNL     1       6.730   7.335  17.111  0.00  0.00    +0.000 A 
ATOM     14  N   UNL     1       6.700   6.072  16.574  0.00  0.00    +0.000 N 
ATOM     15  C   UNL     1       5.475   5.517  16.811  0.00  0.00    +0.000 A 
ATOM     16  C   UNL     1       5.044   4.200  16.444  0.00  0.00    +0.000 A 
ATOM     17  O   UNL     1       5.764   3.406  15.841  0.00  0.00    +0.000 OA
ATOM     18  H   UNL     1       7.461   5.602  16.094  0.00  0.00    +0.000 HD
ENDBRANCH   1  10
BRANCH   3  19
ATOM     19  S   UNL     1       1.198  10.707  18.723  0.00  0.00    +0.000 S 
ATOM     20  C   UNL     1       1.199  11.623  20.236  0.00  0.00    +0.000 C 
ATOM     21  O   UNL     1       2.376  11.096  17.968  0.00  0.00    +0.000 OA
ATOM     22  O   UNL     1      -0.122  10.806  18.132  0.00  0.00    +0.000 OA
ENDBRANCH   3  19
BRANCH   6  23
ATOM     23  O   UNL     1       2.666   5.532  21.033  0.00  0.00    +0.000 OA
BRANCH  23  24
ATOM     24  C   UNL     1       2.046   4.277  21.210  0.00  0.00    +0.000 C 
ATOM     25  C   UNL     1       0.865   4.271  20.236  0.00  0.00    +0.000 C 
ATOM     26  C   UNL     1       0.655   2.819  19.858  0.00  0.00    +0.000 C 
ATOM     27  C   UNL     1       2.014   2.147  20.012  0.00  0.00    +0.000 C 
ATOM     28  C   UNL     1       2.938   3.154  20.691  0.00  0.00    +0.000 C 
ENDBRANCH  23  24
ENDBRANCH   6  23
TORSDOF 4
ENDMDL
MODEL 6
REMARK VINA RESULT:      -6.8      0.979      1.373
REMARK  Name = 
REMARK  6 active torsions:
REMARK  status: ('A' for Active; 'I' for Inactive)
REMARK    1  A    between atoms: C_1  and  N_2
REMARK    2  A    between atoms: C_4  and  C_5
REMARK    3  A    between atoms: C_7  and  S_8
REMARK    4  A    between atoms: S_8  and  C_9
REMARK    5  A    between atoms: C_14  and  O_15
REMARK    6  A    between atoms: O_15  and  C_16
REMARK                            x       y       z     vdW  Elec       q    Type
REMARK                         _______ _______ _______ _____ _____    ______ ____
ROOT
ATOM      1  C   UNL     1       3.655   6.510  18.408  0.00  0.00    +0.000 A 
ATOM      2  C   UNL     1       3.052   7.720  17.974  0.00  0.00    +0.000 A 
ATOM      3  C   UNL     1       1.959   8.281  18.654  0.00  0.00    +0.000 A 
ATOM      4  C   UNL     1       1.391   7.626  19.735  0.00  0.00    +0.000 A 
ATOM      5  C   UNL     1       1.979   6.448  20.175  0.00  0.00    +0.000 A 
ATOM      6  C   UNL     1       3.129   5.905  19.559  0.00  0.00    +0.000 A 
ENDROOT
BRANCH   1  10
ATOM      7  C   UNL     1       5.283   4.730  14.138  0.00  0.00    +0.000 C 
ATOM      8  N   UNL     1       5.607   5.171  15.480  0.00  0.00    +0.000 N 
ATOM      9  C   UNL     1       4.626   5.780  16.285  0.00  0.00    +0.000 A 
ATOM     10  C   UNL     1       4.830   6.077  17.597  0.00  0.00    +0.000 A 
ATOM     11  C   UNL     1       6.113   5.741  18.157  0.00  0.00    +0.000 A 
ATOM     12  C   UNL     1       6.664   5.863  19.450  0.00  0.00    +0.000 A 
ATOM     13  C   UNL     1       7.930   5.310  19.402  0.00  0.00    +0.000 A 
ATOM     14  N   UNL     1       8.158   4.866  18.123  0.00  0.00    +0.000 N 
ATOM     15  C   UNL     1       7.058   5.132  17.358  0.00  0.00    +0.000 A 
ATOM     16  C   UNL     1       6.876   4.801  15.975  0.00  0.00    +0.000 A 
ATOM     17  O   UNL     1       7.735   4.229  15.306  0.00  0.00    +0.000 OA
ATOM     18  H   UNL     1       8.992   4.396  17.787  0.00  0.00    +0.000 HD
ENDBRANCH   1  10
BRANCH   3  19
ATOM     19  S   UNL     1       1.425   9.939  18.290  0.00  0.00    +0.000 S 
ATOM     20  C   UNL     1       1.222  10.700  19.873  0.00  0.00    +0.000 C 
ATOM     21  O   UNL     1       2.523  10.608  17.614  0.00  0.00    +0.000 OA
ATOM     22  O   UNL     1       0.123   9.842  17.660  0.00  0.00    +0.000 OA
ENDBRANCH   3  19
BRANCH   6  23
ATOM     23  O   UNL     1       3.620   4.917  20.346  0.00  0.00    +0.000 OA
BRANCH  23  24
ATOM     24  C   UNL     1       3.149   3.587  20.392  0.00  0.00    +0.000 C 
ATOM     25  C   UNL     1       2.279   3.511  21.649  0.00  0.00    +0.000 C 
ATOM     26  C   UNL     1       1.235   2.453  21.359  0.00  0.00    +0.000 C 
ATOM     27  C   UNL     1       1.061   2.442  19.846  0.00  0.00    +0.000 C 
ATOM     28  C   UNL     1       2.160   3.324  19.261  0.00  0.00    +0.000 C 
ENDBRANCH  23  24
ENDBRANCH   6  23
TORSDOF 4
ENDMDL
MODEL 7
REMARK VINA RESULT:      -6.8      7.854     11.126
REMARK  Name = 
REMARK  6 active torsions:
REMARK  status: ('A' for Active; 'I' for Inactive)
REMARK    1  A    between atoms: C_1  and  N_2
REMARK    2  A    between atoms: C_4  and  C_5
REMARK    3  A    between atoms: C_7  and  S_8
REMARK    4  A    between atoms: S_8  and  C_9
REMARK    5  A    between atoms: C_14  and  O_15
REMARK    6  A    between atoms: O_15  and  C_16
REMARK                            x       y       z     vdW  Elec       q    Type
REMARK                         _______ _______ _______ _____ _____    ______ ____
ROOT
ATOM      1  C   UNL     1      -1.328  11.974  19.299  0.00  0.00    +0.000 A 
ATOM      2  C   UNL     1      -1.030  10.859  20.127  0.00  0.00    +0.000 A 
ATOM      3  C   UNL     1       0.231  10.703  20.724  0.00  0.00    +0.000 A 
ATOM      4  C   UNL     1       1.250  11.605  20.461  0.00  0.00    +0.000 A 
ATOM      5  C   UNL     1       0.968  12.704  19.662  0.00  0.00    +0.000 A 
ATOM      6  C   UNL     1      -0.316  12.928  19.116  0.00  0.00    +0.000 A 
ENDROOT
BRANCH   1  10
ATOM      7  C   UNL     1      -6.100  12.422  20.339  0.00  0.00    +0.000 C 
ATOM      8  N   UNL     1      -5.086  12.205  19.327  0.00  0.00    +0.000 N 
ATOM      9  C   UNL     1      -3.721  12.340  19.645  0.00  0.00    +0.000 A 
ATOM     10  C   UNL     1      -2.726  12.005  18.780  0.00  0.00    +0.000 A 
ATOM     11  C   UNL     1      -3.116  11.494  17.493  0.00  0.00    +0.000 A 
ATOM     12  C   UNL     1      -2.389  11.025  16.378  0.00  0.00    +0.000 A 
ATOM     13  C   UNL     1      -3.314  10.601  15.443  0.00  0.00    +0.000 A 
ATOM     14  N   UNL     1      -4.570  10.805  15.956  0.00  0.00    +0.000 N 
ATOM     15  C   UNL     1      -4.458  11.355  17.201  0.00  0.00    +0.000 A 
ATOM     16  C   UNL     1      -5.531  11.694  18.089  0.00  0.00    +0.000 A 
ATOM     17  O   UNL     1      -6.715  11.525  17.801  0.00  0.00    +0.000 OA
ATOM     18  H   UNL     1      -5.451  10.573  15.507  0.00  0.00    +0.000 HD
ENDBRANCH   1  10
BRANCH   3  19
ATOM     19  S   UNL     1       0.482   9.485  21.996  0.00  0.00    +0.000 S 
ATOM     20  C   UNL     1      -0.674   9.917  23.262  0.00  0.00    +0.000 C 
ATOM     21  O   UNL     1       0.081   8.200  21.449  0.00  0.00    +0.000 OA
ATOM     22  O   UNL     1       1.821   9.678  22.517  0.00  0.00    +0.000 OA
ENDBRANCH   3  19
BRANCH   6  23
ATOM     23  O   UNL     1      -0.361  14.184  18.609  0.00  0.00    +0.000 OA
BRANCH  23  24
ATOM     24  C   UNL     1      -0.281  15.379  19.355  0.00  0.00    +0.000 C 
ATOM     25  C   UNL     1      -0.441  16.505  18.331  0.00  0.00    +0.000 C 
ATOM     26  C   UNL     1      -1.077  17.655  19.085  0.00  0.00    +0.000 C 
ATOM     27  C   UNL     1      -1.870  17.022  20.221  0.00  0.00    +0.000 C 
ATOM     28  C   UNL     1      -1.504  15.540  20.252  0.00  0.00    +0.000 C 
ENDBRANCH  23  24
ENDBRANCH   6  23
TORSDOF 4
ENDMDL
MODEL 8
REMARK VINA RESULT:      -6.6      7.120      9.857
REMARK  Name = 
REMARK  6 active torsions:
REMARK  status: ('A' for Active; 'I' for Inactive)
REMARK    1  A    between atoms: C_1  and  N_2
REMARK    2  A    between atoms: C_4  and  C_5
REMARK    3  A    between atoms: C_7  and  S_8
REMARK    4  A    between atoms: S_8  and  C_9
REMARK    5  A    between atoms: C_14  and  O_15
REMARK    6  A    between atoms: O_15  and  C_16
REMARK                            x       y       z     vdW  Elec       q    Type
REMARK                         _______ _______ _______ _____ _____    ______ ____
ROOT
ATOM      1  C   UNL     1      -0.429  12.986  19.319  0.00  0.00    +0.000 A 
ATOM      2  C   UNL     1      -0.339  14.366  18.994  0.00  0.00    +0.000 A 
ATOM      3  C   UNL     1       0.818  15.112  19.266  0.00  0.00    +0.000 A 
ATOM      4  C   UNL     1       1.888  14.532  19.930  0.00  0.00    +0.000 A 
ATOM      5  C   UNL     1       1.817  13.181  20.243  0.00  0.00    +0.000 A 
ATOM      6  C   UNL     1       0.697  12.389  19.907  0.00  0.00    +0.000 A 
ENDROOT
BRANCH   1  10
ATOM      7  C   UNL     1      -3.075  10.928  15.739  0.00  0.00    +0.000 C 
ATOM      8  N   UNL     1      -3.012  11.345  17.125  0.00  0.00    +0.000 N 
ATOM      9  C   UNL     1      -1.799  11.797  17.679  0.00  0.00    +0.000 A 
ATOM     10  C   UNL     1      -1.713  12.338  18.924  0.00  0.00    +0.000 A 
ATOM     11  C   UNL     1      -2.931  12.441  19.683  0.00  0.00    +0.000 A 
ATOM     12  C   UNL     1      -3.234  12.961  20.959  0.00  0.00    +0.000 A 
ATOM     13  C   UNL     1      -4.600  12.839  21.131  0.00  0.00    +0.000 A 
ATOM     14  N   UNL     1      -5.125  12.258  20.004  0.00  0.00    +0.000 N 
ATOM     15  C   UNL     1      -4.114  12.006  19.121  0.00  0.00    +0.000 A 
ATOM     16  C   UNL     1      -4.242  11.436  17.812  0.00  0.00    +0.000 A 
ATOM     17  O   UNL     1      -5.321  11.089  17.336  0.00  0.00    +0.000 OA
ATOM     18  H   UNL     1      -6.105  12.059  19.828  0.00  0.00    +0.000 HD
ENDBRANCH   1  10
BRANCH   3  19
ATOM     19  S   UNL     1       1.028  16.737  18.573  0.00  0.00    +0.000 S 
ATOM     20  C   UNL     1       1.245  17.795  19.974  0.00  0.00    +0.000 C 
ATOM     21  O   UNL     1       2.274  16.730  17.826  0.00  0.00    +0.000 OA
ATOM     22  O   UNL     1      -0.219  17.090  17.924  0.00  0.00    +0.000 OA
ENDBRANCH   3  19
BRANCH   6  23
ATOM     23  O   UNL     1       1.011  11.085  20.098  0.00  0.00    +0.000 OA
BRANCH  23  24
ATOM     24  C   UNL     1       0.946  10.392  21.326  0.00  0.00    +0.000 C 
ATOM     25  C   UNL     1      -0.172  11.076  22.115  0.00  0.00    +0.000 C 
ATOM     26  C   UNL     1      -0.751  10.004  23.015  0.00  0.00    +0.000 C 
ATOM     27  C   UNL     1      -0.499   8.681  22.305  0.00  0.00    +0.000 C 
ATOM     28  C   UNL     1       0.418   8.975  21.121  0.00  0.00    +0.000 C 
ENDBRANCH  23  24
ENDBRANCH   6  23
TORSDOF 4
ENDMDL
MODEL 9
REMARK VINA RESULT:      -6.6      6.622     10.308
REMARK  Name = 
REMARK  6 active torsions:
REMARK  status: ('A' for Active; 'I' for Inactive)
REMARK    1  A    between atoms: C_1  and  N_2
REMARK    2  A    between atoms: C_4  and  C_5
REMARK    3  A    between atoms: C_7  and  S_8
REMARK    4  A    between atoms: S_8  and  C_9
REMARK    5  A    between atoms: C_14  and  O_15
REMARK    6  A    between atoms: O_15  and  C_16
REMARK                            x       y       z     vdW  Elec       q    Type
REMARK                         _______ _______ _______ _____ _____    ______ ____
ROOT
ATOM      1  C   UNL     1      -1.765  12.514  22.582  0.00  0.00    +0.000 A 
ATOM      2  C   UNL     1      -3.163  12.352  22.775  0.00  0.00    +0.000 A 
ATOM      3  C   UNL     1      -3.903  13.242  23.568  0.00  0.00    +0.000 A 
ATOM      4  C   UNL     1      -3.271  14.271  24.247  0.00  0.00    +0.000 A 
ATOM      5  C   UNL     1      -1.907  14.447  24.058  0.00  0.00    +0.000 A 
ATOM      6  C   UNL     1      -1.153  13.615  23.200  0.00  0.00    +0.000 A 
ENDROOT
BRANCH   1  10
ATOM      7  C   UNL     1       1.515   8.903  22.075  0.00  0.00    +0.000 C 
ATOM      8  N   UNL     1       0.508   9.734  21.447  0.00  0.00    +0.000 N 
ATOM      9  C   UNL     1      -0.289  10.596  22.224  0.00  0.00    +0.000 A 
ATOM     10  C   UNL     1      -1.143  11.503  21.677  0.00  0.00    +0.000 A 
ATOM     11  C   UNL     1      -1.210  11.562  20.241  0.00  0.00    +0.000 A 
ATOM     12  C   UNL     1      -1.932  12.373  19.340  0.00  0.00    +0.000 A 
ATOM     13  C   UNL     1      -1.541  12.007  18.066  0.00  0.00    +0.000 A 
ATOM     14  N   UNL     1      -0.613  11.001  18.172  0.00  0.00    +0.000 N 
ATOM     15  C   UNL     1      -0.412  10.720  19.494  0.00  0.00    +0.000 A 
ATOM     16  C   UNL     1       0.500   9.756  20.036  0.00  0.00    +0.000 A 
ATOM     17  O   UNL     1       1.217   9.046  19.334  0.00  0.00    +0.000 OA
ATOM     18  H   UNL     1      -0.129  10.543  17.407  0.00  0.00    +0.000 HD
ENDBRANCH   1  10
BRANCH   3  19
ATOM     19  S   UNL     1      -5.682  13.209  23.541  0.00  0.00    +0.000 S 
ATOM     20  C   UNL     1      -6.096  12.846  21.861  0.00  0.00    +0.000 C 
ATOM     21  O   UNL     1      -6.105  12.083  24.356  0.00  0.00    +0.000 OA
ATOM     22  O   UNL     1      -6.141  14.550  23.844  0.00  0.00    +0.000 OA
ENDBRANCH   3  19
BRANCH   6  23
ATOM     23  O   UNL     1       0.068  14.171  23.015  0.00  0.00    +0.000 OA
BRANCH  23  24
ATOM     24  C   UNL     1       0.430  15.034  21.958  0.00  0.00    +0.000 C 
ATOM     25  C   UNL     1       1.234  14.166  20.988  0.00  0.00    +0.000 C 
ATOM     26  C   UNL     1       1.006  14.768  19.617  0.00  0.00    +0.000 C 
ATOM     27  C   UNL     1      -0.354  15.451  19.682  0.00  0.00    +0.000 C 
ATOM     28  C   UNL     1      -0.795  15.435  21.143  0.00  0.00    +0.000 C 
ENDBRANCH  23  24
ENDBRANCH   6  23
TORSDOF 4
ENDMDL
