MODEL 1
REMARK VINA RESULT:      -8.1      0.000      0.000
REMARK  Name = 
REMARK  12 active torsions:
REMARK  status: ('A' for Active; 'I' for Inactive)
REMARK    1  A    between atoms: C_1  and  C_2
REMARK    2  A    between atoms: C_2  and  C_3
REMARK    3  A    between atoms: C_2  and  O_4
REMARK    4  A    between atoms: C_2  and  C_5
REMARK    5  A    between atoms: C_8  and  C_9
REMARK    6  A    between atoms: C_9  and  C_10
REMARK    7  A    between atoms: C_12  and  C_13
REMARK    8  A    between atoms: C_15  and  C_16
REMARK    9  A    between atoms: C_16  and  O_17
REMARK   10  A    between atoms: C_18  and  O_19
REMARK   11  A    between atoms: C_20  and  O_21
REMARK   12  A    between atoms: C_22  and  O_23
REMARK                            x       y       z     vdW  Elec       q    Type
REMARK                         _______ _______ _______ _____ _____    ______ ____
ROOT
ATOM      1  C   UNL     1       4.879   4.736  19.157  0.00  0.00    +0.000 A 
ATOM      2  C   UNL     1       4.270   6.014  19.292  0.00  0.00    +0.000 A 
ATOM      3  C   UNL     1       2.931   6.182  19.710  0.00  0.00    +0.000 A 
ATOM      4  C   UNL     1       2.205   5.015  19.910  0.00  0.00    +0.000 A 
ATOM      5  C   UNL     1       2.832   3.768  19.903  0.00  0.00    +0.000 A 
ATOM      6  C   UNL     1       4.168   3.605  19.573  0.00  0.00    +0.000 A 
ATOM      7 CL   UNL     1       4.844   2.019  19.578  0.00  0.00    +0.000 Cl
ATOM      8  O   UNL     1       1.968   2.730  20.176  0.00  0.00    +0.000 OA
ATOM      9  C   UNL     1       0.691   3.300  19.838  0.00  0.00    +0.000 C 
ATOM     10  C   UNL     1       0.752   4.798  20.138  0.00  0.00    +0.000 C 
ENDROOT
BRANCH   3  11
ATOM     11  C   UNL     1       2.370   7.588  19.859  0.00  0.00    +0.000 C 
ATOM     12  O   UNL     1       1.410   7.617  20.929  0.00  0.00    +0.000 OA
ATOM     13  C   UNL     1       0.936   8.935  21.229  0.00  0.00    +0.000 C 
ATOM     14  C   UNL     1       0.197   9.515  20.012  0.00  0.00    +0.000 C 
ATOM     15  C   UNL     1       1.134   9.517  18.797  0.00  0.00    +0.000 C 
ATOM     16  C   UNL     1       1.753   8.127  18.549  0.00  0.00    +0.000 C 
BRANCH  14  17
ATOM     17  O   UNL     1      -0.295  10.832  20.295  0.00  0.00    +0.000 OA
ATOM     18  H   UNL     1      -1.208  10.904  19.958  0.00  0.00    +0.000 HD
ENDBRANCH  14  17
BRANCH  15  19
ATOM     19  O   UNL     1       0.447   9.983  17.630  0.00  0.00    +0.000 OA
ATOM     20  H   UNL     1      -0.499   9.765  17.719  0.00  0.00    +0.000 HD
ENDBRANCH  15  19
BRANCH  16  21
ATOM     21  O   UNL     1       2.737   8.208  17.507  0.00  0.00    +0.000 OA
ATOM     22  H   UNL     1       2.295   8.418  16.667  0.00  0.00    +0.000 HD
ENDBRANCH  16  21
BRANCH  13  23
ATOM     23  C   UNL     1       0.019   8.871  22.462  0.00  0.00    +0.000 C 
BRANCH  23  24
ATOM     24  O   UNL     1       0.191   9.987  23.331  0.00  0.00    +0.000 OA
ATOM     25  H   UNL     1      -0.587  10.571  23.206  0.00  0.00    +0.000 HD
ENDBRANCH  23  24
ENDBRANCH  13  23
ENDBRANCH   3  11
BRANCH   1  26
ATOM     26  C   UNL     1       6.226   4.638  18.462  0.00  0.00    +0.000 C 
BRANCH  26  30
ATOM     27  C   UNL     1       6.116   3.942  14.188  0.00  0.00    +0.000 A 
ATOM     28  C   UNL     1       7.191   4.626  14.784  0.00  0.00    +0.000 A 
ATOM     29  C   UNL     1       7.217   4.860  16.159  0.00  0.00    +0.000 A 
ATOM     30  C   UNL     1       6.174   4.421  16.979  0.00  0.00    +0.000 A 
ATOM     31  C   UNL     1       5.096   3.748  16.394  0.00  0.00    +0.000 A 
ATOM     32  C   UNL     1       5.071   3.511  15.019  0.00  0.00    +0.000 A 
BRANCH  27  34
ATOM     33  C   UNL     1       7.100   4.603  11.961  0.00  0.00    +0.000 C 
ATOM     34  C   UNL     1       6.096   3.696  12.684  0.00  0.00    +0.000 C 
ATOM     35  C   UNL     1       4.680   3.896  12.127  0.00  0.00    +0.000 C 
BRANCH  34  36
ATOM     36  O   UNL     1       6.475   2.342  12.401  0.00  0.00    +0.000 OA
ATOM     37  H   UNL     1       5.661   1.820  12.321  0.00  0.00    +0.000 HD
ENDBRANCH  34  36
ENDBRANCH  27  34
ENDBRANCH  26  30
ENDBRANCH   1  26
TORSDOF 10
ENDMDL
MODEL 2
REMARK VINA RESULT:      -7.9      4.728      8.581
REMARK  Name = 
REMARK  12 active torsions:
REMARK  status: ('A' for Active; 'I' for Inactive)
REMARK    1  A    between atoms: C_1  and  C_2
REMARK    2  A    between atoms: C_2  and  C_3
REMARK    3  A    between atoms: C_2  and  O_4
REMARK    4  A    between atoms: C_2  and  C_5
REMARK    5  A    between atoms: C_8  and  C_9
REMARK    6  A    between atoms: C_9  and  C_10
REMARK    7  A    between atoms: C_12  and  C_13
REMARK    8  A    between atoms: C_15  and  C_16
REMARK    9  A    between atoms: C_16  and  O_17
REMARK   10  A    between atoms: C_18  and  O_19
REMARK   11  A    between atoms: C_20  and  O_21
REMARK   12  A    between atoms: C_22  and  O_23
REMARK                            x       y       z     vdW  Elec       q    Type
REMARK                         _______ _______ _______ _____ _____    ______ ____
ROOT
ATOM      1  C   UNL     1      -1.031  11.477  19.175  0.00  0.00    +0.000 A 
ATOM      2  C   UNL     1      -1.479  12.269  20.268  0.00  0.00    +0.000 A 
ATOM      3  C   UNL     1      -2.834  12.629  20.446  0.00  0.00    +0.000 A 
ATOM      4  C   UNL     1      -3.707  12.227  19.442  0.00  0.00    +0.000 A 
ATOM      5  C   UNL     1      -3.295  11.345  18.442  0.00  0.00    +0.000 A 
ATOM      6  C   UNL     1      -1.982  10.924  18.310  0.00  0.00    +0.000 A 
ATOM      7 CL   UNL     1      -1.573   9.846  17.029  0.00  0.00    +0.000 Cl
ATOM      8  O   UNL     1      -4.308  11.013  17.568  0.00  0.00    +0.000 OA
ATOM      9  C   UNL     1      -5.224  12.110  17.733  0.00  0.00    +0.000 C 
ATOM     10  C   UNL     1      -5.125  12.591  19.182  0.00  0.00    +0.000 C 
ENDROOT
BRANCH   3  11
ATOM     11  C   UNL     1      -3.231  13.452  21.661  0.00  0.00    +0.000 C 
ATOM     12  O   UNL     1      -2.069  14.092  22.215  0.00  0.00    +0.000 OA
ATOM     13  C   UNL     1      -2.375  15.001  23.279  0.00  0.00    +0.000 C 
ATOM     14  C   UNL     1      -3.010  14.237  24.453  0.00  0.00    +0.000 C 
ATOM     15  C   UNL     1      -4.263  13.498  23.965  0.00  0.00    +0.000 C 
ATOM     16  C   UNL     1      -3.966  12.619  22.734  0.00  0.00    +0.000 C 
BRANCH  14  17
ATOM     17  O   UNL     1      -3.316  15.127  25.535  0.00  0.00    +0.000 OA
ATOM     18  H   UNL     1      -3.241  16.047  25.214  0.00  0.00    +0.000 HD
ENDBRANCH  14  17
BRANCH  15  19
ATOM     19  O   UNL     1      -4.832  12.717  25.022  0.00  0.00    +0.000 OA
ATOM     20  H   UNL     1      -5.642  13.160  25.335  0.00  0.00    +0.000 HD
ENDBRANCH  15  19
BRANCH  16  21
ATOM     21  O   UNL     1      -5.189  12.071  22.217  0.00  0.00    +0.000 OA
ATOM     22  H   UNL     1      -5.451  12.568  21.424  0.00  0.00    +0.000 HD
ENDBRANCH  16  21
BRANCH  13  23
ATOM     23  C   UNL     1      -1.087  15.722  23.712  0.00  0.00    +0.000 C 
BRANCH  23  24
ATOM     24  O   UNL     1      -0.605  15.269  24.973  0.00  0.00    +0.000 OA
ATOM     25  H   UNL     1       0.076  15.909  25.269  0.00  0.00    +0.000 HD
ENDBRANCH  23  24
ENDBRANCH  13  23
ENDBRANCH   3  11
BRANCH   1  26
ATOM     26  C   UNL     1       0.461  11.357  18.924  0.00  0.00    +0.000 C 
BRANCH  26  30
ATOM     27  C   UNL     1       2.048   7.350  19.364  0.00  0.00    +0.000 A 
ATOM     28  C   UNL     1       1.410   7.998  20.435  0.00  0.00    +0.000 A 
ATOM     29  C   UNL     1       0.911   9.293  20.295  0.00  0.00    +0.000 A 
ATOM     30  C   UNL     1       1.035   9.980  19.084  0.00  0.00    +0.000 A 
ATOM     31  C   UNL     1       1.677   9.347  18.015  0.00  0.00    +0.000 A 
ATOM     32  C   UNL     1       2.173   8.049  18.154  0.00  0.00    +0.000 A 
BRANCH  27  34
ATOM     33  C   UNL     1       2.445   5.130  18.232  0.00  0.00    +0.000 C 
ATOM     34  C   UNL     1       2.593   5.936  19.530  0.00  0.00    +0.000 C 
ATOM     35  C   UNL     1       1.894   5.225  20.696  0.00  0.00    +0.000 C 
BRANCH  34  36
ATOM     36  O   UNL     1       3.993   5.980  19.838  0.00  0.00    +0.000 OA
ATOM     37  H   UNL     1       4.322   6.857  19.581  0.00  0.00    +0.000 HD
ENDBRANCH  34  36
ENDBRANCH  27  34
ENDBRANCH  26  30
ENDBRANCH   1  26
TORSDOF 10
ENDMDL
MODEL 3
REMARK VINA RESULT:      -7.9      4.917      8.495
REMARK  Name = 
REMARK  12 active torsions:
REMARK  status: ('A' for Active; 'I' for Inactive)
REMARK    1  A    between atoms: C_1  and  C_2
REMARK    2  A    between atoms: C_2  and  C_3
REMARK    3  A    between atoms: C_2  and  O_4
REMARK    4  A    between atoms: C_2  and  C_5
REMARK    5  A    between atoms: C_8  and  C_9
REMARK    6  A    between atoms: C_9  and  C_10
REMARK    7  A    between atoms: C_12  and  C_13
REMARK    8  A    between atoms: C_15  and  C_16
REMARK    9  A    between atoms: C_16  and  O_17
REMARK   10  A    between atoms: C_18  and  O_19
REMARK   11  A    between atoms: C_20  and  O_21
REMARK   12  A    between atoms: C_22  and  O_23
REMARK                            x       y       z     vdW  Elec       q    Type
REMARK                         _______ _______ _______ _____ _____    ______ ____
ROOT
ATOM      1  C   UNL     1      -0.881  11.337  18.983  0.00  0.00    +0.000 A 
ATOM      2  C   UNL     1      -1.241  12.169  20.079  0.00  0.00    +0.000 A 
ATOM      3  C   UNL     1      -2.574  12.562  20.333  0.00  0.00    +0.000 A 
ATOM      4  C   UNL     1      -3.518  12.153  19.399  0.00  0.00    +0.000 A 
ATOM      5  C   UNL     1      -3.190  11.235  18.401  0.00  0.00    +0.000 A 
ATOM      6  C   UNL     1      -1.897  10.781  18.197  0.00  0.00    +0.000 A 
ATOM      7 CL   UNL     1      -1.593   9.659  16.924  0.00  0.00    +0.000 Cl
ATOM      8  O   UNL     1      -4.263  10.901  17.603  0.00  0.00    +0.000 OA
ATOM      9  C   UNL     1      -5.145  12.022  17.795  0.00  0.00    +0.000 C 
ATOM     10  C   UNL     1      -4.942  12.540  19.220  0.00  0.00    +0.000 C 
ENDROOT
BRANCH   3  11
ATOM     11  C   UNL     1      -2.875  13.428  21.547  0.00  0.00    +0.000 C 
ATOM     12  O   UNL     1      -3.604  12.662  22.520  0.00  0.00    +0.000 OA
ATOM     13  C   UNL     1      -3.806  13.360  23.755  0.00  0.00    +0.000 C 
ATOM     14  C   UNL     1      -4.659  14.617  23.512  0.00  0.00    +0.000 C 
ATOM     15  C   UNL     1      -3.973  15.507  22.467  0.00  0.00    +0.000 C 
ATOM     16  C   UNL     1      -3.633  14.724  21.184  0.00  0.00    +0.000 C 
BRANCH  14  17
ATOM     17  O   UNL     1      -4.882  15.326  24.738  0.00  0.00    +0.000 OA
ATOM     18  H   UNL     1      -4.118  15.910  24.906  0.00  0.00    +0.000 HD
ENDBRANCH  14  17
BRANCH  15  19
ATOM     19  O   UNL     1      -4.784  16.648  22.167  0.00  0.00    +0.000 OA
ATOM     20  H   UNL     1      -4.358  17.440  22.544  0.00  0.00    +0.000 HD
ENDBRANCH  15  19
BRANCH  16  21
ATOM     21  O   UNL     1      -2.857  15.548  20.299  0.00  0.00    +0.000 OA
ATOM     22  H   UNL     1      -2.479  16.289  20.802  0.00  0.00    +0.000 HD
ENDBRANCH  16  21
BRANCH  13  23
ATOM     23  C   UNL     1      -4.479  12.414  24.764  0.00  0.00    +0.000 C 
BRANCH  23  24
ATOM     24  O   UNL     1      -5.883  12.298  24.552  0.00  0.00    +0.000 OA
ATOM     25  H   UNL     1      -6.175  11.476  25.001  0.00  0.00    +0.000 HD
ENDBRANCH  23  24
ENDBRANCH  13  23
ENDBRANCH   3  11
BRANCH   1  26
ATOM     26  C   UNL     1       0.589  11.177  18.641  0.00  0.00    +0.000 C 
BRANCH  26  30
ATOM     27  C   UNL     1       2.173   7.197  19.286  0.00  0.00    +0.000 A 
ATOM     28  C   UNL     1       1.544   7.903  20.326  0.00  0.00    +0.000 A 
ATOM     29  C   UNL     1       1.047   9.190  20.119  0.00  0.00    +0.000 A 
ATOM     30  C   UNL     1       1.162   9.810  18.870  0.00  0.00    +0.000 A 
ATOM     31  C   UNL     1       1.794   9.118  17.833  0.00  0.00    +0.000 A 
ATOM     32  C   UNL     1       2.290   7.829  18.039  0.00  0.00    +0.000 A 
BRANCH  27  34
ATOM     33  C   UNL     1       2.548   4.914  18.277  0.00  0.00    +0.000 C 
ATOM     34  C   UNL     1       2.717   5.793  19.525  0.00  0.00    +0.000 C 
ATOM     35  C   UNL     1       2.033   5.152  20.740  0.00  0.00    +0.000 C 
BRANCH  34  36
ATOM     36  O   UNL     1       4.121   5.850  19.810  0.00  0.00    +0.000 OA
ATOM     37  H   UNL     1       4.464   6.675  19.430  0.00  0.00    +0.000 HD
ENDBRANCH  34  36
ENDBRANCH  27  34
ENDBRANCH  26  30
ENDBRANCH   1  26
TORSDOF 10
ENDMDL
MODEL 4
REMARK VINA RESULT:      -7.5      3.924      6.438
REMARK  Name = 
REMARK  12 active torsions:
REMARK  status: ('A' for Active; 'I' for Inactive)
REMARK    1  A    between atoms: C_1  and  C_2
REMARK    2  A    between atoms: C_2  and  C_3
REMARK    3  A    between atoms: C_2  and  O_4
REMARK    4  A    between atoms: C_2  and  C_5
REMARK    5  A    between atoms: C_8  and  C_9
REMARK    6  A    between atoms: C_9  and  C_10
REMARK    7  A    between atoms: C_12  and  C_13
REMARK    8  A    between atoms: C_15  and  C_16
REMARK    9  A    between atoms: C_16  and  O_17
REMARK   10  A    between atoms: C_18  and  O_19
REMARK   11  A    between atoms: C_20  and  O_21
REMARK   12  A    between atoms: C_22  and  O_23
REMARK                            x       y       z     vdW  Elec       q    Type
REMARK                         _______ _______ _______ _____ _____    ______ ____
ROOT
ATOM      1  C   UNL     1       1.369   9.362  18.924  0.00  0.00    +0.000 A 
ATOM      2  C   UNL     1       1.430  10.704  18.458  0.00  0.00    +0.000 A 
ATOM      3  C   UNL     1       1.131  11.813  19.281  0.00  0.00    +0.000 A 
ATOM      4  C   UNL     1       0.694  11.517  20.566  0.00  0.00    +0.000 A 
ATOM      5  C   UNL     1       0.757  10.215  21.064  0.00  0.00    +0.000 A 
ATOM      6  C   UNL     1       1.129   9.132  20.283  0.00  0.00    +0.000 A 
ATOM      7 CL   UNL     1       1.158   7.560  20.990  0.00  0.00    +0.000 Cl
ATOM      8  O   UNL     1       0.337  10.119  22.373  0.00  0.00    +0.000 OA
ATOM      9  C   UNL     1      -0.481  11.294  22.517  0.00  0.00    +0.000 C 
ATOM     10  C   UNL     1       0.102  12.385  21.618  0.00  0.00    +0.000 C 
ENDROOT
BRANCH   3  11
ATOM     11  C   UNL     1       1.253  13.217  18.710  0.00  0.00    +0.000 C 
ATOM     12  O   UNL     1       2.355  13.900  19.329  0.00  0.00    +0.000 OA
ATOM     13  C   UNL     1       2.628  15.181  18.747  0.00  0.00    +0.000 C 
ATOM     14  C   UNL     1       1.420  16.112  18.942  0.00  0.00    +0.000 C 
ATOM     15  C   UNL     1       0.172  15.467  18.325  0.00  0.00    +0.000 C 
ATOM     16  C   UNL     1      -0.051  14.034  18.849  0.00  0.00    +0.000 C 
BRANCH  14  17
ATOM     17  O   UNL     1       1.676  17.404  18.375  0.00  0.00    +0.000 OA
ATOM     18  H   UNL     1       0.823  17.818  18.143  0.00  0.00    +0.000 HD
ENDBRANCH  14  17
BRANCH  15  19
ATOM     19  O   UNL     1      -0.984  16.279  18.558  0.00  0.00    +0.000 OA
ATOM     20  H   UNL     1      -0.875  16.736  19.412  0.00  0.00    +0.000 HD
ENDBRANCH  15  19
BRANCH  16  21
ATOM     21  O   UNL     1      -1.131  13.414  18.134  0.00  0.00    +0.000 OA
ATOM     22  H   UNL     1      -1.687  12.921  18.761  0.00  0.00    +0.000 HD
ENDBRANCH  16  21
BRANCH  13  23
ATOM     23  C   UNL     1       3.896  15.767  19.393  0.00  0.00    +0.000 C 
BRANCH  23  24
ATOM     24  O   UNL     1       4.373  16.923  18.710  0.00  0.00    +0.000 OA
ATOM     25  H   UNL     1       3.633  17.258  18.160  0.00  0.00    +0.000 HD
ENDBRANCH  23  24
ENDBRANCH  13  23
ENDBRANCH   3  11
BRANCH   1  26
ATOM     26  C   UNL     1       1.454   8.234  17.912  0.00  0.00    +0.000 C 
BRANCH  26  30
ATOM     27  C   UNL     1       5.061   5.836  17.984  0.00  0.00    +0.000 A 
ATOM     28  C   UNL     1       3.877   5.381  18.589  0.00  0.00    +0.000 A 
ATOM     29  C   UNL     1       2.721   6.160  18.576  0.00  0.00    +0.000 A 
ATOM     30  C   UNL     1       2.711   7.416  17.960  0.00  0.00    +0.000 A 
ATOM     31  C   UNL     1       3.887   7.881  17.364  0.00  0.00    +0.000 A 
ATOM     32  C   UNL     1       5.044   7.099  17.374  0.00  0.00    +0.000 A 
BRANCH  27  34
ATOM     33  C   UNL     1       7.501   5.743  18.621  0.00  0.00    +0.000 C 
ATOM     34  C   UNL     1       6.321   4.977  18.008  0.00  0.00    +0.000 C 
ATOM     35  C   UNL     1       6.663   4.487  16.595  0.00  0.00    +0.000 C 
BRANCH  34  36
ATOM     36  O   UNL     1       6.109   3.815  18.821  0.00  0.00    +0.000 OA
ATOM     37  H   UNL     1       6.937   3.308  18.829  0.00  0.00    +0.000 HD
ENDBRANCH  34  36
ENDBRANCH  27  34
ENDBRANCH  26  30
ENDBRANCH   1  26
TORSDOF 10
ENDMDL
MODEL 5
REMARK VINA RESULT:      -7.2      4.842      8.235
REMARK  Name = 
REMARK  12 active torsions:
REMARK  status: ('A' for Active; 'I' for Inactive)
REMARK    1  A    between atoms: C_1  and  C_2
REMARK    2  A    between atoms: C_2  and  C_3
REMARK    3  A    between atoms: C_2  and  O_4
REMARK    4  A    between atoms: C_2  and  C_5
REMARK    5  A    between atoms: C_8  and  C_9
REMARK    6  A    between atoms: C_9  and  C_10
REMARK    7  A    between atoms: C_12  and  C_13
REMARK    8  A    between atoms: C_15  and  C_16
REMARK    9  A    between atoms: C_16  and  O_17
REMARK   10  A    between atoms: C_18  and  O_19
REMARK   11  A    between atoms: C_20  and  O_21
REMARK   12  A    between atoms: C_22  and  O_23
REMARK                            x       y       z     vdW  Elec       q    Type
REMARK                         _______ _______ _______ _____ _____    ______ ____
ROOT
ATOM      1  C   UNL     1      -0.698  11.368  19.081  0.00  0.00    +0.000 A 
ATOM      2  C   UNL     1      -1.138  12.193  20.152  0.00  0.00    +0.000 A 
ATOM      3  C   UNL     1      -2.496  12.532  20.347  0.00  0.00    +0.000 A 
ATOM      4  C   UNL     1      -3.382  12.076  19.379  0.00  0.00    +0.000 A 
ATOM      5  C   UNL     1      -2.974  11.164  18.404  0.00  0.00    +0.000 A 
ATOM      6  C   UNL     1      -1.656  10.764  18.259  0.00  0.00    +0.000 A 
ATOM      7 CL   UNL     1      -1.252   9.646  17.011  0.00  0.00    +0.000 Cl
ATOM      8  O   UNL     1      -3.999  10.779  17.566  0.00  0.00    +0.000 OA
ATOM      9  C   UNL     1      -4.934  11.863  17.711  0.00  0.00    +0.000 C 
ATOM     10  C   UNL     1      -4.813  12.401  19.137  0.00  0.00    +0.000 C 
ENDROOT
BRANCH   3  11
ATOM     11  C   UNL     1      -2.883  13.394  21.539  0.00  0.00    +0.000 C 
ATOM     12  O   UNL     1      -3.679  12.625  22.456  0.00  0.00    +0.000 OA
ATOM     13  C   UNL     1      -3.968  13.319  23.676  0.00  0.00    +0.000 C 
ATOM     14  C   UNL     1      -4.803  14.575  23.376  0.00  0.00    +0.000 C 
ATOM     15  C   UNL     1      -4.047  15.469  22.385  0.00  0.00    +0.000 C 
ATOM     16  C   UNL     1      -3.615  14.690  21.127  0.00  0.00    +0.000 C 
BRANCH  14  17
ATOM     17  O   UNL     1      -5.113  15.281  24.586  0.00  0.00    +0.000 OA
ATOM     18  H   UNL     1      -4.599  16.110  24.605  0.00  0.00    +0.000 HD
ENDBRANCH  14  17
BRANCH  15  19
ATOM     19  O   UNL     1      -4.836  16.610  22.031  0.00  0.00    +0.000 OA
ATOM     20  H   UNL     1      -5.462  16.792  22.756  0.00  0.00    +0.000 HD
ENDBRANCH  15  19
BRANCH  16  21
ATOM     21  O   UNL     1      -2.780  15.517  20.301  0.00  0.00    +0.000 OA
ATOM     22  H   UNL     1      -1.883  15.538  20.675  0.00  0.00    +0.000 HD
ENDBRANCH  16  21
BRANCH  13  23
ATOM     23  C   UNL     1      -4.709  12.369  24.632  0.00  0.00    +0.000 C 
BRANCH  23  24
ATOM     24  O   UNL     1      -4.371  12.594  25.997  0.00  0.00    +0.000 OA
ATOM     25  H   UNL     1      -4.932  13.332  26.315  0.00  0.00    +0.000 HD
ENDBRANCH  23  24
ENDBRANCH  13  23
ENDBRANCH   3  11
BRANCH   1  26
ATOM     26  C   UNL     1       0.791  11.268  18.801  0.00  0.00    +0.000 C 
BRANCH  26  30
ATOM     27  C   UNL     1       2.459   7.273  18.645  0.00  0.00    +0.000 A 
ATOM     28  C   UNL     1       2.568   8.147  17.550  0.00  0.00    +0.000 A 
ATOM     29  C   UNL     1       2.019   9.428  17.597  0.00  0.00    +0.000 A 
ATOM     30  C   UNL     1       1.344   9.876  18.738  0.00  0.00    +0.000 A 
ATOM     31  C   UNL     1       1.223   9.010  19.829  0.00  0.00    +0.000 A 
ATOM     32  C   UNL     1       1.775   7.728  19.783  0.00  0.00    +0.000 A 
BRANCH  27  34
ATOM     33  C   UNL     1       3.716   5.490  19.913  0.00  0.00    +0.000 C 
ATOM     34  C   UNL     1       3.059   5.873  18.580  0.00  0.00    +0.000 C 
ATOM     35  C   UNL     1       4.067   5.775  17.427  0.00  0.00    +0.000 C 
BRANCH  34  36
ATOM     36  O   UNL     1       2.030   4.907  18.328  0.00  0.00    +0.000 OA
ATOM     37  H   UNL     1       2.132   4.193  18.978  0.00  0.00    +0.000 HD
ENDBRANCH  34  36
ENDBRANCH  27  34
ENDBRANCH  26  30
ENDBRANCH   1  26
TORSDOF 10
ENDMDL
MODEL 6
REMARK VINA RESULT:      -7.1      3.562      5.855
REMARK  Name = 
REMARK  12 active torsions:
REMARK  status: ('A' for Active; 'I' for Inactive)
REMARK    1  A    between atoms: C_1  and  C_2
REMARK    2  A    between atoms: C_2  and  C_3
REMARK    3  A    between atoms: C_2  and  O_4
REMARK    4  A    between atoms: C_2  and  C_5
REMARK    5  A    between atoms: C_8  and  C_9
REMARK    6  A    between atoms: C_9  and  C_10
REMARK    7  A    between atoms: C_12  and  C_13
REMARK    8  A    between atoms: C_15  and  C_16
REMARK    9  A    between atoms: C_16  and  O_17
REMARK   10  A    between atoms: C_18  and  O_19
REMARK   11  A    between atoms: C_20  and  O_21
REMARK   12  A    between atoms: C_22  and  O_23
REMARK                            x       y       z     vdW  Elec       q    Type
REMARK                         _______ _______ _______ _____ _____    ______ ____
ROOT
ATOM      1  C   UNL     1       1.336   9.054  19.040  0.00  0.00    +0.000 A 
ATOM      2  C   UNL     1       1.377  10.458  18.818  0.00  0.00    +0.000 A 
ATOM      3  C   UNL     1       1.025  11.400  19.811  0.00  0.00    +0.000 A 
ATOM      4  C   UNL     1       0.555  10.875  21.008  0.00  0.00    +0.000 A 
ATOM      5  C   UNL     1       0.635   9.507  21.273  0.00  0.00    +0.000 A 
ATOM      6  C   UNL     1       1.057   8.585  20.329  0.00  0.00    +0.000 A 
ATOM      7 CL   UNL     1       1.103   6.914  20.751  0.00  0.00    +0.000 Cl
ATOM      8  O   UNL     1       0.175   9.175  22.530  0.00  0.00    +0.000 OA
ATOM      9  C   UNL     1      -0.676  10.291  22.847  0.00  0.00    +0.000 C 
ATOM     10  C   UNL     1      -0.091  11.533  22.174  0.00  0.00    +0.000 C 
ENDROOT
BRANCH   3  11
ATOM     11  C   UNL     1       1.130  12.884  19.498  0.00  0.00    +0.000 C 
ATOM     12  O   UNL     1       1.948  13.532  20.487  0.00  0.00    +0.000 OA
ATOM     13  C   UNL     1       2.215  14.908  20.188  0.00  0.00    +0.000 C 
ATOM     14  C   UNL     1       0.899  15.704  20.171  0.00  0.00    +0.000 C 
ATOM     15  C   UNL     1      -0.063  15.083  19.151  0.00  0.00    +0.000 C 
ATOM     16  C   UNL     1      -0.249  13.571  19.387  0.00  0.00    +0.000 C 
BRANCH  14  17
ATOM     17  O   UNL     1       1.144  17.088  19.884  0.00  0.00    +0.000 OA
ATOM     18  H   UNL     1       0.377  17.448  19.401  0.00  0.00    +0.000 HD
ENDBRANCH  14  17
BRANCH  15  19
ATOM     19  O   UNL     1      -1.325  15.760  19.169  0.00  0.00    +0.000 OA
ATOM     20  H   UNL     1      -1.873  15.413  18.442  0.00  0.00    +0.000 HD
ENDBRANCH  15  19
BRANCH  16  21
ATOM     21  O   UNL     1      -1.028  13.001  18.323  0.00  0.00    +0.000 OA
ATOM     22  H   UNL     1      -1.828  12.595  18.696  0.00  0.00    +0.000 HD
ENDBRANCH  16  21
BRANCH  13  23
ATOM     23  C   UNL     1       3.195  15.469  21.233  0.00  0.00    +0.000 C 
BRANCH  23  24
ATOM     24  O   UNL     1       2.937  14.976  22.544  0.00  0.00    +0.000 OA
ATOM     25  H   UNL     1       3.620  15.358  23.135  0.00  0.00    +0.000 HD
ENDBRANCH  23  24
ENDBRANCH  13  23
ENDBRANCH   3  11
BRANCH   1  26
ATOM     26  C   UNL     1       1.481   8.122  17.851  0.00  0.00    +0.000 C 
BRANCH  26  30
ATOM     27  C   UNL     1       5.099   5.741  17.866  0.00  0.00    +0.000 A 
ATOM     28  C   UNL     1       5.125   7.095  17.491  0.00  0.00    +0.000 A 
ATOM     29  C   UNL     1       3.956   7.857  17.475  0.00  0.00    +0.000 A 
ATOM     30  C   UNL     1       2.729   7.290  17.831  0.00  0.00    +0.000 A 
ATOM     31  C   UNL     1       2.692   5.941  18.196  0.00  0.00    +0.000 A 
ATOM     32  C   UNL     1       3.862   5.179  18.215  0.00  0.00    +0.000 A 
BRANCH  27  34
ATOM     33  C   UNL     1       7.545   5.711  18.487  0.00  0.00    +0.000 C 
ATOM     34  C   UNL     1       6.383   4.918  17.876  0.00  0.00    +0.000 C 
ATOM     35  C   UNL     1       6.729   4.447  16.457  0.00  0.00    +0.000 C 
BRANCH  34  36
ATOM     36  O   UNL     1       6.208   3.744  18.682  0.00  0.00    +0.000 OA
ATOM     37  H   UNL     1       6.186   4.026  19.610  0.00  0.00    +0.000 HD
ENDBRANCH  34  36
ENDBRANCH  27  34
ENDBRANCH  26  30
ENDBRANCH   1  26
TORSDOF 10
ENDMDL
MODEL 7
REMARK VINA RESULT:      -7.1      3.644      6.014
REMARK  Name = 
REMARK  12 active torsions:
REMARK  status: ('A' for Active; 'I' for Inactive)
REMARK    1  A    between atoms: C_1  and  C_2
REMARK    2  A    between atoms: C_2  and  C_3
REMARK    3  A    between atoms: C_2  and  O_4
REMARK    4  A    between atoms: C_2  and  C_5
REMARK    5  A    between atoms: C_8  and  C_9
REMARK    6  A    between atoms: C_9  and  C_10
REMARK    7  A    between atoms: C_12  and  C_13
REMARK    8  A    between atoms: C_15  and  C_16
REMARK    9  A    between atoms: C_16  and  O_17
REMARK   10  A    between atoms: C_18  and  O_19
REMARK   11  A    between atoms: C_20  and  O_21
REMARK   12  A    between atoms: C_22  and  O_23
REMARK                            x       y       z     vdW  Elec       q    Type
REMARK                         _______ _______ _______ _____ _____    ______ ____
ROOT
ATOM      1  C   UNL     1       1.414   8.869  19.120  0.00  0.00    +0.000 A 
ATOM      2  C   UNL     1       1.427  10.211  18.652  0.00  0.00    +0.000 A 
ATOM      3  C   UNL     1       1.059  11.307  19.464  0.00  0.00    +0.000 A 
ATOM      4  C   UNL     1       0.603  10.995  20.738  0.00  0.00    +0.000 A 
ATOM      5  C   UNL     1       0.711   9.697  21.241  0.00  0.00    +0.000 A 
ATOM      6  C   UNL     1       1.149   8.631  20.473  0.00  0.00    +0.000 A 
ATOM      7 CL   UNL     1       1.229   7.063  21.185  0.00  0.00    +0.000 Cl
ATOM      8  O   UNL     1       0.262   9.586  22.540  0.00  0.00    +0.000 OA
ATOM      9  C   UNL     1      -0.610  10.723  22.659  0.00  0.00    +0.000 C 
ATOM     10  C   UNL     1      -0.052  11.838  21.773  0.00  0.00    +0.000 C 
ENDROOT
BRANCH   3  11
ATOM     11  C   UNL     1       1.134  12.715  18.891  0.00  0.00    +0.000 C 
ATOM     12  O   UNL     1       2.281  13.397  19.426  0.00  0.00    +0.000 OA
ATOM     13  C   UNL     1       2.505  14.680  18.831  0.00  0.00    +0.000 C 
ATOM     14  C   UNL     1       1.314  15.608  19.124  0.00  0.00    +0.000 C 
ATOM     15  C   UNL     1       0.023  14.964  18.603  0.00  0.00    +0.000 C 
ATOM     16  C   UNL     1      -0.156  13.528  19.136  0.00  0.00    +0.000 C 
BRANCH  14  17
ATOM     17  O   UNL     1       1.523  16.903  18.546  0.00  0.00    +0.000 OA
ATOM     18  H   UNL     1       0.692  17.411  18.607  0.00  0.00    +0.000 HD
ENDBRANCH  14  17
BRANCH  15  19
ATOM     19  O   UNL     1      -1.112  15.773  18.930  0.00  0.00    +0.000 OA
ATOM     20  H   UNL     1      -0.843  16.431  19.597  0.00  0.00    +0.000 HD
ENDBRANCH  15  19
BRANCH  16  21
ATOM     21  O   UNL     1      -1.287  12.909  18.505  0.00  0.00    +0.000 OA
ATOM     22  H   UNL     1      -1.616  13.490  17.798  0.00  0.00    +0.000 HD
ENDBRANCH  16  21
BRANCH  13  23
ATOM     23  C   UNL     1       3.818  15.266  19.379  0.00  0.00    +0.000 C 
BRANCH  23  24
ATOM     24  O   UNL     1       3.599  16.282  20.352  0.00  0.00    +0.000 OA
ATOM     25  H   UNL     1       3.072  15.880  21.075  0.00  0.00    +0.000 HD
ENDBRANCH  23  24
ENDBRANCH  13  23
ENDBRANCH   3  11
BRANCH   1  26
ATOM     26  C   UNL     1       1.574   7.743  18.114  0.00  0.00    +0.000 C 
BRANCH  26  30
ATOM     27  C   UNL     1       5.627   6.276  17.691  0.00  0.00    +0.000 A 
ATOM     28  C   UNL     1       5.156   7.339  16.902  0.00  0.00    +0.000 A 
ATOM     29  C   UNL     1       3.846   7.801  17.031  0.00  0.00    +0.000 A 
ATOM     30  C   UNL     1       2.969   7.217  17.949  0.00  0.00    +0.000 A 
ATOM     31  C   UNL     1       3.426   6.152  18.732  0.00  0.00    +0.000 A 
ATOM     32  C   UNL     1       4.738   5.691  18.605  0.00  0.00    +0.000 A 
BRANCH  27  34
ATOM     33  C   UNL     1       7.098   4.410  16.841  0.00  0.00    +0.000 C 
ATOM     34  C   UNL     1       7.060   5.776  17.538  0.00  0.00    +0.000 C 
ATOM     35  C   UNL     1       7.753   5.711  18.906  0.00  0.00    +0.000 C 
BRANCH  34  36
ATOM     36  O   UNL     1       7.814   6.684  16.723  0.00  0.00    +0.000 OA
ATOM     37  H   UNL     1       8.126   7.403  17.296  0.00  0.00    +0.000 HD
ENDBRANCH  34  36
ENDBRANCH  27  34
ENDBRANCH  26  30
ENDBRANCH   1  26
TORSDOF 10
ENDMDL
MODEL 8
REMARK VINA RESULT:      -7.0      4.905      8.577
REMARK  Name = 
REMARK  12 active torsions:
REMARK  status: ('A' for Active; 'I' for Inactive)
REMARK    1  A    between atoms: C_1  and  C_2
REMARK    2  A    between atoms: C_2  and  C_3
REMARK    3  A    between atoms: C_2  and  O_4
REMARK    4  A    between atoms: C_2  and  C_5
REMARK    5  A    between atoms: C_8  and  C_9
REMARK    6  A    between atoms: C_9  and  C_10
REMARK    7  A    between atoms: C_12  and  C_13
REMARK    8  A    between atoms: C_15  and  C_16
REMARK    9  A    between atoms: C_16  and  O_17
REMARK   10  A    between atoms: C_18  and  O_19
REMARK   11  A    between atoms: C_20  and  O_21
REMARK   12  A    between atoms: C_22  and  O_23
REMARK                            x       y       z     vdW  Elec       q    Type
REMARK                         _______ _______ _______ _____ _____    ______ ____
ROOT
ATOM      1  C   UNL     1      -0.858  11.391  19.044  0.00  0.00    +0.000 A 
ATOM      2  C   UNL     1      -1.197  12.261  20.117  0.00  0.00    +0.000 A 
ATOM      3  C   UNL     1      -2.526  12.659  20.387  0.00  0.00    +0.000 A 
ATOM      4  C   UNL     1      -3.489  12.213  19.490  0.00  0.00    +0.000 A 
ATOM      5  C   UNL     1      -3.179  11.261  18.518  0.00  0.00    +0.000 A 
ATOM      6  C   UNL     1      -1.889  10.804  18.302  0.00  0.00    +0.000 A 
ATOM      7 CL   UNL     1      -1.609   9.639  17.063  0.00  0.00    +0.000 Cl
ATOM      8  O   UNL     1      -4.269  10.895  17.757  0.00  0.00    +0.000 OA
ATOM      9  C   UNL     1      -5.150  12.019  17.929  0.00  0.00    +0.000 C 
ATOM     10  C   UNL     1      -4.918  12.588  19.329  0.00  0.00    +0.000 C 
ENDROOT
BRANCH   3  11
ATOM     11  C   UNL     1      -2.803  13.566  21.576  0.00  0.00    +0.000 C 
ATOM     12  O   UNL     1      -3.117  14.890  21.113  0.00  0.00    +0.000 OA
ATOM     13  C   UNL     1      -3.530  15.774  22.163  0.00  0.00    +0.000 C 
ATOM     14  C   UNL     1      -2.383  15.962  23.169  0.00  0.00    +0.000 C 
ATOM     15  C   UNL     1      -1.955  14.596  23.719  0.00  0.00    +0.000 C 
ATOM     16  C   UNL     1      -1.638  13.597  22.589  0.00  0.00    +0.000 C 
BRANCH  14  17
ATOM     17  O   UNL     1      -2.771  16.853  24.224  0.00  0.00    +0.000 OA
ATOM     18  H   UNL     1      -2.671  17.772  23.911  0.00  0.00    +0.000 HD
ENDBRANCH  14  17
BRANCH  15  19
ATOM     19  O   UNL     1      -0.837  14.735  24.603  0.00  0.00    +0.000 OA
ATOM     20  H   UNL     1      -0.791  15.661  24.902  0.00  0.00    +0.000 HD
ENDBRANCH  15  19
BRANCH  16  21
ATOM     21  O   UNL     1      -1.395  12.293  23.140  0.00  0.00    +0.000 OA
ATOM     22  H   UNL     1      -0.965  12.388  24.007  0.00  0.00    +0.000 HD
ENDBRANCH  16  21
BRANCH  13  23
ATOM     23  C   UNL     1      -3.961  17.117  21.548  0.00  0.00    +0.000 C 
BRANCH  23  24
ATOM     24  O   UNL     1      -4.912  17.806  22.354  0.00  0.00    +0.000 OA
ATOM     25  H   UNL     1      -4.622  17.712  23.286  0.00  0.00    +0.000 HD
ENDBRANCH  23  24
ENDBRANCH  13  23
ENDBRANCH   3  11
BRANCH   1  26
ATOM     26  C   UNL     1       0.605  11.224  18.675  0.00  0.00    +0.000 C 
BRANCH  26  30
ATOM     27  C   UNL     1       2.201   7.255  19.356  0.00  0.00    +0.000 A 
ATOM     28  C   UNL     1       1.548   7.959  20.382  0.00  0.00    +0.000 A 
ATOM     29  C   UNL     1       1.046   9.242  20.164  0.00  0.00    +0.000 A 
ATOM     30  C   UNL     1       1.182   9.861  18.917  0.00  0.00    +0.000 A 
ATOM     31  C   UNL     1       1.839   9.172  17.893  0.00  0.00    +0.000 A 
ATOM     32  C   UNL     1       2.338   7.886  18.110  0.00  0.00    +0.000 A 
BRANCH  27  34
ATOM     33  C   UNL     1       4.256   5.791  19.322  0.00  0.00    +0.000 C 
ATOM     34  C   UNL     1       2.749   5.855  19.607  0.00  0.00    +0.000 C 
ATOM     35  C   UNL     1       1.990   4.823  18.762  0.00  0.00    +0.000 C 
BRANCH  34  36
ATOM     36  O   UNL     1       2.567   5.494  20.983  0.00  0.00    +0.000 OA
ATOM     37  H   UNL     1       3.432   5.227  21.333  0.00  0.00    +0.000 HD
ENDBRANCH  34  36
ENDBRANCH  27  34
ENDBRANCH  26  30
ENDBRANCH   1  26
TORSDOF 10
ENDMDL
MODEL 9
REMARK VINA RESULT:      -7.0      2.655      8.280
REMARK  Name = 
REMARK  12 active torsions:
REMARK  status: ('A' for Active; 'I' for Inactive)
REMARK    1  A    between atoms: C_1  and  C_2
REMARK    2  A    between atoms: C_2  and  C_3
REMARK    3  A    between atoms: C_2  and  O_4
REMARK    4  A    between atoms: C_2  and  C_5
REMARK    5  A    between atoms: C_8  and  C_9
REMARK    6  A    between atoms: C_9  and  C_10
REMARK    7  A    between atoms: C_12  and  C_13
REMARK    8  A    between atoms: C_15  and  C_16
REMARK    9  A    between atoms: C_16  and  O_17
REMARK   10  A    between atoms: C_18  and  O_19
REMARK   11  A    between atoms: C_20  and  O_21
REMARK   12  A    between atoms: C_22  and  O_23
REMARK                            x       y       z     vdW  Elec       q    Type
REMARK                         _______ _______ _______ _____ _____    ______ ____
ROOT
ATOM      1  C   UNL     1       2.166   6.717  19.908  0.00  0.00    +0.000 A 
ATOM      2  C   UNL     1       3.343   6.673  19.112  0.00  0.00    +0.000 A 
ATOM      3  C   UNL     1       3.827   5.480  18.529  0.00  0.00    +0.000 A 
ATOM      4  C   UNL     1       3.125   4.322  18.840  0.00  0.00    +0.000 A 
ATOM      5  C   UNL     1       1.903   4.382  19.511  0.00  0.00    +0.000 A 
ATOM      6  C   UNL     1       1.382   5.563  20.016  0.00  0.00    +0.000 A 
ATOM      7 CL   UNL     1      -0.129   5.526  20.845  0.00  0.00    +0.000 Cl
ATOM      8  O   UNL     1       1.323   3.143  19.683  0.00  0.00    +0.000 OA
ATOM      9  C   UNL     1       2.453   2.260  19.570  0.00  0.00    +0.000 C 
ATOM     10  C   UNL     1       3.447   2.892  18.594  0.00  0.00    +0.000 C 
ENDROOT
BRANCH   3  11
ATOM     11  C   UNL     1       5.077   5.529  17.665  0.00  0.00    +0.000 C 
ATOM     12  O   UNL     1       4.782   5.018  16.354  0.00  0.00    +0.000 OA
ATOM     13  C   UNL     1       5.870   5.160  15.432  0.00  0.00    +0.000 C 
ATOM     14  C   UNL     1       7.078   4.342  15.919  0.00  0.00    +0.000 C 
ATOM     15  C   UNL     1       7.471   4.799  17.330  0.00  0.00    +0.000 C 
ATOM     16  C   UNL     1       6.270   4.777  18.295  0.00  0.00    +0.000 C 
BRANCH  14  17
ATOM     17  O   UNL     1       8.176   4.461  15.005  0.00  0.00    +0.000 OA
ATOM     18  H   UNL     1       7.976   3.940  14.205  0.00  0.00    +0.000 HD
ENDBRANCH  14  17
BRANCH  15  19
ATOM     19  O   UNL     1       8.547   4.002  17.838  0.00  0.00    +0.000 OA
ATOM     20  H   UNL     1       9.348   4.555  17.885  0.00  0.00    +0.000 HD
ENDBRANCH  15  19
BRANCH  16  21
ATOM     21  O   UNL     1       6.642   5.357  19.555  0.00  0.00    +0.000 OA
ATOM     22  H   UNL     1       5.930   5.203  20.200  0.00  0.00    +0.000 HD
ENDBRANCH  16  21
BRANCH  13  23
ATOM     23  C   UNL     1       5.411   4.702  14.037  0.00  0.00    +0.000 C 
BRANCH  23  24
ATOM     24  O   UNL     1       6.055   3.505  13.615  0.00  0.00    +0.000 OA
ATOM     25  H   UNL     1       5.457   3.066  12.974  0.00  0.00    +0.000 HD
ENDBRANCH  23  24
ENDBRANCH  13  23
ENDBRANCH   3  11
BRANCH   1  26
ATOM     26  C   UNL     1       1.866   7.978  20.699  0.00  0.00    +0.000 C 
BRANCH  26  30
ATOM     27  C   UNL     1      -0.858  10.732  18.761  0.00  0.00    +0.000 A 
ATOM     28  C   UNL     1       0.208  10.150  18.054  0.00  0.00    +0.000 A 
ATOM     29  C   UNL     1       1.092   9.273  18.684  0.00  0.00    +0.000 A 
ATOM     30  C   UNL     1       0.939   8.952  20.036  0.00  0.00    +0.000 A 
ATOM     31  C   UNL     1      -0.114   9.534  20.750  0.00  0.00    +0.000 A 
ATOM     32  C   UNL     1      -1.000  10.409  20.119  0.00  0.00    +0.000 A 
BRANCH  27  34
ATOM     33  C   UNL     1      -2.869  12.231  19.041  0.00  0.00    +0.000 C 
ATOM     34  C   UNL     1      -1.815  11.692  18.064  0.00  0.00    +0.000 C 
ATOM     35  C   UNL     1      -2.483  11.007  16.864  0.00  0.00    +0.000 C 
BRANCH  34  36
ATOM     36  O   UNL     1      -1.095  12.825  17.558  0.00  0.00    +0.000 OA
ATOM     37  H   UNL     1      -0.148  12.635  17.649  0.00  0.00    +0.000 HD
ENDBRANCH  34  36
ENDBRANCH  27  34
ENDBRANCH  26  30
ENDBRANCH   1  26
TORSDOF 10
ENDMDL
