MODEL 1
REMARK VINA RESULT:      -7.5      0.000      0.000
REMARK  Name = 
REMARK  6 active torsions:
REMARK  status: ('A' for Active; 'I' for Inactive)
REMARK    1  A    between atoms: C_1  and  C_2
REMARK    2  A    between atoms: N_5  and  C_6
REMARK    3  A    between atoms: C_6  and  C_7
REMARK    4  A    between atoms: C_7  and  C_8
REMARK    5  A    between atoms: C_14  and  C_15
REMARK    6  A    between atoms: C_17  and  O_18
REMARK                            x       y       z     vdW  Elec       q    Type
REMARK                         _______ _______ _______ _____ _____    ______ ____
ROOT
ATOM      1  C   UNL     1       2.799   8.298  17.886  0.00  0.00    +0.000 C 
ATOM      2  C   UNL     1       3.108   6.840  18.037  0.00  0.00    +0.000 A 
ATOM      3  N   UNL     1       3.824   6.251  17.063  0.00  0.00    +0.000 NA
ATOM      4  C   UNL     1       4.068   4.939  17.184  0.00  0.00    +0.000 A 
ATOM      5  N   UNL     1       4.839   4.254  16.232  0.00  0.00    +0.000 N 
ATOM      6  C   UNL     1       3.599   4.221  18.265  0.00  0.00    +0.000 A 
ATOM      7  C   UNL     1       2.916   4.899  19.258  0.00  0.00    +0.000 A 
ATOM      8  N   UNL     1       2.651   6.220  19.145  0.00  0.00    +0.000 NA
ATOM      9  H   UNL     1       4.286   3.523  15.797  0.00  0.00    +0.000 HD
ENDROOT
BRANCH   7  10
ATOM     10  C   UNL     1       2.457   4.230  20.610  0.00  0.00    +0.000 C 
ATOM     11  C   UNL     1       1.008   3.678  20.677  0.00  0.00    +0.000 C 
ATOM     12  C   UNL     1       1.578   2.256  20.509  0.00  0.00    +0.000 C 
ATOM     13  C   UNL     1       2.949   2.802  20.954  0.00  0.00    +0.000 C 
BRANCH  12  14
ATOM     14  O   UNL     1       1.517   1.698  19.181  0.00  0.00    +0.000 OA
ATOM     15  H   UNL     1       0.605   1.344  19.111  0.00  0.00    +0.000 HD
ENDBRANCH  12  14
ENDBRANCH   7  10
BRANCH   5  16
ATOM     16  C   UNL     1       5.573   5.101  15.290  0.00  0.00    +0.000 C 
BRANCH  16  17
ATOM     17  C   UNL     1       7.080   5.017  15.551  0.00  0.00    +0.000 C 
BRANCH  17  18
ATOM     18  C   UNL     1       7.412   5.355  16.965  0.00  0.00    +0.000 A 
ATOM     19  C   UNL     1       7.484   6.634  17.566  0.00  0.00    +0.000 A 
ATOM     20  C   UNL     1       7.786   6.384  18.884  0.00  0.00    +0.000 A 
ATOM     21  N   UNL     1       7.880   5.027  19.003  0.00  0.00    +0.000 N 
ATOM     22  N   UNL     1       7.662   4.380  17.848  0.00  0.00    +0.000 NA
ATOM     23  H   UNL     1       8.082   4.480  19.831  0.00  0.00    +0.000 HD
ENDBRANCH  17  18
ENDBRANCH  16  17
ENDBRANCH   5  16
TORSDOF 5
ENDMDL
MODEL 2
REMARK VINA RESULT:      -7.3      2.403      5.384
REMARK  Name = 
REMARK  6 active torsions:
REMARK  status: ('A' for Active; 'I' for Inactive)
REMARK    1  A    between atoms: C_1  and  C_2
REMARK    2  A    between atoms: N_5  and  C_6
REMARK    3  A    between atoms: C_6  and  C_7
REMARK    4  A    between atoms: C_7  and  C_8
REMARK    5  A    between atoms: C_14  and  C_15
REMARK    6  A    between atoms: C_17  and  O_18
REMARK                            x       y       z     vdW  Elec       q    Type
REMARK                         _______ _______ _______ _____ _____    ______ ____
ROOT
ATOM      1  C   UNL     1       1.904   8.820  17.815  0.00  0.00    +0.000 C 
ATOM      2  C   UNL     1       2.832   7.672  18.070  0.00  0.00    +0.000 A 
ATOM      3  N   UNL     1       2.555   6.867  19.111  0.00  0.00    +0.000 NA
ATOM      4  C   UNL     1       3.407   5.863  19.357  0.00  0.00    +0.000 A 
ATOM      5  N   UNL     1       3.174   4.954  20.401  0.00  0.00    +0.000 N 
ATOM      6  C   UNL     1       4.525   5.664  18.574  0.00  0.00    +0.000 A 
ATOM      7  C   UNL     1       4.720   6.495  17.486  0.00  0.00    +0.000 A 
ATOM      8  N   UNL     1       3.877   7.521  17.231  0.00  0.00    +0.000 NA
ATOM      9  H   UNL     1       3.933   4.994  21.074  0.00  0.00    +0.000 HD
ENDROOT
BRANCH   7  10
ATOM     10  C   UNL     1       5.872   6.287  16.428  0.00  0.00    +0.000 C 
ATOM     11  C   UNL     1       6.995   5.278  16.786  0.00  0.00    +0.000 C 
ATOM     12  C   UNL     1       6.338   4.260  15.834  0.00  0.00    +0.000 C 
ATOM     13  C   UNL     1       5.595   5.433  15.165  0.00  0.00    +0.000 C 
BRANCH  12  14
ATOM     14  O   UNL     1       5.511   3.253  16.450  0.00  0.00    +0.000 OA
ATOM     15  H   UNL     1       5.065   3.724  17.185  0.00  0.00    +0.000 HD
ENDBRANCH  12  14
ENDBRANCH   7  10
BRANCH   5  16
ATOM     16  C   UNL     1       1.836   5.006  20.994  0.00  0.00    +0.000 C 
BRANCH  16  17
ATOM     17  C   UNL     1       0.905   3.996  20.314  0.00  0.00    +0.000 C 
BRANCH  17  18
ATOM     18  C   UNL     1       1.649   3.118  19.365  0.00  0.00    +0.000 A 
ATOM     19  C   UNL     1       1.634   3.147  17.950  0.00  0.00    +0.000 A 
ATOM     20  C   UNL     1       2.516   2.162  17.572  0.00  0.00    +0.000 A 
ATOM     21  N   UNL     1       2.992   1.612  18.727  0.00  0.00    +0.000 N 
ATOM     22  N   UNL     1       2.475   2.173  19.831  0.00  0.00    +0.000 NA
ATOM     23  H   UNL     1       3.667   0.865  18.837  0.00  0.00    +0.000 HD
ENDBRANCH  17  18
ENDBRANCH  16  17
ENDBRANCH   5  16
TORSDOF 5
ENDMDL
MODEL 3
REMARK VINA RESULT:      -7.3      1.434      1.577
REMARK  Name = 
REMARK  6 active torsions:
REMARK  status: ('A' for Active; 'I' for Inactive)
REMARK    1  A    between atoms: C_1  and  C_2
REMARK    2  A    between atoms: N_5  and  C_6
REMARK    3  A    between atoms: C_6  and  C_7
REMARK    4  A    between atoms: C_7  and  C_8
REMARK    5  A    between atoms: C_14  and  C_15
REMARK    6  A    between atoms: C_17  and  O_18
REMARK                            x       y       z     vdW  Elec       q    Type
REMARK                         _______ _______ _______ _____ _____    ______ ____
ROOT
ATOM      1  C   UNL     1       3.142   7.815  17.728  0.00  0.00    +0.000 C 
ATOM      2  C   UNL     1       3.194   6.331  17.931  0.00  0.00    +0.000 A 
ATOM      3  N   UNL     1       4.107   5.638  17.229  0.00  0.00    +0.000 NA
ATOM      4  C   UNL     1       4.126   4.308  17.387  0.00  0.00    +0.000 A 
ATOM      5  N   UNL     1       5.071   3.512  16.720  0.00  0.00    +0.000 N 
ATOM      6  C   UNL     1       3.243   3.675  18.236  0.00  0.00    +0.000 A 
ATOM      7  C   UNL     1       2.366   4.453  18.970  0.00  0.00    +0.000 A 
ATOM      8  N   UNL     1       2.325   5.795  18.813  0.00  0.00    +0.000 NA
ATOM      9  H   UNL     1       4.601   2.852  16.108  0.00  0.00    +0.000 HD
ENDROOT
BRANCH   7  10
ATOM     10  C   UNL     1       1.409   3.872  20.081  0.00  0.00    +0.000 C 
ATOM     11  C   UNL     1       1.382   2.331  20.265  0.00  0.00    +0.000 C 
ATOM     12  C   UNL     1       2.256   2.500  21.523  0.00  0.00    +0.000 C 
ATOM     13  C   UNL     1       1.823   3.979  21.570  0.00  0.00    +0.000 C 
BRANCH  12  14
ATOM     14  O   UNL     1       3.667   2.256  21.356  0.00  0.00    +0.000 OA
ATOM     15  H   UNL     1       3.819   1.403  21.815  0.00  0.00    +0.000 HD
ENDBRANCH  12  14
ENDBRANCH   7  10
BRANCH   5  16
ATOM     16  C   UNL     1       6.175   4.241  16.091  0.00  0.00    +0.000 C 
BRANCH  16  17
ATOM     17  C   UNL     1       7.342   4.402  17.071  0.00  0.00    +0.000 C 
BRANCH  17  18
ATOM     18  C   UNL     1       7.560   5.833  17.434  0.00  0.00    +0.000 A 
ATOM     19  C   UNL     1       7.942   6.370  18.685  0.00  0.00    +0.000 A 
ATOM     20  C   UNL     1       8.039   7.725  18.468  0.00  0.00    +0.000 A 
ATOM     21  N   UNL     1       7.719   7.924  17.156  0.00  0.00    +0.000 N 
ATOM     22  N   UNL     1       7.418   6.789  16.508  0.00  0.00    +0.000 NA
ATOM     23  H   UNL     1       7.691   8.796  16.641  0.00  0.00    +0.000 HD
ENDBRANCH  17  18
ENDBRANCH  16  17
ENDBRANCH   5  16
TORSDOF 5
ENDMDL
MODEL 4
REMARK VINA RESULT:      -7.3      0.887      1.027
REMARK  Name = 
REMARK  6 active torsions:
REMARK  status: ('A' for Active; 'I' for Inactive)
REMARK    1  A    between atoms: C_1  and  C_2
REMARK    2  A    between atoms: N_5  and  C_6
REMARK    3  A    between atoms: C_6  and  C_7
REMARK    4  A    between atoms: C_7  and  C_8
REMARK    5  A    between atoms: C_14  and  C_15
REMARK    6  A    between atoms: C_17  and  O_18
REMARK                            x       y       z     vdW  Elec       q    Type
REMARK                         _______ _______ _______ _____ _____    ______ ____
ROOT
ATOM      1  C   UNL     1       2.832   8.122  18.067  0.00  0.00    +0.000 C 
ATOM      2  C   UNL     1       2.916   6.627  18.114  0.00  0.00    +0.000 A 
ATOM      3  N   UNL     1       3.698   6.019  17.205  0.00  0.00    +0.000 NA
ATOM      4  C   UNL     1       3.743   4.680  17.227  0.00  0.00    +0.000 A 
ATOM      5  N   UNL     1       4.562   3.967  16.338  0.00  0.00    +0.000 N 
ATOM      6  C   UNL     1       3.013   3.955  18.146  0.00  0.00    +0.000 A 
ATOM      7  C   UNL     1       2.272   4.645  19.088  0.00  0.00    +0.000 A 
ATOM      8  N   UNL     1       2.207   5.995  19.072  0.00  0.00    +0.000 NA
ATOM      9  H   UNL     1       3.996   3.362  15.751  0.00  0.00    +0.000 HD
ENDROOT
BRANCH   7  10
ATOM     10  C   UNL     1       1.513   3.945  20.280  0.00  0.00    +0.000 C 
ATOM     11  C   UNL     1       1.557   2.395  20.341  0.00  0.00    +0.000 C 
ATOM     12  C   UNL     1       2.609   2.503  21.463  0.00  0.00    +0.000 C 
ATOM     13  C   UNL     1       2.149   3.956  21.693  0.00  0.00    +0.000 C 
BRANCH  12  14
ATOM     14  O   UNL     1       3.984   2.328  21.065  0.00  0.00    +0.000 OA
ATOM     15  H   UNL     1       4.265   1.509  21.526  0.00  0.00    +0.000 HD
ENDBRANCH  12  14
ENDBRANCH   7  10
BRANCH   5  16
ATOM     16  C   UNL     1       5.546   4.770  15.609  0.00  0.00    +0.000 C 
BRANCH  16  17
ATOM     17  C   UNL     1       6.970   4.388  16.027  0.00  0.00    +0.000 C 
BRANCH  17  18
ATOM     18  C   UNL     1       7.394   5.117  17.258  0.00  0.00    +0.000 A 
ATOM     19  C   UNL     1       7.447   6.514  17.474  0.00  0.00    +0.000 A 
ATOM     20  C   UNL     1       7.863   6.650  18.778  0.00  0.00    +0.000 A 
ATOM     21  N   UNL     1       8.036   5.384  19.256  0.00  0.00    +0.000 N 
ATOM     22  N   UNL     1       7.763   4.434  18.349  0.00  0.00    +0.000 NA
ATOM     23  H   UNL     1       8.330   5.095  20.182  0.00  0.00    +0.000 HD
ENDBRANCH  17  18
ENDBRANCH  16  17
ENDBRANCH   5  16
TORSDOF 5
ENDMDL
MODEL 5
REMARK VINA RESULT:      -7.2      1.330      1.712
REMARK  Name = 
REMARK  6 active torsions:
REMARK  status: ('A' for Active; 'I' for Inactive)
REMARK    1  A    between atoms: C_1  and  C_2
REMARK    2  A    between atoms: N_5  and  C_6
REMARK    3  A    between atoms: C_6  and  C_7
REMARK    4  A    between atoms: C_7  and  C_8
REMARK    5  A    between atoms: C_14  and  C_15
REMARK    6  A    between atoms: C_17  and  O_18
REMARK                            x       y       z     vdW  Elec       q    Type
REMARK                         _______ _______ _______ _____ _____    ______ ____
ROOT
ATOM      1  C   UNL     1       3.178   7.686  17.797  0.00  0.00    +0.000 C 
ATOM      2  C   UNL     1       3.236   6.192  17.714  0.00  0.00    +0.000 A 
ATOM      3  N   UNL     1       4.304   5.642  17.111  0.00  0.00    +0.000 NA
ATOM      4  C   UNL     1       4.334   4.306  17.007  0.00  0.00    +0.000 A 
ATOM      5  N   UNL     1       5.429   3.649  16.425  0.00  0.00    +0.000 N 
ATOM      6  C   UNL     1       3.308   3.526  17.498  0.00  0.00    +0.000 A 
ATOM      7  C   UNL     1       2.265   4.153  18.156  0.00  0.00    +0.000 A 
ATOM      8  N   UNL     1       2.213   5.500  18.259  0.00  0.00    +0.000 NA
ATOM      9  H   UNL     1       5.128   3.128  15.607  0.00  0.00    +0.000 HD
ENDROOT
BRANCH   7  10
ATOM     10  C   UNL     1       1.107   3.374  18.891  0.00  0.00    +0.000 C 
ATOM     11  C   UNL     1       1.437   1.962  19.443  0.00  0.00    +0.000 C 
ATOM     12  C   UNL     1       1.524   2.571  20.856  0.00  0.00    +0.000 C 
ATOM     13  C   UNL     1       0.720   3.778  20.336  0.00  0.00    +0.000 C 
BRANCH  12  14
ATOM     14  O   UNL     1       2.849   2.855  21.347  0.00  0.00    +0.000 OA
ATOM     15  H   UNL     1       2.709   3.538  22.036  0.00  0.00    +0.000 HD
ENDBRANCH  12  14
ENDBRANCH   7  10
BRANCH   5  16
ATOM     16  C   UNL     1       6.618   4.476  16.212  0.00  0.00    +0.000 C 
BRANCH  16  17
ATOM     17  C   UNL     1       7.414   4.622  17.513  0.00  0.00    +0.000 C 
BRANCH  17  18
ATOM     18  C   UNL     1       7.718   6.052  17.812  0.00  0.00    +0.000 A 
ATOM     19  C   UNL     1       7.456   7.188  17.012  0.00  0.00    +0.000 A 
ATOM     20  C   UNL     1       7.894   8.253  17.764  0.00  0.00    +0.000 A 
ATOM     21  N   UNL     1       8.382   7.725  18.925  0.00  0.00    +0.000 N 
ATOM     22  N   UNL     1       8.291   6.387  18.975  0.00  0.00    +0.000 NA
ATOM     23  H   UNL     1       8.781   8.211  19.719  0.00  0.00    +0.000 HD
ENDBRANCH  17  18
ENDBRANCH  16  17
ENDBRANCH   5  16
TORSDOF 5
ENDMDL
MODEL 6
REMARK VINA RESULT:      -7.2      1.185      1.435
REMARK  Name = 
REMARK  6 active torsions:
REMARK  status: ('A' for Active; 'I' for Inactive)
REMARK    1  A    between atoms: C_1  and  C_2
REMARK    2  A    between atoms: N_5  and  C_6
REMARK    3  A    between atoms: C_6  and  C_7
REMARK    4  A    between atoms: C_7  and  C_8
REMARK    5  A    between atoms: C_14  and  C_15
REMARK    6  A    between atoms: C_17  and  O_18
REMARK                            x       y       z     vdW  Elec       q    Type
REMARK                         _______ _______ _______ _____ _____    ______ ____
ROOT
ATOM      1  C   UNL     1       2.780   7.394  18.229  0.00  0.00    +0.000 C 
ATOM      2  C   UNL     1       3.106   5.953  17.980  0.00  0.00    +0.000 A 
ATOM      3  N   UNL     1       3.922   5.668  16.950  0.00  0.00    +0.000 NA
ATOM      4  C   UNL     1       4.182   4.376  16.709  0.00  0.00    +0.000 A 
ATOM      5  N   UNL     1       5.053   3.992  15.677  0.00  0.00    +0.000 N 
ATOM      6  C   UNL     1       3.632   3.377  17.486  0.00  0.00    +0.000 A 
ATOM      7  C   UNL     1       2.845   3.743  18.563  0.00  0.00    +0.000 A 
ATOM      8  N   UNL     1       2.563   5.041  18.813  0.00  0.00    +0.000 NA
ATOM      9  H   UNL     1       4.559   3.422  14.998  0.00  0.00    +0.000 HD
ENDROOT
BRANCH   7  10
ATOM     10  C   UNL     1       2.278   2.713  19.614  0.00  0.00    +0.000 C 
ATOM     11  C   UNL     1       3.092   2.504  20.919  0.00  0.00    +0.000 C 
ATOM     12  C   UNL     1       2.063   3.379  21.661  0.00  0.00    +0.000 C 
ATOM     13  C   UNL     1       1.078   3.122  20.504  0.00  0.00    +0.000 C 
BRANCH  12  14
ATOM     14  O   UNL     1       2.438   4.753  21.883  0.00  0.00    +0.000 OA
ATOM     15  H   UNL     1       2.405   4.857  22.857  0.00  0.00    +0.000 HD
ENDBRANCH  12  14
ENDBRANCH   7  10
BRANCH   5  16
ATOM     16  C   UNL     1       5.852   5.072  15.094  0.00  0.00    +0.000 C 
BRANCH  16  17
ATOM     17  C   UNL     1       7.321   4.942  15.512  0.00  0.00    +0.000 C 
BRANCH  17  18
ATOM     18  C   UNL     1       7.515   5.294  16.948  0.00  0.00    +0.000 A 
ATOM     19  C   UNL     1       7.476   6.574  17.549  0.00  0.00    +0.000 A 
ATOM     20  C   UNL     1       7.677   6.338  18.889  0.00  0.00    +0.000 A 
ATOM     21  N   UNL     1       7.826   4.987  19.019  0.00  0.00    +0.000 N 
ATOM     22  N   UNL     1       7.737   4.331  17.852  0.00  0.00    +0.000 NA
ATOM     23  H   UNL     1       7.983   4.449  19.863  0.00  0.00    +0.000 HD
ENDBRANCH  17  18
ENDBRANCH  16  17
ENDBRANCH   5  16
TORSDOF 5
ENDMDL
MODEL 7
REMARK VINA RESULT:      -7.1      2.610      5.492
REMARK  Name = 
REMARK  6 active torsions:
REMARK  status: ('A' for Active; 'I' for Inactive)
REMARK    1  A    between atoms: C_1  and  C_2
REMARK    2  A    between atoms: N_5  and  C_6
REMARK    3  A    between atoms: C_6  and  C_7
REMARK    4  A    between atoms: C_7  and  C_8
REMARK    5  A    between atoms: C_14  and  C_15
REMARK    6  A    between atoms: C_17  and  O_18
REMARK                            x       y       z     vdW  Elec       q    Type
REMARK                         _______ _______ _______ _____ _____    ______ ____
ROOT
ATOM      1  C   UNL     1       2.088   8.100  17.531  0.00  0.00    +0.000 C 
ATOM      2  C   UNL     1       3.028   7.116  18.158  0.00  0.00    +0.000 A 
ATOM      3  N   UNL     1       2.553   6.348  19.153  0.00  0.00    +0.000 NA
ATOM      4  C   UNL     1       3.406   5.495  19.735  0.00  0.00    +0.000 A 
ATOM      5  N   UNL     1       2.984   4.630  20.757  0.00  0.00    +0.000 N 
ATOM      6  C   UNL     1       4.722   5.410  19.330  0.00  0.00    +0.000 A 
ATOM      7  C   UNL     1       5.132   6.190  18.263  0.00  0.00    +0.000 A 
ATOM      8  N   UNL     1       4.286   7.065  17.673  0.00  0.00    +0.000 NA
ATOM      9  H   UNL     1       3.498   4.822  21.611  0.00  0.00    +0.000 HD
ENDROOT
BRANCH   7  10
ATOM     10  C   UNL     1       6.561   6.084  17.607  0.00  0.00    +0.000 C 
ATOM     11  C   UNL     1       7.693   6.951  18.220  0.00  0.00    +0.000 C 
ATOM     12  C   UNL     1       8.241   5.687  18.911  0.00  0.00    +0.000 C 
ATOM     13  C   UNL     1       7.440   4.842  17.901  0.00  0.00    +0.000 C 
BRANCH  12  14
ATOM     14  O   UNL     1       7.890   5.518  20.299  0.00  0.00    +0.000 OA
ATOM     15  H   UNL     1       8.290   4.658  20.545  0.00  0.00    +0.000 HD
ENDBRANCH  12  14
ENDBRANCH   7  10
BRANCH   5  16
ATOM     16  C   UNL     1       1.534   4.526  20.933  0.00  0.00    +0.000 C 
BRANCH  16  17
ATOM     17  C   UNL     1       1.023   3.178  20.414  0.00  0.00    +0.000 C 
BRANCH  17  18
ATOM     18  C   UNL     1       1.932   2.610  19.376  0.00  0.00    +0.000 A 
ATOM     19  C   UNL     1       1.832   2.722  17.969  0.00  0.00    +0.000 A 
ATOM     20  C   UNL     1       2.934   2.056  17.487  0.00  0.00    +0.000 A 
ATOM     21  N   UNL     1       3.608   1.593  18.580  0.00  0.00    +0.000 N 
ATOM     22  N   UNL     1       3.015   1.912  19.740  0.00  0.00    +0.000 NA
ATOM     23  H   UNL     1       4.471   1.064  18.610  0.00  0.00    +0.000 HD
ENDBRANCH  17  18
ENDBRANCH  16  17
ENDBRANCH   5  16
TORSDOF 5
ENDMDL
MODEL 8
REMARK VINA RESULT:      -6.9      1.374      1.581
REMARK  Name = 
REMARK  6 active torsions:
REMARK  status: ('A' for Active; 'I' for Inactive)
REMARK    1  A    between atoms: C_1  and  C_2
REMARK    2  A    between atoms: N_5  and  C_6
REMARK    3  A    between atoms: C_6  and  C_7
REMARK    4  A    between atoms: C_7  and  C_8
REMARK    5  A    between atoms: C_14  and  C_15
REMARK    6  A    between atoms: C_17  and  O_18
REMARK                            x       y       z     vdW  Elec       q    Type
REMARK                         _______ _______ _______ _____ _____    ______ ____
ROOT
ATOM      1  C   UNL     1       3.009   7.186  18.234  0.00  0.00    +0.000 C 
ATOM      2  C   UNL     1       3.374   5.755  17.985  0.00  0.00    +0.000 A 
ATOM      3  N   UNL     1       4.103   5.479  16.890  0.00  0.00    +0.000 NA
ATOM      4  C   UNL     1       4.398   4.194  16.652  0.00  0.00    +0.000 A 
ATOM      5  N   UNL     1       5.186   3.822  15.552  0.00  0.00    +0.000 N 
ATOM      6  C   UNL     1       3.967   3.193  17.498  0.00  0.00    +0.000 A 
ATOM      7  C   UNL     1       3.267   3.551  18.636  0.00  0.00    +0.000 A 
ATOM      8  N   UNL     1       2.951   4.842  18.884  0.00  0.00    +0.000 NA
ATOM      9  H   UNL     1       4.657   3.215  14.934  0.00  0.00    +0.000 HD
ENDROOT
BRANCH   7  10
ATOM     10  C   UNL     1       2.845   2.524  19.756  0.00  0.00    +0.000 C 
ATOM     11  C   UNL     1       2.598   3.086  21.181  0.00  0.00    +0.000 C 
ATOM     12  C   UNL     1       1.082   2.977  20.925  0.00  0.00    +0.000 C 
ATOM     13  C   UNL     1       1.392   1.987  19.784  0.00  0.00    +0.000 C 
BRANCH  12  14
ATOM     14  O   UNL     1       0.411   4.195  20.544  0.00  0.00    +0.000 OA
ATOM     15  H   UNL     1       1.139   4.836  20.403  0.00  0.00    +0.000 HD
ENDBRANCH  12  14
ENDBRANCH   7  10
BRANCH   5  16
ATOM     16  C   UNL     1       5.879   4.921  14.875  0.00  0.00    +0.000 C 
BRANCH  16  17
ATOM     17  C   UNL     1       7.345   4.985  15.315  0.00  0.00    +0.000 C 
BRANCH  17  18
ATOM     18  C   UNL     1       7.490   5.643  16.647  0.00  0.00    +0.000 A 
ATOM     19  C   UNL     1       7.593   5.031  17.918  0.00  0.00    +0.000 A 
ATOM     20  C   UNL     1       7.746   6.078  18.798  0.00  0.00    +0.000 A 
ATOM     21  N   UNL     1       7.722   7.215  18.044  0.00  0.00    +0.000 N 
ATOM     22  N   UNL     1       7.562   6.977  16.733  0.00  0.00    +0.000 NA
ATOM     23  H   UNL     1       7.814   8.176  18.351  0.00  0.00    +0.000 HD
ENDBRANCH  17  18
ENDBRANCH  16  17
ENDBRANCH   5  16
TORSDOF 5
ENDMDL
MODEL 9
REMARK VINA RESULT:      -6.8      1.408      2.433
REMARK  Name = 
REMARK  6 active torsions:
REMARK  status: ('A' for Active; 'I' for Inactive)
REMARK    1  A    between atoms: C_1  and  C_2
REMARK    2  A    between atoms: N_5  and  C_6
REMARK    3  A    between atoms: C_6  and  C_7
REMARK    4  A    between atoms: C_7  and  C_8
REMARK    5  A    between atoms: C_14  and  C_15
REMARK    6  A    between atoms: C_17  and  O_18
REMARK                            x       y       z     vdW  Elec       q    Type
REMARK                         _______ _______ _______ _____ _____    ______ ____
ROOT
ATOM      1  C   UNL     1       3.138   7.796  17.627  0.00  0.00    +0.000 C 
ATOM      2  C   UNL     1       3.434   6.530  18.372  0.00  0.00    +0.000 A 
ATOM      3  N   UNL     1       4.677   6.026  18.274  0.00  0.00    +0.000 NA
ATOM      4  C   UNL     1       4.928   4.876  18.914  0.00  0.00    +0.000 A 
ATOM      5  N   UNL     1       6.208   4.300  18.894  0.00  0.00    +0.000 N 
ATOM      6  C   UNL     1       3.948   4.233  19.642  0.00  0.00    +0.000 A 
ATOM      7  C   UNL     1       2.707   4.835  19.747  0.00  0.00    +0.000 A 
ATOM      8  N   UNL     1       2.434   5.989  19.098  0.00  0.00    +0.000 NA
ATOM      9  H   UNL     1       6.170   3.381  18.464  0.00  0.00    +0.000 HD
ENDROOT
BRANCH   7  10
ATOM     10  C   UNL     1       1.549   4.284  20.665  0.00  0.00    +0.000 C 
ATOM     11  C   UNL     1       0.355   3.584  19.963  0.00  0.00    +0.000 C 
ATOM     12  C   UNL     1       0.942   2.226  20.394  0.00  0.00    +0.000 C 
ATOM     13  C   UNL     1       1.770   2.972  21.458  0.00  0.00    +0.000 C 
BRANCH  12  14
ATOM     14  O   UNL     1       1.692   1.510  19.393  0.00  0.00    +0.000 OA
ATOM     15  H   UNL     1       2.529   1.271  19.844  0.00  0.00    +0.000 HD
ENDBRANCH  12  14
ENDBRANCH   7  10
BRANCH   5  16
ATOM     16  C   UNL     1       7.278   5.162  18.389  0.00  0.00    +0.000 C 
BRANCH  16  17
ATOM     17  C   UNL     1       8.003   4.492  17.218  0.00  0.00    +0.000 C 
BRANCH  17  18
ATOM     18  C   UNL     1       7.214   4.592  15.955  0.00  0.00    +0.000 A 
ATOM     19  C   UNL     1       6.114   3.803  15.546  0.00  0.00    +0.000 A 
ATOM     20  C   UNL     1       5.737   4.331  14.333  0.00  0.00    +0.000 A 
ATOM     21  N   UNL     1       6.596   5.362  14.084  0.00  0.00    +0.000 N 
ATOM     22  N   UNL     1       7.507   5.537  15.053  0.00  0.00    +0.000 NA
ATOM     23  H   UNL     1       6.616   5.985  13.285  0.00  0.00    +0.000 HD
ENDBRANCH  17  18
ENDBRANCH  16  17
ENDBRANCH   5  16
TORSDOF 5
ENDMDL
