MODEL 1
REMARK VINA RESULT:      -7.4      0.000      0.000
REMARK  Name = 
REMARK  9 active torsions:
REMARK  status: ('A' for Active; 'I' for Inactive)
REMARK    1  A    between atoms: C_1  and  C_2
REMARK    2  A    between atoms: C_2  and  C_3
REMARK    3  A    between atoms: C_3  and  C_4
REMARK    4  A    between atoms: C_4  and  C_20
REMARK    5  A    between atoms: C_5  and  C_6
REMARK    6  A    between atoms: C_5  and  C_13
REMARK    7  A    between atoms: C_9  and  O_10
REMARK    8  A    between atoms: C_16  and  O_17
REMARK    9  A    between atoms: C_23  and  O_24
REMARK                            x       y       z     vdW  Elec       q    Type
REMARK                         _______ _______ _______ _____ _____    ______ ____
ROOT
ATOM      1  C   UNL     1       2.688   4.957  19.373  0.00  0.00    +0.000 C 
ATOM      2  C   UNL     1       3.173   6.030  18.688  0.00  0.00    +0.000 C 
ENDROOT
BRANCH   2   3
ATOM      3  C   UNL     1       4.364   5.902  17.808  0.00  0.00    +0.000 A 
ATOM      4  C   UNL     1       5.633   6.246  18.298  0.00  0.00    +0.000 A 
ATOM      5  C   UNL     1       6.765   6.126  17.488  0.00  0.00    +0.000 A 
ATOM      6  C   UNL     1       6.622   5.658  16.185  0.00  0.00    +0.000 A 
ATOM      7  C   UNL     1       5.376   5.299  15.689  0.00  0.00    +0.000 A 
ATOM      8  C   UNL     1       4.244   5.419  16.499  0.00  0.00    +0.000 A 
BRANCH   6   9
ATOM      9  O   UNL     1       7.699   5.534  15.357  0.00  0.00    +0.000 OA
ATOM     10  H   UNL     1       8.322   6.253  15.551  0.00  0.00    +0.000 HD
ENDBRANCH   6   9
ENDBRANCH   2   3
BRANCH   2  11
ATOM     11  C   UNL     1       2.492   7.344  18.822  0.00  0.00    +0.000 A 
ATOM     12  C   UNL     1       1.947   7.724  20.058  0.00  0.00    +0.000 A 
ATOM     13  C   UNL     1       1.245   8.925  20.183  0.00  0.00    +0.000 A 
ATOM     14  C   UNL     1       1.100   9.748  19.071  0.00  0.00    +0.000 A 
ATOM     15  C   UNL     1       1.682   9.413  17.854  0.00  0.00    +0.000 A 
ATOM     16  C   UNL     1       2.378   8.210  17.727  0.00  0.00    +0.000 A 
BRANCH  14  17
ATOM     17  O   UNL     1       0.372  10.899  19.133  0.00  0.00    +0.000 OA
ATOM     18  H   UNL     1       0.796  11.495  19.773  0.00  0.00    +0.000 HD
ENDBRANCH  14  17
ENDBRANCH   2  11
BRANCH   1  19
ATOM     19  C   UNL     1       3.361   3.635  19.335  0.00  0.00    +0.000 A 
ATOM     20  C   UNL     1       4.302   3.298  20.319  0.00  0.00    +0.000 A 
ATOM     21  C   UNL     1       4.908   2.038  20.320  0.00  0.00    +0.000 A 
ATOM     22  C   UNL     1       4.572   1.120  19.330  0.00  0.00    +0.000 A 
ATOM     23  C   UNL     1       3.653   1.442  18.339  0.00  0.00    +0.000 A 
ATOM     24  C   UNL     1       3.045   2.701  18.342  0.00  0.00    +0.000 A 
BRANCH  22  25
ATOM     25  O   UNL     1       5.128  -0.126  19.301  0.00  0.00    +0.000 OA
ATOM     26  H   UNL     1       6.070  -0.049  19.519  0.00  0.00    +0.000 HD
ENDBRANCH  22  25
ENDBRANCH   1  19
BRANCH   1  27
ATOM     27  C   UNL     1       1.388   4.928  20.173  0.00  0.00    +0.000 C 
BRANCH  27  29
ATOM     28  C   UNL     1       1.176   2.879  21.634  0.00  0.00    +0.000 C 
ATOM     29  C   UNL     1       0.766   3.534  20.320  0.00  0.00    +0.000 C 
ENDBRANCH  27  29
ENDBRANCH   1  27
TORSDOF 8
ENDMDL
MODEL 2
REMARK VINA RESULT:      -7.3      0.129      1.347
REMARK  Name = 
REMARK  9 active torsions:
REMARK  status: ('A' for Active; 'I' for Inactive)
REMARK    1  A    between atoms: C_1  and  C_2
REMARK    2  A    between atoms: C_2  and  C_3
REMARK    3  A    between atoms: C_3  and  C_4
REMARK    4  A    between atoms: C_4  and  C_20
REMARK    5  A    between atoms: C_5  and  C_6
REMARK    6  A    between atoms: C_5  and  C_13
REMARK    7  A    between atoms: C_9  and  O_10
REMARK    8  A    between atoms: C_16  and  O_17
REMARK    9  A    between atoms: C_23  and  O_24
REMARK                            x       y       z     vdW  Elec       q    Type
REMARK                         _______ _______ _______ _____ _____    ______ ____
ROOT
ATOM      1  C   UNL     1       2.613   4.890  19.414  0.00  0.00    +0.000 C 
ATOM      2  C   UNL     1       3.090   5.982  18.754  0.00  0.00    +0.000 C 
ENDROOT
BRANCH   2   3
ATOM      3  C   UNL     1       4.302   5.891  17.899  0.00  0.00    +0.000 A 
ATOM      4  C   UNL     1       4.187   5.452  16.572  0.00  0.00    +0.000 A 
ATOM      5  C   UNL     1       5.314   5.366  15.750  0.00  0.00    +0.000 A 
ATOM      6  C   UNL     1       6.557   5.725  16.263  0.00  0.00    +0.000 A 
ATOM      7  C   UNL     1       6.687   6.177  17.570  0.00  0.00    +0.000 A 
ATOM      8  C   UNL     1       5.560   6.262  18.391  0.00  0.00    +0.000 A 
BRANCH   6   9
ATOM      9  O   UNL     1       7.686   5.648  15.499  0.00  0.00    +0.000 OA
ATOM     10  H   UNL     1       7.439   5.784  14.570  0.00  0.00    +0.000 HD
ENDBRANCH   6   9
ENDBRANCH   2   3
BRANCH   2  11
ATOM     11  C   UNL     1       2.378   7.279  18.890  0.00  0.00    +0.000 A 
ATOM     12  C   UNL     1       2.181   8.088  17.761  0.00  0.00    +0.000 A 
ATOM     13  C   UNL     1       1.574   9.341  17.884  0.00  0.00    +0.000 A 
ATOM     14  C   UNL     1       1.156   9.775  19.137  0.00  0.00    +0.000 A 
ATOM     15  C   UNL     1       1.293   8.962  20.256  0.00  0.00    +0.000 A 
ATOM     16  C   UNL     1       1.905   7.713  20.135  0.00  0.00    +0.000 A 
BRANCH  14  17
ATOM     17  O   UNL     1       0.614  11.013  19.312  0.00  0.00    +0.000 OA
ATOM     18  H   UNL     1      -0.220  10.916  19.801  0.00  0.00    +0.000 HD
ENDBRANCH  14  17
ENDBRANCH   2  11
BRANCH   1  19
ATOM     19  C   UNL     1       3.315   3.583  19.373  0.00  0.00    +0.000 A 
ATOM     20  C   UNL     1       4.262   3.264  20.356  0.00  0.00    +0.000 A 
ATOM     21  C   UNL     1       4.895   2.017  20.355  0.00  0.00    +0.000 A 
ATOM     22  C   UNL     1       4.580   1.095  19.363  0.00  0.00    +0.000 A 
ATOM     23  C   UNL     1       3.655   1.399  18.372  0.00  0.00    +0.000 A 
ATOM     24  C   UNL     1       3.020   2.645  18.377  0.00  0.00    +0.000 A 
BRANCH  22  25
ATOM     25  O   UNL     1       5.163  -0.139  19.331  0.00  0.00    +0.000 OA
ATOM     26  H   UNL     1       6.079  -0.040  19.025  0.00  0.00    +0.000 HD
ENDBRANCH  22  25
ENDBRANCH   1  19
BRANCH   1  27
ATOM     27  C   UNL     1       1.297   4.822  20.185  0.00  0.00    +0.000 C 
BRANCH  27  29
ATOM     28  C   UNL     1       1.186   2.812  21.708  0.00  0.00    +0.000 C 
ATOM     29  C   UNL     1       0.746   3.404  20.374  0.00  0.00    +0.000 C 
ENDBRANCH  27  29
ENDBRANCH   1  27
TORSDOF 8
ENDMDL
MODEL 3
REMARK VINA RESULT:      -7.3      0.111      1.346
REMARK  Name = 
REMARK  9 active torsions:
REMARK  status: ('A' for Active; 'I' for Inactive)
REMARK    1  A    between atoms: C_1  and  C_2
REMARK    2  A    between atoms: C_2  and  C_3
REMARK    3  A    between atoms: C_3  and  C_4
REMARK    4  A    between atoms: C_4  and  C_20
REMARK    5  A    between atoms: C_5  and  C_6
REMARK    6  A    between atoms: C_5  and  C_13
REMARK    7  A    between atoms: C_9  and  O_10
REMARK    8  A    between atoms: C_16  and  O_17
REMARK    9  A    between atoms: C_23  and  O_24
REMARK                            x       y       z     vdW  Elec       q    Type
REMARK                         _______ _______ _______ _____ _____    ______ ____
ROOT
ATOM      1  C   UNL     1       2.639   4.898  19.458  0.00  0.00    +0.000 C 
ATOM      2  C   UNL     1       3.147   5.956  18.767  0.00  0.00    +0.000 C 
ENDROOT
BRANCH   2   3
ATOM      3  C   UNL     1       4.344   5.801  17.900  0.00  0.00    +0.000 A 
ATOM      4  C   UNL     1       4.198   5.322  16.590  0.00  0.00    +0.000 A 
ATOM      5  C   UNL     1       5.311   5.174  15.757  0.00  0.00    +0.000 A 
ATOM      6  C   UNL     1       6.571   5.513  16.241  0.00  0.00    +0.000 A 
ATOM      7  C   UNL     1       6.732   6.003  17.530  0.00  0.00    +0.000 A 
ATOM      8  C   UNL     1       5.619   6.150  18.363  0.00  0.00    +0.000 A 
BRANCH   6   9
ATOM      9  O   UNL     1       7.686   5.376  15.466  0.00  0.00    +0.000 OA
ATOM     10  H   UNL     1       7.539   4.648  14.840  0.00  0.00    +0.000 HD
ENDBRANCH   6   9
ENDBRANCH   2   3
BRANCH   2  11
ATOM     11  C   UNL     1       2.486   7.281  18.881  0.00  0.00    +0.000 A 
ATOM     12  C   UNL     1       1.948   7.689  20.112  0.00  0.00    +0.000 A 
ATOM     13  C   UNL     1       1.264   8.902  20.219  0.00  0.00    +0.000 A 
ATOM     14  C   UNL     1       1.128   9.709  19.095  0.00  0.00    +0.000 A 
ATOM     15  C   UNL     1       1.704   9.347  17.883  0.00  0.00    +0.000 A 
ATOM     16  C   UNL     1       2.382   8.132  17.773  0.00  0.00    +0.000 A 
BRANCH  14  17
ATOM     17  O   UNL     1       0.418  10.872  19.140  0.00  0.00    +0.000 OA
ATOM     18  H   UNL     1       0.951  11.538  19.604  0.00  0.00    +0.000 HD
ENDBRANCH  14  17
ENDBRANCH   2  11
BRANCH   1  19
ATOM     19  C   UNL     1       3.292   3.565  19.440  0.00  0.00    +0.000 A 
ATOM     20  C   UNL     1       2.985   2.647  18.425  0.00  0.00    +0.000 A 
ATOM     21  C   UNL     1       3.628   1.407  18.371  0.00  0.00    +0.000 A 
ATOM     22  C   UNL     1       4.574   1.088  19.339  0.00  0.00    +0.000 A 
ATOM     23  C   UNL     1       4.880   1.979  20.361  0.00  0.00    +0.000 A 
ATOM     24  C   UNL     1       4.239   3.221  20.411  0.00  0.00    +0.000 A 
BRANCH  22  25
ATOM     25  O   UNL     1       5.237  -0.105  19.318  0.00  0.00    +0.000 OA
ATOM     26  H   UNL     1       5.104  -0.547  20.171  0.00  0.00    +0.000 HD
ENDBRANCH  22  25
ENDBRANCH   1  19
BRANCH   1  27
ATOM     27  C   UNL     1       1.331   4.897  20.246  0.00  0.00    +0.000 C 
BRANCH  27  29
ATOM     28  C   UNL     1       1.141   2.833  21.688  0.00  0.00    +0.000 C 
ATOM     29  C   UNL     1       0.688   3.514  20.403  0.00  0.00    +0.000 C 
ENDBRANCH  27  29
ENDBRANCH   1  27
TORSDOF 8
ENDMDL
MODEL 4
REMARK VINA RESULT:      -7.2      0.156      1.351
REMARK  Name = 
REMARK  9 active torsions:
REMARK  status: ('A' for Active; 'I' for Inactive)
REMARK    1  A    between atoms: C_1  and  C_2
REMARK    2  A    between atoms: C_2  and  C_3
REMARK    3  A    between atoms: C_3  and  C_4
REMARK    4  A    between atoms: C_4  and  C_20
REMARK    5  A    between atoms: C_5  and  C_6
REMARK    6  A    between atoms: C_5  and  C_13
REMARK    7  A    between atoms: C_9  and  O_10
REMARK    8  A    between atoms: C_16  and  O_17
REMARK    9  A    between atoms: C_23  and  O_24
REMARK                            x       y       z     vdW  Elec       q    Type
REMARK                         _______ _______ _______ _____ _____    ______ ____
ROOT
ATOM      1  C   UNL     1       2.607   4.870  19.436  0.00  0.00    +0.000 C 
ATOM      2  C   UNL     1       3.107   5.934  18.748  0.00  0.00    +0.000 C 
ENDROOT
BRANCH   2   3
ATOM      3  C   UNL     1       4.310   5.792  17.888  0.00  0.00    +0.000 A 
ATOM      4  C   UNL     1       5.570   6.161  18.383  0.00  0.00    +0.000 A 
ATOM      5  C   UNL     1       6.713   6.030  17.592  0.00  0.00    +0.000 A 
ATOM      6  C   UNL     1       6.592   5.522  16.301  0.00  0.00    +0.000 A 
ATOM      7  C   UNL     1       5.355   5.137  15.800  0.00  0.00    +0.000 A 
ATOM      8  C   UNL     1       4.212   5.270  16.592  0.00  0.00    +0.000 A 
BRANCH   6   9
ATOM      9  O   UNL     1       7.681   5.385  15.491  0.00  0.00    +0.000 OA
ATOM     10  H   UNL     1       7.502   4.677  14.851  0.00  0.00    +0.000 HD
ENDBRANCH   6   9
ENDBRANCH   2   3
BRANCH   2  11
ATOM     11  C   UNL     1       2.429   7.251  18.858  0.00  0.00    +0.000 A 
ATOM     12  C   UNL     1       2.323   8.077  17.727  0.00  0.00    +0.000 A 
ATOM     13  C   UNL     1       1.749   9.346  17.829  0.00  0.00    +0.000 A 
ATOM     14  C   UNL     1       1.274   9.782  19.062  0.00  0.00    +0.000 A 
ATOM     15  C   UNL     1       1.320   8.955  20.178  0.00  0.00    +0.000 A 
ATOM     16  C   UNL     1       1.899   7.689  20.078  0.00  0.00    +0.000 A 
BRANCH  14  17
ATOM     17  O   UNL     1       0.761  11.035  19.219  0.00  0.00    +0.000 OA
ATOM     18  H   UNL     1       1.087  11.396  20.061  0.00  0.00    +0.000 HD
ENDBRANCH  14  17
ENDBRANCH   2  11
BRANCH   1  19
ATOM     19  C   UNL     1       3.276   3.545  19.423  0.00  0.00    +0.000 A 
ATOM     20  C   UNL     1       2.974   2.617  18.415  0.00  0.00    +0.000 A 
ATOM     21  C   UNL     1       3.631   1.384  18.365  0.00  0.00    +0.000 A 
ATOM     22  C   UNL     1       4.586   1.082  19.330  0.00  0.00    +0.000 A 
ATOM     23  C   UNL     1       4.888   1.983  20.344  0.00  0.00    +0.000 A 
ATOM     24  C   UNL     1       4.233   3.218  20.390  0.00  0.00    +0.000 A 
BRANCH  22  25
ATOM     25  O   UNL     1       5.263  -0.103  19.312  0.00  0.00    +0.000 OA
ATOM     26  H   UNL     1       4.705  -0.783  19.723  0.00  0.00    +0.000 HD
ENDBRANCH  22  25
ENDBRANCH   1  19
BRANCH   1  27
ATOM     27  C   UNL     1       1.295   4.854  20.217  0.00  0.00    +0.000 C 
BRANCH  27  29
ATOM     28  C   UNL     1       1.146   2.817  21.701  0.00  0.00    +0.000 C 
ATOM     29  C   UNL     1       0.683   3.460  20.399  0.00  0.00    +0.000 C 
ENDBRANCH  27  29
ENDBRANCH   1  27
TORSDOF 8
ENDMDL
MODEL 5
REMARK VINA RESULT:      -6.4      9.830     11.917
REMARK  Name = 
REMARK  9 active torsions:
REMARK  status: ('A' for Active; 'I' for Inactive)
REMARK    1  A    between atoms: C_1  and  C_2
REMARK    2  A    between atoms: C_2  and  C_3
REMARK    3  A    between atoms: C_3  and  C_4
REMARK    4  A    between atoms: C_4  and  C_20
REMARK    5  A    between atoms: C_5  and  C_6
REMARK    6  A    between atoms: C_5  and  C_13
REMARK    7  A    between atoms: C_9  and  O_10
REMARK    8  A    between atoms: C_16  and  O_17
REMARK    9  A    between atoms: C_23  and  O_24
REMARK                            x       y       z     vdW  Elec       q    Type
REMARK                         _______ _______ _______ _____ _____    ______ ____
ROOT
ATOM      1  C   UNL     1       8.552  14.305  20.891  0.00  0.00    +0.000 C 
ATOM      2  C   UNL     1       8.308  14.616  19.587  0.00  0.00    +0.000 C 
ENDROOT
BRANCH   2   3
ATOM      3  C   UNL     1       7.042  15.281  19.183  0.00  0.00    +0.000 A 
ATOM      4  C   UNL     1       6.824  16.627  19.513  0.00  0.00    +0.000 A 
ATOM      5  C   UNL     1       5.643  17.271  19.137  0.00  0.00    +0.000 A 
ATOM      6  C   UNL     1       4.680  16.562  18.425  0.00  0.00    +0.000 A 
ATOM      7  C   UNL     1       4.884  15.233  18.077  0.00  0.00    +0.000 A 
ATOM      8  C   UNL     1       6.066  14.590  18.454  0.00  0.00    +0.000 A 
BRANCH   6   9
ATOM      9  O   UNL     1       3.508  17.149  18.045  0.00  0.00    +0.000 OA
ATOM     10  H   UNL     1       2.899  17.140  18.802  0.00  0.00    +0.000 HD
ENDBRANCH   6   9
ENDBRANCH   2   3
BRANCH   2  11
ATOM     11  C   UNL     1       9.330  14.290  18.560  0.00  0.00    +0.000 A 
ATOM     12  C   UNL     1       9.303  13.041  17.921  0.00  0.00    +0.000 A 
ATOM     13  C   UNL     1      10.297  12.694  17.002  0.00  0.00    +0.000 A 
ATOM     14  C   UNL     1      11.310  13.603  16.719  0.00  0.00    +0.000 A 
ATOM     15  C   UNL     1      11.319  14.865  17.300  0.00  0.00    +0.000 A 
ATOM     16  C   UNL     1      10.330  15.211  18.223  0.00  0.00    +0.000 A 
BRANCH  14  17
ATOM     17  O   UNL     1      12.332  13.283  15.875  0.00  0.00    +0.000 OA
ATOM     18  H   UNL     1      11.975  13.218  14.974  0.00  0.00    +0.000 HD
ENDBRANCH  14  17
ENDBRANCH   2  11
BRANCH   1  19
ATOM     19  C   UNL     1       7.545  14.543  21.954  0.00  0.00    +0.000 A 
ATOM     20  C   UNL     1       6.474  13.653  22.119  0.00  0.00    +0.000 A 
ATOM     21  C   UNL     1       5.545  13.841  23.147  0.00  0.00    +0.000 A 
ATOM     22  C   UNL     1       5.690  14.926  24.004  0.00  0.00    +0.000 A 
ATOM     23  C   UNL     1       6.736  15.827  23.847  0.00  0.00    +0.000 A 
ATOM     24  C   UNL     1       7.666  15.635  22.822  0.00  0.00    +0.000 A 
BRANCH  22  25
ATOM     25  O   UNL     1       4.815  15.141  25.030  0.00  0.00    +0.000 OA
ATOM     26  H   UNL     1       4.231  14.369  25.104  0.00  0.00    +0.000 HD
ENDBRANCH  22  25
ENDBRANCH   1  19
BRANCH   1  27
ATOM     27  C   UNL     1       9.872  13.773  21.445  0.00  0.00    +0.000 C 
BRANCH  27  29
ATOM     28  C   UNL     1      11.261  11.888  20.504  0.00  0.00    +0.000 C 
ATOM     29  C   UNL     1      10.038  12.254  21.335  0.00  0.00    +0.000 C 
ENDBRANCH  27  29
ENDBRANCH   1  27
TORSDOF 8
ENDMDL
MODEL 6
REMARK VINA RESULT:      -6.3      9.362     11.843
REMARK  Name = 
REMARK  9 active torsions:
REMARK  status: ('A' for Active; 'I' for Inactive)
REMARK    1  A    between atoms: C_1  and  C_2
REMARK    2  A    between atoms: C_2  and  C_3
REMARK    3  A    between atoms: C_3  and  C_4
REMARK    4  A    between atoms: C_4  and  C_20
REMARK    5  A    between atoms: C_5  and  C_6
REMARK    6  A    between atoms: C_5  and  C_13
REMARK    7  A    between atoms: C_9  and  O_10
REMARK    8  A    between atoms: C_16  and  O_17
REMARK    9  A    between atoms: C_23  and  O_24
REMARK                            x       y       z     vdW  Elec       q    Type
REMARK                         _______ _______ _______ _____ _____    ______ ____
ROOT
ATOM      1  C   UNL     1       8.417  14.344  20.845  0.00  0.00    +0.000 C 
ATOM      2  C   UNL     1       8.203  14.625  19.530  0.00  0.00    +0.000 C 
ENDROOT
BRANCH   2   3
ATOM      3  C   UNL     1       6.950  15.289  19.084  0.00  0.00    +0.000 A 
ATOM      4  C   UNL     1       6.018  14.575  18.316  0.00  0.00    +0.000 A 
ATOM      5  C   UNL     1       4.831  15.180  17.892  0.00  0.00    +0.000 A 
ATOM      6  C   UNL     1       4.581  16.503  18.244  0.00  0.00    +0.000 A 
ATOM      7  C   UNL     1       5.485  17.220  19.016  0.00  0.00    +0.000 A 
ATOM      8  C   UNL     1       6.672  16.615  19.438  0.00  0.00    +0.000 A 
BRANCH   6   9
ATOM      9  O   UNL     1       3.440  17.136  17.844  0.00  0.00    +0.000 OA
ATOM     10  H   UNL     1       3.488  18.065  18.123  0.00  0.00    +0.000 HD
ENDBRANCH   6   9
ENDBRANCH   2   3
BRANCH   2  11
ATOM     11  C   UNL     1       9.243  14.266  18.532  0.00  0.00    +0.000 A 
ATOM     12  C   UNL     1       9.333  12.947  18.062  0.00  0.00    +0.000 A 
ATOM     13  C   UNL     1      10.348  12.579  17.175  0.00  0.00    +0.000 A 
ATOM     14  C   UNL     1      11.265  13.536  16.754  0.00  0.00    +0.000 A 
ATOM     15  C   UNL     1      11.155  14.859  17.166  0.00  0.00    +0.000 A 
ATOM     16  C   UNL     1      10.145  15.226  18.056  0.00  0.00    +0.000 A 
BRANCH  14  17
ATOM     17  O   UNL     1      12.306  13.207  15.937  0.00  0.00    +0.000 OA
ATOM     18  H   UNL     1      12.463  13.948  15.329  0.00  0.00    +0.000 HD
ENDBRANCH  14  17
ENDBRANCH   2  11
BRANCH   1  19
ATOM     19  C   UNL     1       7.391  14.616  21.882  0.00  0.00    +0.000 A 
ATOM     20  C   UNL     1       6.258  13.795  21.980  0.00  0.00    +0.000 A 
ATOM     21  C   UNL     1       5.308  14.013  22.982  0.00  0.00    +0.000 A 
ATOM     22  C   UNL     1       5.493  15.058  23.880  0.00  0.00    +0.000 A 
ATOM     23  C   UNL     1       6.602  15.891  23.789  0.00  0.00    +0.000 A 
ATOM     24  C   UNL     1       7.553  15.669  22.789  0.00  0.00    +0.000 A 
BRANCH  22  25
ATOM     25  O   UNL     1       4.599  15.299  24.883  0.00  0.00    +0.000 OA
ATOM     26  H   UNL     1       3.809  15.712  24.499  0.00  0.00    +0.000 HD
ENDBRANCH  22  25
ENDBRANCH   1  19
BRANCH   1  27
ATOM     27  C   UNL     1       9.722  13.816  21.439  0.00  0.00    +0.000 C 
BRANCH  27  29
ATOM     28  C   UNL     1       9.185  11.368  21.140  0.00  0.00    +0.000 C 
ATOM     29  C   UNL     1       9.597  12.453  22.128  0.00  0.00    +0.000 C 
ENDBRANCH  27  29
ENDBRANCH   1  27
TORSDOF 8
ENDMDL
MODEL 7
REMARK VINA RESULT:      -6.3      9.399     12.111
REMARK  Name = 
REMARK  9 active torsions:
REMARK  status: ('A' for Active; 'I' for Inactive)
REMARK    1  A    between atoms: C_1  and  C_2
REMARK    2  A    between atoms: C_2  and  C_3
REMARK    3  A    between atoms: C_3  and  C_4
REMARK    4  A    between atoms: C_4  and  C_20
REMARK    5  A    between atoms: C_5  and  C_6
REMARK    6  A    between atoms: C_5  and  C_13
REMARK    7  A    between atoms: C_9  and  O_10
REMARK    8  A    between atoms: C_16  and  O_17
REMARK    9  A    between atoms: C_23  and  O_24
REMARK                            x       y       z     vdW  Elec       q    Type
REMARK                         _______ _______ _______ _____ _____    ______ ____
ROOT
ATOM      1  C   UNL     1       8.631  15.327  21.203  0.00  0.00    +0.000 C 
ATOM      2  C   UNL     1       8.796  13.975  21.248  0.00  0.00    +0.000 C 
ENDROOT
BRANCH   2   3
ATOM      3  C   UNL     1       9.625  13.272  20.235  0.00  0.00    +0.000 A 
ATOM      4  C   UNL     1      10.977  13.009  20.501  0.00  0.00    +0.000 A 
ATOM      5  C   UNL     1      11.772  12.344  19.564  0.00  0.00    +0.000 A 
ATOM      6  C   UNL     1      11.206  11.938  18.359  0.00  0.00    +0.000 A 
ATOM      7  C   UNL     1       9.865  12.176  18.085  0.00  0.00    +0.000 A 
ATOM      8  C   UNL     1       9.071  12.842  19.022  0.00  0.00    +0.000 A 
BRANCH   6   9
ATOM      9  O   UNL     1      11.947  11.293  17.412  0.00  0.00    +0.000 OA
ATOM     10  H   UNL     1      11.935  10.342  17.606  0.00  0.00    +0.000 HD
ENDBRANCH   6   9
ENDBRANCH   2   3
BRANCH   2  11
ATOM     11  C   UNL     1       8.139  13.200  22.331  0.00  0.00    +0.000 A 
ATOM     12  C   UNL     1       8.923  12.560  23.304  0.00  0.00    +0.000 A 
ATOM     13  C   UNL     1       8.324  11.772  24.290  0.00  0.00    +0.000 A 
ATOM     14  C   UNL     1       6.940  11.635  24.305  0.00  0.00    +0.000 A 
ATOM     15  C   UNL     1       6.147  12.308  23.383  0.00  0.00    +0.000 A 
ATOM     16  C   UNL     1       6.744  13.090  22.394  0.00  0.00    +0.000 A 
BRANCH  14  17
ATOM     17  O   UNL     1       6.319  10.828  25.212  0.00  0.00    +0.000 OA
ATOM     18  H   UNL     1       6.876  10.045  25.356  0.00  0.00    +0.000 HD
ENDBRANCH  14  17
ENDBRANCH   2  11
BRANCH   1  19
ATOM     19  C   UNL     1       9.205  16.150  20.110  0.00  0.00    +0.000 A 
ATOM     20  C   UNL     1       8.410  16.510  19.012  0.00  0.00    +0.000 A 
ATOM     21  C   UNL     1       8.926  17.324  17.998  0.00  0.00    +0.000 A 
ATOM     22  C   UNL     1      10.240  17.771  18.087  0.00  0.00    +0.000 A 
ATOM     23  C   UNL     1      11.046  17.412  19.160  0.00  0.00    +0.000 A 
ATOM     24  C   UNL     1      10.528  16.602  20.174  0.00  0.00    +0.000 A 
BRANCH  22  25
ATOM     25  O   UNL     1      10.780  18.578  17.128  0.00  0.00    +0.000 OA
ATOM     26  H   UNL     1      10.161  19.305  16.953  0.00  0.00    +0.000 HD
ENDBRANCH  22  25
ENDBRANCH   1  19
BRANCH   1  27
ATOM     27  C   UNL     1       7.942  16.173  22.272  0.00  0.00    +0.000 C 
BRANCH  27  29
ATOM     28  C   UNL     1       8.451  16.006  24.739  0.00  0.00    +0.000 C 
ATOM     29  C   UNL     1       8.863  16.628  23.410  0.00  0.00    +0.000 C 
ENDBRANCH  27  29
ENDBRANCH   1  27
TORSDOF 8
ENDMDL
MODEL 8
REMARK VINA RESULT:      -6.3      7.083     12.894
REMARK  Name = 
REMARK  9 active torsions:
REMARK  status: ('A' for Active; 'I' for Inactive)
REMARK    1  A    between atoms: C_1  and  C_2
REMARK    2  A    between atoms: C_2  and  C_3
REMARK    3  A    between atoms: C_3  and  C_4
REMARK    4  A    between atoms: C_4  and  C_20
REMARK    5  A    between atoms: C_5  and  C_6
REMARK    6  A    between atoms: C_5  and  C_13
REMARK    7  A    between atoms: C_9  and  O_10
REMARK    8  A    between atoms: C_16  and  O_17
REMARK    9  A    between atoms: C_23  and  O_24
REMARK                            x       y       z     vdW  Elec       q    Type
REMARK                         _______ _______ _______ _____ _____    ______ ____
ROOT
ATOM      1  C   UNL     1      -1.405  13.981  22.837  0.00  0.00    +0.000 C 
ATOM      2  C   UNL     1      -2.089  12.809  22.722  0.00  0.00    +0.000 C 
ENDROOT
BRANCH   2   3
ATOM      3  C   UNL     1      -3.532  12.728  23.068  0.00  0.00    +0.000 A 
ATOM      4  C   UNL     1      -3.919  12.455  24.389  0.00  0.00    +0.000 A 
ATOM      5  C   UNL     1      -5.270  12.381  24.735  0.00  0.00    +0.000 A 
ATOM      6  C   UNL     1      -6.235  12.584  23.752  0.00  0.00    +0.000 A 
ATOM      7  C   UNL     1      -5.871  12.870  22.443  0.00  0.00    +0.000 A 
ATOM      8  C   UNL     1      -4.519  12.944  22.098  0.00  0.00    +0.000 A 
BRANCH   6   9
ATOM      9  O   UNL     1      -7.566  12.512  24.044  0.00  0.00    +0.000 OA
ATOM     10  H   UNL     1      -7.888  11.628  23.802  0.00  0.00    +0.000 HD
ENDBRANCH   6   9
ENDBRANCH   2   3
BRANCH   2  11
ATOM     11  C   UNL     1      -1.378  11.599  22.236  0.00  0.00    +0.000 A 
ATOM     12  C   UNL     1      -0.916  10.645  23.155  0.00  0.00    +0.000 A 
ATOM     13  C   UNL     1      -0.187   9.536  22.719  0.00  0.00    +0.000 A 
ATOM     14  C   UNL     1       0.070   9.381  21.361  0.00  0.00    +0.000 A 
ATOM     15  C   UNL     1      -0.428  10.287  20.433  0.00  0.00    +0.000 A 
ATOM     16  C   UNL     1      -1.152  11.398  20.868  0.00  0.00    +0.000 A 
BRANCH  14  17
ATOM     17  O   UNL     1       0.828   8.346  20.899  0.00  0.00    +0.000 OA
ATOM     18  H   UNL     1       1.659   8.709  20.548  0.00  0.00    +0.000 HD
ENDBRANCH  14  17
ENDBRANCH   2  11
BRANCH   1  19
ATOM     19  C   UNL     1      -2.040  15.208  23.380  0.00  0.00    +0.000 A 
ATOM     20  C   UNL     1      -2.758  16.062  22.530  0.00  0.00    +0.000 A 
ATOM     21  C   UNL     1      -3.399  17.195  23.038  0.00  0.00    +0.000 A 
ATOM     22  C   UNL     1      -3.314  17.473  24.398  0.00  0.00    +0.000 A 
ATOM     23  C   UNL     1      -2.595  16.646  25.253  0.00  0.00    +0.000 A 
ATOM     24  C   UNL     1      -1.958  15.511  24.744  0.00  0.00    +0.000 A 
BRANCH  22  25
ATOM     25  O   UNL     1      -3.936  18.560  24.940  0.00  0.00    +0.000 OA
ATOM     26  H   UNL     1      -4.677  18.252  25.485  0.00  0.00    +0.000 HD
ENDBRANCH  22  25
ENDBRANCH   1  19
BRANCH   1  27
ATOM     27  C   UNL     1       0.026  14.225  22.363  0.00  0.00    +0.000 C 
BRANCH  27  29
ATOM     28  C   UNL     1       1.224  14.136  20.143  0.00  0.00    +0.000 C 
ATOM     29  C   UNL     1       0.133  14.822  20.956  0.00  0.00    +0.000 C 
ENDBRANCH  27  29
ENDBRANCH   1  27
TORSDOF 8
ENDMDL
MODEL 9
REMARK VINA RESULT:      -6.3      6.846     10.795
REMARK  Name = 
REMARK  9 active torsions:
REMARK  status: ('A' for Active; 'I' for Inactive)
REMARK    1  A    between atoms: C_1  and  C_2
REMARK    2  A    between atoms: C_2  and  C_3
REMARK    3  A    between atoms: C_3  and  C_4
REMARK    4  A    between atoms: C_4  and  C_20
REMARK    5  A    between atoms: C_5  and  C_6
REMARK    6  A    between atoms: C_5  and  C_13
REMARK    7  A    between atoms: C_9  and  O_10
REMARK    8  A    between atoms: C_16  and  O_17
REMARK    9  A    between atoms: C_23  and  O_24
REMARK                            x       y       z     vdW  Elec       q    Type
REMARK                         _______ _______ _______ _____ _____    ______ ____
ROOT
ATOM      1  C   UNL     1      -1.751  14.114  21.713  0.00  0.00    +0.000 C 
ATOM      2  C   UNL     1      -2.229  12.882  22.047  0.00  0.00    +0.000 C 
ENDROOT
BRANCH   2   3
ATOM      3  C   UNL     1      -1.405  11.662  21.846  0.00  0.00    +0.000 A 
ATOM      4  C   UNL     1      -0.900  10.970  22.957  0.00  0.00    +0.000 A 
ATOM      5  C   UNL     1      -0.129   9.817  22.789  0.00  0.00    +0.000 A 
ATOM      6  C   UNL     1       0.132   9.357  21.501  0.00  0.00    +0.000 A 
ATOM      7  C   UNL     1      -0.372  10.021  20.390  0.00  0.00    +0.000 A 
ATOM      8  C   UNL     1      -1.142  11.174  20.560  0.00  0.00    +0.000 A 
BRANCH   6   9
ATOM      9  O   UNL     1       0.889   8.241  21.290  0.00  0.00    +0.000 OA
ATOM     10  H   UNL     1       1.749   8.364  21.723  0.00  0.00    +0.000 HD
ENDBRANCH   6   9
ENDBRANCH   2   3
BRANCH   2  11
ATOM     11  C   UNL     1      -3.591  12.766  22.628  0.00  0.00    +0.000 A 
ATOM     12  C   UNL     1      -4.714  12.827  21.788  0.00  0.00    +0.000 A 
ATOM     13  C   UNL     1      -6.003  12.786  22.326  0.00  0.00    +0.000 A 
ATOM     14  C   UNL     1      -6.163  12.675  23.703  0.00  0.00    +0.000 A 
ATOM     15  C   UNL     1      -5.062  12.556  24.542  0.00  0.00    +0.000 A 
ATOM     16  C   UNL     1      -3.774  12.603  24.006  0.00  0.00    +0.000 A 
BRANCH  14  17
ATOM     17  O   UNL     1      -7.401  12.692  24.274  0.00  0.00    +0.000 OA
ATOM     18  H   UNL     1      -8.064  12.744  23.566  0.00  0.00    +0.000 HD
ENDBRANCH  14  17
ENDBRANCH   2  11
BRANCH   1  19
ATOM     19  C   UNL     1      -0.427  14.291  21.068  0.00  0.00    +0.000 A 
ATOM     20  C   UNL     1       0.746  14.157  21.825  0.00  0.00    +0.000 A 
ATOM     21  C   UNL     1       2.000  14.276  21.219  0.00  0.00    +0.000 A 
ATOM     22  C   UNL     1       2.075  14.536  19.854  0.00  0.00    +0.000 A 
ATOM     23  C   UNL     1       0.923  14.687  19.091  0.00  0.00    +0.000 A 
ATOM     24  C   UNL     1      -0.330  14.563  19.699  0.00  0.00    +0.000 A 
BRANCH  22  25
ATOM     25  O   UNL     1       3.277  14.646  19.218  0.00  0.00    +0.000 OA
ATOM     26  H   UNL     1       3.939  14.949  19.860  0.00  0.00    +0.000 HD
ENDBRANCH  22  25
ENDBRANCH   1  19
BRANCH   1  27
ATOM     27  C   UNL     1      -2.434  15.444  22.020  0.00  0.00    +0.000 C 
BRANCH  27  29
ATOM     28  C   UNL     1      -1.633  15.554  24.412  0.00  0.00    +0.000 C 
ATOM     29  C   UNL     1      -1.722  16.291  23.081  0.00  0.00    +0.000 C 
ENDBRANCH  27  29
ENDBRANCH   1  27
TORSDOF 8
ENDMDL
