MODEL 1
REMARK VINA RESULT:      -9.2      0.000      0.000
REMARK  Name = 
REMARK  6 active torsions:
REMARK  status: ('A' for Active; 'I' for Inactive)
REMARK    1  A    between atoms: C_1  and  O_2
REMARK    2  A    between atoms: O_2  and  C_3
REMARK    3  A    between atoms: C_10  and  C_11
REMARK    4  A    between atoms: C_11  and  N_12
REMARK    5  A    between atoms: C_15  and  C_16
REMARK    6  A    between atoms: N_29  and  C_30
REMARK                            x       y       z     vdW  Elec       q    Type
REMARK                         _______ _______ _______ _____ _____    ______ ____
ROOT
ATOM      1  N   UNL     1       0.978   9.478  19.090  0.00  0.00    +0.000 NA
ATOM      2  C   UNL     1       1.888   9.230  17.950  0.00  0.00    +0.000 C 
ATOM      3  C   UNL     1       2.606   7.911  17.944  0.00  0.00    +0.000 C 
ATOM      4  C   UNL     1       2.510   7.012  18.932  0.00  0.00    +0.000 C 
ATOM      5  C   UNL     1       1.626   7.283  20.115  0.00  0.00    +0.000 C 
ATOM      6  C   UNL     1       1.442   8.793  20.315  0.00  0.00    +0.000 C 
ENDROOT
BRANCH   4   7
ATOM      7  C   UNL     1       3.302   5.836  19.024  0.00  0.00    +0.000 A 
ATOM      8  C   UNL     1       4.666   5.811  19.192  0.00  0.00    +0.000 A 
ATOM      9  N   UNL     1       5.061   4.498  19.176  0.00  0.00    +0.000 N 
ATOM     10  C   UNL     1       3.973   3.670  19.002  0.00  0.00    +0.000 A 
ATOM     11  C   UNL     1       3.905   2.274  18.898  0.00  0.00    +0.000 A 
ATOM     12  C   UNL     1       2.640   1.701  18.737  0.00  0.00    +0.000 A 
ATOM     13  C   UNL     1       1.502   2.498  18.693  0.00  0.00    +0.000 A 
ATOM     14  F   UNL     1       0.305   1.916  18.547  0.00  0.00    +0.000 F 
ATOM     15  C   UNL     1       1.577   3.885  18.789  0.00  0.00    +0.000 A 
ATOM     16  C   UNL     1       2.842   4.488  18.936  0.00  0.00    +0.000 A 
ATOM     17  H   UNL     1       6.016   4.178  19.267  0.00  0.00    +0.000 HD
ENDBRANCH   4   7
BRANCH   1  18
ATOM     18  C   UNL     1       0.876  10.935  19.364  0.00  0.00    +0.000 C 
BRANCH  18  26
ATOM     19  C   UNL     1      -3.426  10.991  17.176  0.00  0.00    +0.000 A 
ATOM     20  C   UNL     1      -4.777  11.340  17.132  0.00  0.00    +0.000 A 
ATOM     21  C   UNL     1      -5.330  12.108  18.151  0.00  0.00    +0.000 A 
ATOM     22  C   UNL     1      -4.552  12.490  19.246  0.00  0.00    +0.000 A 
ATOM     23  C   UNL     1      -3.211  12.095  19.373  0.00  0.00    +0.000 A 
ATOM     24  C   UNL     1      -2.645  11.375  18.287  0.00  0.00    +0.000 A 
ATOM     25  O   UNL     1      -1.314  10.997  18.251  0.00  0.00    +0.000 OA
ATOM     26  C   UNL     1      -0.518  11.603  19.281  0.00  0.00    +0.000 C 
ATOM     27  C   UNL     1      -1.245  11.580  20.621  0.00  0.00    +0.000 C 
ATOM     28  N   UNL     1      -2.442  12.432  20.509  0.00  0.00    +0.000 N 
ATOM     29  C   UNL     1      -3.121  12.728  21.765  0.00  0.00    +0.000 C 
BRANCH  19  31
ATOM     30  C   UNL     1      -3.323  10.433  14.880  0.00  0.00    +0.000 C 
ATOM     31  O   UNL     1      -2.811  10.248  16.196  0.00  0.00    +0.000 OA
ENDBRANCH  19  31
ENDBRANCH  18  26
ENDBRANCH   1  18
TORSDOF 4
ENDMDL
MODEL 2
REMARK VINA RESULT:      -8.7      1.071      1.074
REMARK  Name = 
REMARK  6 active torsions:
REMARK  status: ('A' for Active; 'I' for Inactive)
REMARK    1  A    between atoms: C_1  and  O_2
REMARK    2  A    between atoms: O_2  and  C_3
REMARK    3  A    between atoms: C_10  and  C_11
REMARK    4  A    between atoms: C_11  and  N_12
REMARK    5  A    between atoms: C_15  and  C_16
REMARK    6  A    between atoms: N_29  and  C_30
REMARK                            x       y       z     vdW  Elec       q    Type
REMARK                         _______ _______ _______ _____ _____    ______ ____
ROOT
ATOM      1  N   UNL     1       0.936   9.587  19.092  0.00  0.00    +0.000 NA
ATOM      2  C   UNL     1       1.774   9.317  17.905  0.00  0.00    +0.000 C 
ATOM      3  C   UNL     1       2.531   8.020  17.903  0.00  0.00    +0.000 C 
ATOM      4  C   UNL     1       2.529   7.162  18.932  0.00  0.00    +0.000 C 
ATOM      5  C   UNL     1       1.719   7.457  20.160  0.00  0.00    +0.000 C 
ATOM      6  C   UNL     1       1.501   8.969  20.310  0.00  0.00    +0.000 C 
ENDROOT
BRANCH   4   7
ATOM      7  C   UNL     1       3.363   6.013  19.017  0.00  0.00    +0.000 A 
ATOM      8  C   UNL     1       4.552   5.846  18.347  0.00  0.00    +0.000 A 
ATOM      9  N   UNL     1       5.022   4.593  18.646  0.00  0.00    +0.000 N 
ATOM     10  C   UNL     1       4.156   3.945  19.501  0.00  0.00    +0.000 A 
ATOM     11  C   UNL     1       4.216   2.654  20.042  0.00  0.00    +0.000 A 
ATOM     12  C   UNL     1       3.186   2.269  20.904  0.00  0.00    +0.000 A 
ATOM     13  C   UNL     1       2.152   3.147  21.211  0.00  0.00    +0.000 A 
ATOM     14  F   UNL     1       1.186   2.749  22.047  0.00  0.00    +0.000 F 
ATOM     15  C   UNL     1       2.095   4.426  20.663  0.00  0.00    +0.000 A 
ATOM     16  C   UNL     1       3.114   4.833  19.779  0.00  0.00    +0.000 A 
ATOM     17  H   UNL     1       5.877   4.193  18.284  0.00  0.00    +0.000 HD
ENDBRANCH   4   7
BRANCH   1  18
ATOM     18  C   UNL     1       0.807  11.051  19.314  0.00  0.00    +0.000 C 
BRANCH  18  26
ATOM     19  C   UNL     1      -3.561  10.923  17.263  0.00  0.00    +0.000 A 
ATOM     20  C   UNL     1      -4.921  11.238  17.249  0.00  0.00    +0.000 A 
ATOM     21  C   UNL     1      -5.461  12.032  18.255  0.00  0.00    +0.000 A 
ATOM     22  C   UNL     1      -4.659  12.474  19.310  0.00  0.00    +0.000 A 
ATOM     23  C   UNL     1      -3.305  12.115  19.409  0.00  0.00    +0.000 A 
ATOM     24  C   UNL     1      -2.756  11.367  18.333  0.00  0.00    +0.000 A 
ATOM     25  O   UNL     1      -1.418  11.020  18.269  0.00  0.00    +0.000 OA
ATOM     26  C   UNL     1      -0.605  11.683  19.249  0.00  0.00    +0.000 C 
ATOM     27  C   UNL     1      -1.290  11.695  20.612  0.00  0.00    +0.000 C 
ATOM     28  N   UNL     1      -2.510  12.513  20.506  0.00  0.00    +0.000 N 
ATOM     29  C   UNL     1      -3.157  12.841  21.771  0.00  0.00    +0.000 C 
BRANCH  19  31
ATOM     30  C   UNL     1      -3.263  10.526  14.951  0.00  0.00    +0.000 C 
ATOM     31  O   UNL     1      -2.959  10.158  16.293  0.00  0.00    +0.000 OA
ENDBRANCH  19  31
ENDBRANCH  18  26
ENDBRANCH   1  18
TORSDOF 4
ENDMDL
MODEL 3
REMARK VINA RESULT:      -8.7      2.742      4.150
REMARK  Name = 
REMARK  6 active torsions:
REMARK  status: ('A' for Active; 'I' for Inactive)
REMARK    1  A    between atoms: C_1  and  O_2
REMARK    2  A    between atoms: O_2  and  C_3
REMARK    3  A    between atoms: C_10  and  C_11
REMARK    4  A    between atoms: C_11  and  N_12
REMARK    5  A    between atoms: C_15  and  C_16
REMARK    6  A    between atoms: N_29  and  C_30
REMARK                            x       y       z     vdW  Elec       q    Type
REMARK                         _______ _______ _______ _____ _____    ______ ____
ROOT
ATOM      1  N   UNL     1       0.912   9.782  19.520  0.00  0.00    +0.000 NA
ATOM      2  C   UNL     1       1.141   8.665  20.462  0.00  0.00    +0.000 C 
ATOM      3  C   UNL     1       2.018   7.549  19.973  0.00  0.00    +0.000 C 
ATOM      4  C   UNL     1       2.525   7.495  18.734  0.00  0.00    +0.000 C 
ATOM      5  C   UNL     1       2.252   8.603  17.759  0.00  0.00    +0.000 C 
ATOM      6  C   UNL     1       0.945   9.324  18.115  0.00  0.00    +0.000 C 
ENDROOT
BRANCH   4   7
ATOM      7  C   UNL     1       3.218   6.374  18.201  0.00  0.00    +0.000 A 
ATOM      8  C   UNL     1       4.454   6.421  17.599  0.00  0.00    +0.000 A 
ATOM      9  N   UNL     1       4.753   5.153  17.171  0.00  0.00    +0.000 N 
ATOM     10  C   UNL     1       3.730   4.284  17.487  0.00  0.00    +0.000 A 
ATOM     11  C   UNL     1       3.591   2.915  17.223  0.00  0.00    +0.000 A 
ATOM     12  C   UNL     1       2.433   2.284  17.684  0.00  0.00    +0.000 A 
ATOM     13  C   UNL     1       1.468   2.999  18.385  0.00  0.00    +0.000 A 
ATOM     14  F   UNL     1       0.374   2.362  18.821  0.00  0.00    +0.000 F 
ATOM     15  C   UNL     1       1.608   4.361  18.637  0.00  0.00    +0.000 A 
ATOM     16  C   UNL     1       2.760   5.024  18.169  0.00  0.00    +0.000 A 
ATOM     17  H   UNL     1       5.597   4.890  16.682  0.00  0.00    +0.000 HD
ENDBRANCH   4   7
BRANCH   1  18
ATOM     18  C   UNL     1      -0.404  10.421  19.785  0.00  0.00    +0.000 C 
BRANCH  18  26
ATOM     19  C   UNL     1      -2.054  13.222  23.353  0.00  0.00    +0.000 A 
ATOM     20  C   UNL     1      -1.989  14.372  24.141  0.00  0.00    +0.000 A 
ATOM     21  C   UNL     1      -1.037  15.350  23.869  0.00  0.00    +0.000 A 
ATOM     22  C   UNL     1      -0.109  15.161  22.841  0.00  0.00    +0.000 A 
ATOM     23  C   UNL     1      -0.085  13.986  22.075  0.00  0.00    +0.000 A 
ATOM     24  C   UNL     1      -1.111  13.034  22.319  0.00  0.00    +0.000 A 
ATOM     25  O   UNL     1      -1.248  11.873  21.580  0.00  0.00    +0.000 OA
ATOM     26  C   UNL     1      -0.420  11.838  20.407  0.00  0.00    +0.000 C 
ATOM     27  C   UNL     1       0.985  12.346  20.713  0.00  0.00    +0.000 C 
ATOM     28  N   UNL     1       0.890  13.771  21.075  0.00  0.00    +0.000 N 
ATOM     29  C   UNL     1       2.160  14.483  21.156  0.00  0.00    +0.000 C 
BRANCH  19  31
ATOM     30  C   UNL     1      -4.080  12.577  24.388  0.00  0.00    +0.000 C 
ATOM     31  O   UNL     1      -2.978  12.226  23.556  0.00  0.00    +0.000 OA
ENDBRANCH  19  31
ENDBRANCH  18  26
ENDBRANCH   1  18
TORSDOF 4
ENDMDL
MODEL 4
REMARK VINA RESULT:      -8.7      3.272      9.256
REMARK  Name = 
REMARK  6 active torsions:
REMARK  status: ('A' for Active; 'I' for Inactive)
REMARK    1  A    between atoms: C_1  and  O_2
REMARK    2  A    between atoms: O_2  and  C_3
REMARK    3  A    between atoms: C_10  and  C_11
REMARK    4  A    between atoms: C_11  and  N_12
REMARK    5  A    between atoms: C_15  and  C_16
REMARK    6  A    between atoms: N_29  and  C_30
REMARK                            x       y       z     vdW  Elec       q    Type
REMARK                         _______ _______ _______ _____ _____    ______ ____
ROOT
ATOM      1  N   UNL     1       2.266   7.762  20.016  0.00  0.00    +0.000 NA
ATOM      2  C   UNL     1       1.943   8.111  18.616  0.00  0.00    +0.000 C 
ATOM      3  C   UNL     1       0.907   9.180  18.417  0.00  0.00    +0.000 C 
ATOM      4  C   UNL     1       0.237   9.757  19.423  0.00  0.00    +0.000 C 
ATOM      5  C   UNL     1       0.526   9.368  20.844  0.00  0.00    +0.000 C 
ATOM      6  C   UNL     1       1.100   7.946  20.906  0.00  0.00    +0.000 C 
ENDROOT
BRANCH   4   7
ATOM      7  C   UNL     1      -0.858  10.647  19.249  0.00  0.00    +0.000 A 
ATOM      8  C   UNL     1      -1.176  11.685  20.093  0.00  0.00    +0.000 A 
ATOM      9  N   UNL     1      -2.322  12.268  19.617  0.00  0.00    +0.000 N 
ATOM     10  C   UNL     1      -2.752  11.625  18.476  0.00  0.00    +0.000 A 
ATOM     11  C   UNL     1      -3.878  11.856  17.675  0.00  0.00    +0.000 A 
ATOM     12  C   UNL     1      -4.050  11.041  16.554  0.00  0.00    +0.000 A 
ATOM     13  C   UNL     1      -3.126  10.047  16.252  0.00  0.00    +0.000 A 
ATOM     14  F   UNL     1      -3.317   9.289  15.165  0.00  0.00    +0.000 F 
ATOM     15  C   UNL     1      -2.013   9.817  17.056  0.00  0.00    +0.000 A 
ATOM     16  C   UNL     1      -1.825  10.615  18.201  0.00  0.00    +0.000 A 
ATOM     17  H   UNL     1      -2.795  13.051  20.045  0.00  0.00    +0.000 HD
ENDBRANCH   4   7
BRANCH   1  18
ATOM     18  C   UNL     1       2.720   6.350  20.107  0.00  0.00    +0.000 C 
BRANCH  18  26
ATOM     19  C   UNL     1       6.075   6.164  16.642  0.00  0.00    +0.000 A 
ATOM     20  C   UNL     1       6.740   5.497  15.611  0.00  0.00    +0.000 A 
ATOM     21  C   UNL     1       6.321   4.231  15.217  0.00  0.00    +0.000 A 
ATOM     22  C   UNL     1       5.269   3.599  15.884  0.00  0.00    +0.000 A 
ATOM     23  C   UNL     1       4.623   4.196  16.978  0.00  0.00    +0.000 A 
ATOM     24  C   UNL     1       5.016   5.519  17.315  0.00  0.00    +0.000 A 
ATOM     25  O   UNL     1       4.404   6.248  18.319  0.00  0.00    +0.000 OA
ATOM     26  C   UNL     1       3.198   5.647  18.813  0.00  0.00    +0.000 C 
ATOM     27  C   UNL     1       3.375   4.145  19.009  0.00  0.00    +0.000 C 
ATOM     28  N   UNL     1       3.599   3.532  17.688  0.00  0.00    +0.000 N 
ATOM     29  C   UNL     1       3.540   2.075  17.655  0.00  0.00    +0.000 C 
BRANCH  19  31
ATOM     30  C   UNL     1       7.737   7.536  17.616  0.00  0.00    +0.000 C 
ATOM     31  O   UNL     1       6.426   7.421  17.070  0.00  0.00    +0.000 OA
ENDBRANCH  19  31
ENDBRANCH  18  26
ENDBRANCH   1  18
TORSDOF 4
ENDMDL
MODEL 5
REMARK VINA RESULT:      -8.5      2.144      2.863
REMARK  Name = 
REMARK  6 active torsions:
REMARK  status: ('A' for Active; 'I' for Inactive)
REMARK    1  A    between atoms: C_1  and  O_2
REMARK    2  A    between atoms: O_2  and  C_3
REMARK    3  A    between atoms: C_10  and  C_11
REMARK    4  A    between atoms: C_11  and  N_12
REMARK    5  A    between atoms: C_15  and  C_16
REMARK    6  A    between atoms: N_29  and  C_30
REMARK                            x       y       z     vdW  Elec       q    Type
REMARK                         _______ _______ _______ _____ _____    ______ ____
ROOT
ATOM      1  N   UNL     1       0.964   9.513  19.104  0.00  0.00    +0.000 NA
ATOM      2  C   UNL     1       1.737   9.474  17.844  0.00  0.00    +0.000 C 
ATOM      3  C   UNL     1       2.506   8.213  17.572  0.00  0.00    +0.000 C 
ATOM      4  C   UNL     1       2.572   7.187  18.431  0.00  0.00    +0.000 C 
ATOM      5  C   UNL     1       1.830   7.245  19.734  0.00  0.00    +0.000 C 
ATOM      6  C   UNL     1       1.605   8.701  20.160  0.00  0.00    +0.000 C 
ENDROOT
BRANCH   4   7
ATOM      7  C   UNL     1       3.422   6.059  18.266  0.00  0.00    +0.000 A 
ATOM      8  C   UNL     1       3.040   4.749  18.434  0.00  0.00    +0.000 A 
ATOM      9  N   UNL     1       4.150   3.967  18.243  0.00  0.00    +0.000 N 
ATOM     10  C   UNL     1       5.246   4.750  17.952  0.00  0.00    +0.000 A 
ATOM     11  C   UNL     1       6.579   4.390  17.712  0.00  0.00    +0.000 A 
ATOM     12  C   UNL     1       7.483   5.416  17.425  0.00  0.00    +0.000 A 
ATOM     13  C   UNL     1       7.060   6.739  17.373  0.00  0.00    +0.000 A 
ATOM     14  F   UNL     1       7.949   7.697  17.087  0.00  0.00    +0.000 F 
ATOM     15  C   UNL     1       5.735   7.092  17.620  0.00  0.00    +0.000 A 
ATOM     16  C   UNL     1       4.808   6.077  17.928  0.00  0.00    +0.000 A 
ATOM     17  H   UNL     1       4.169   2.959  18.315  0.00  0.00    +0.000 HD
ENDBRANCH   4   7
BRANCH   1  18
ATOM     18  C   UNL     1       0.832  10.912  19.587  0.00  0.00    +0.000 C 
BRANCH  18  26
ATOM     19  C   UNL     1      -3.505  10.902  17.468  0.00  0.00    +0.000 A 
ATOM     20  C   UNL     1      -4.850  11.273  17.422  0.00  0.00    +0.000 A 
ATOM     21  C   UNL     1      -5.372  12.119  18.396  0.00  0.00    +0.000 A 
ATOM     22  C   UNL     1      -4.568  12.558  19.451  0.00  0.00    +0.000 A 
ATOM     23  C   UNL     1      -3.233  12.148  19.582  0.00  0.00    +0.000 A 
ATOM     24  C   UNL     1      -2.699  11.345  18.538  0.00  0.00    +0.000 A 
ATOM     25  O   UNL     1      -1.376  10.941  18.507  0.00  0.00    +0.000 OA
ATOM     26  C   UNL     1      -0.551  11.599  19.481  0.00  0.00    +0.000 C 
ATOM     27  C   UNL     1      -1.256  11.680  20.831  0.00  0.00    +0.000 C 
ATOM     28  N   UNL     1      -2.439  12.545  20.681  0.00  0.00    +0.000 N 
ATOM     29  C   UNL     1      -3.091  12.937  21.925  0.00  0.00    +0.000 C 
BRANCH  19  31
ATOM     30  C   UNL     1      -2.941  10.577  15.195  0.00  0.00    +0.000 C 
ATOM     31  O   UNL     1      -2.921  10.084  16.532  0.00  0.00    +0.000 OA
ENDBRANCH  19  31
ENDBRANCH  18  26
ENDBRANCH   1  18
TORSDOF 4
ENDMDL
MODEL 6
REMARK VINA RESULT:      -8.4      4.001      9.846
REMARK  Name = 
REMARK  6 active torsions:
REMARK  status: ('A' for Active; 'I' for Inactive)
REMARK    1  A    between atoms: C_1  and  O_2
REMARK    2  A    between atoms: O_2  and  C_3
REMARK    3  A    between atoms: C_10  and  C_11
REMARK    4  A    between atoms: C_11  and  N_12
REMARK    5  A    between atoms: C_15  and  C_16
REMARK    6  A    between atoms: N_29  and  C_30
REMARK                            x       y       z     vdW  Elec       q    Type
REMARK                         _______ _______ _______ _____ _____    ______ ____
ROOT
ATOM      1  N   UNL     1       1.570   7.724  19.509  0.00  0.00    +0.000 NA
ATOM      2  C   UNL     1       1.232   8.434  20.761  0.00  0.00    +0.000 C 
ATOM      3  C   UNL     1       0.618   9.796  20.611  0.00  0.00    +0.000 C 
ATOM      4  C   UNL     1       0.436  10.399  19.429  0.00  0.00    +0.000 C 
ATOM      5  C   UNL     1       0.825   9.701  18.158  0.00  0.00    +0.000 C 
ATOM      6  C   UNL     1       1.926   8.667  18.427  0.00  0.00    +0.000 C 
ENDROOT
BRANCH   4   7
ATOM      7  C   UNL     1       0.010  11.747  19.275  0.00  0.00    +0.000 A 
ATOM      8  C   UNL     1      -1.300  12.159  19.199  0.00  0.00    +0.000 A 
ATOM      9  N   UNL     1      -1.295  13.515  18.997  0.00  0.00    +0.000 N 
ATOM     10  C   UNL     1      -0.001  13.989  18.942  0.00  0.00    +0.000 A 
ATOM     11  C   UNL     1       0.479  15.288  18.727  0.00  0.00    +0.000 A 
ATOM     12  C   UNL     1       1.864  15.473  18.739  0.00  0.00    +0.000 A 
ATOM     13  C   UNL     1       2.720  14.402  18.966  0.00  0.00    +0.000 A 
ATOM     14  F   UNL     1       4.041  14.615  18.979  0.00  0.00    +0.000 F 
ATOM     15  C   UNL     1       2.237  13.112  19.171  0.00  0.00    +0.000 A 
ATOM     16  C   UNL     1       0.845  12.897  19.148  0.00  0.00    +0.000 A 
ATOM     17  H   UNL     1      -2.120  14.089  18.891  0.00  0.00    +0.000 HD
ENDBRANCH   4   7
BRANCH   1  18
ATOM     18  C   UNL     1       2.710   6.796  19.730  0.00  0.00    +0.000 C 
BRANCH  18  26
ATOM     19  C   UNL     1       6.179   6.053  16.457  0.00  0.00    +0.000 A 
ATOM     20  C   UNL     1       6.843   5.244  15.534  0.00  0.00    +0.000 A 
ATOM     21  C   UNL     1       6.367   3.966  15.260  0.00  0.00    +0.000 A 
ATOM     22  C   UNL     1       5.255   3.467  15.945  0.00  0.00    +0.000 A 
ATOM     23  C   UNL     1       4.604   4.214  16.938  0.00  0.00    +0.000 A 
ATOM     24  C   UNL     1       5.059   5.544  17.149  0.00  0.00    +0.000 A 
ATOM     25  O   UNL     1       4.452   6.410  18.040  0.00  0.00    +0.000 OA
ATOM     26  C   UNL     1       3.195   5.931  18.542  0.00  0.00    +0.000 C 
ATOM     27  C   UNL     1       3.279   4.453  18.906  0.00  0.00    +0.000 C 
ATOM     28  N   UNL     1       3.517   3.687  17.670  0.00  0.00    +0.000 N 
ATOM     29  C   UNL     1       3.376   2.241  17.791  0.00  0.00    +0.000 C 
BRANCH  19  31
ATOM     30  C   UNL     1       7.705   7.421  17.637  0.00  0.00    +0.000 C 
ATOM     31  O   UNL     1       6.584   7.330  16.762  0.00  0.00    +0.000 OA
ENDBRANCH  19  31
ENDBRANCH  18  26
ENDBRANCH   1  18
TORSDOF 4
ENDMDL
MODEL 7
REMARK VINA RESULT:      -8.3      3.016      8.883
REMARK  Name = 
REMARK  6 active torsions:
REMARK  status: ('A' for Active; 'I' for Inactive)
REMARK    1  A    between atoms: C_1  and  O_2
REMARK    2  A    between atoms: O_2  and  C_3
REMARK    3  A    between atoms: C_10  and  C_11
REMARK    4  A    between atoms: C_11  and  N_12
REMARK    5  A    between atoms: C_15  and  C_16
REMARK    6  A    between atoms: N_29  and  C_30
REMARK                            x       y       z     vdW  Elec       q    Type
REMARK                         _______ _______ _______ _____ _____    ______ ____
ROOT
ATOM      1  N   UNL     1       1.427   8.643  20.886  0.00  0.00    +0.000 NA
ATOM      2  C   UNL     1       1.493   8.969  19.445  0.00  0.00    +0.000 C 
ATOM      3  C   UNL     1       0.410   9.865  18.914  0.00  0.00    +0.000 C 
ATOM      4  C   UNL     1      -0.615  10.305  19.655  0.00  0.00    +0.000 C 
ATOM      5  C   UNL     1      -0.711   9.934  21.106  0.00  0.00    +0.000 C 
ATOM      6  C   UNL     1       0.033   8.620  21.376  0.00  0.00    +0.000 C 
ENDROOT
BRANCH   4   7
ATOM      7  C   UNL     1      -1.731  11.016  19.135  0.00  0.00    +0.000 A 
ATOM      8  C   UNL     1      -2.406  12.018  19.790  0.00  0.00    +0.000 A 
ATOM      9  N   UNL     1      -3.448  12.408  18.987  0.00  0.00    +0.000 N 
ATOM     10  C   UNL     1      -3.457  11.674  17.820  0.00  0.00    +0.000 A 
ATOM     11  C   UNL     1      -4.342  11.710  16.735  0.00  0.00    +0.000 A 
ATOM     12  C   UNL     1      -4.089  10.844  15.668  0.00  0.00    +0.000 A 
ATOM     13  C   UNL     1      -2.991   9.992  15.692  0.00  0.00    +0.000 A 
ATOM     14  F   UNL     1      -2.772   9.182  14.649  0.00  0.00    +0.000 F 
ATOM     15  C   UNL     1      -2.119   9.956  16.777  0.00  0.00    +0.000 A 
ATOM     16  C   UNL     1      -2.362  10.807  17.872  0.00  0.00    +0.000 A 
ATOM     17  H   UNL     1      -4.122  13.124  19.219  0.00  0.00    +0.000 HD
ENDBRANCH   4   7
BRANCH   1  18
ATOM     18  C   UNL     1       2.049   7.318  21.145  0.00  0.00    +0.000 C 
BRANCH  18  26
ATOM     19  C   UNL     1       4.938   5.179  17.924  0.00  0.00    +0.000 A 
ATOM     20  C   UNL     1       5.222   4.154  17.020  0.00  0.00    +0.000 A 
ATOM     21  C   UNL     1       4.271   3.174  16.757  0.00  0.00    +0.000 A 
ATOM     22  C   UNL     1       3.049   3.180  17.435  0.00  0.00    +0.000 A 
ATOM     23  C   UNL     1       2.751   4.143  18.411  0.00  0.00    +0.000 A 
ATOM     24  C   UNL     1       3.704   5.178  18.609  0.00  0.00    +0.000 A 
ATOM     25  O   UNL     1       3.495   6.231  19.482  0.00  0.00    +0.000 OA
ATOM     26  C   UNL     1       2.149   6.311  19.975  0.00  0.00    +0.000 C 
ATOM     27  C   UNL     1       1.625   4.931  20.360  0.00  0.00    +0.000 C 
ATOM     28  N   UNL     1       1.540   4.114  19.137  0.00  0.00    +0.000 N 
ATOM     29  C   UNL     1       0.824   2.851  19.275  0.00  0.00    +0.000 C 
BRANCH  19  31
ATOM     30  C   UNL     1       6.695   6.562  17.154  0.00  0.00    +0.000 C 
ATOM     31  O   UNL     1       5.824   6.187  18.217  0.00  0.00    +0.000 OA
ENDBRANCH  19  31
ENDBRANCH  18  26
ENDBRANCH   1  18
TORSDOF 4
ENDMDL
MODEL 8
REMARK VINA RESULT:      -8.3      3.511      4.981
REMARK  Name = 
REMARK  6 active torsions:
REMARK  status: ('A' for Active; 'I' for Inactive)
REMARK    1  A    between atoms: C_1  and  O_2
REMARK    2  A    between atoms: O_2  and  C_3
REMARK    3  A    between atoms: C_10  and  C_11
REMARK    4  A    between atoms: C_11  and  N_12
REMARK    5  A    between atoms: C_15  and  C_16
REMARK    6  A    between atoms: N_29  and  C_30
REMARK                            x       y       z     vdW  Elec       q    Type
REMARK                         _______ _______ _______ _____ _____    ______ ____
ROOT
ATOM      1  N   UNL     1       1.119   9.446  19.622  0.00  0.00    +0.000 NA
ATOM      2  C   UNL     1       1.351   8.265  20.481  0.00  0.00    +0.000 C 
ATOM      3  C   UNL     1       2.180   7.162  19.887  0.00  0.00    +0.000 C 
ATOM      4  C   UNL     1       2.641   7.178  18.629  0.00  0.00    +0.000 C 
ATOM      5  C   UNL     1       2.363   8.354  17.739  0.00  0.00    +0.000 C 
ATOM      6  C   UNL     1       1.090   9.081  18.190  0.00  0.00    +0.000 C 
ENDROOT
BRANCH   4   7
ATOM      7  C   UNL     1       3.285   6.079  17.999  0.00  0.00    +0.000 A 
ATOM      8  C   UNL     1       2.699   4.864  17.733  0.00  0.00    +0.000 A 
ATOM      9  N   UNL     1       3.656   4.057  17.174  0.00  0.00    +0.000 N 
ATOM     10  C   UNL     1       4.855   4.730  17.072  0.00  0.00    +0.000 A 
ATOM     11  C   UNL     1       6.099   4.298  16.593  0.00  0.00    +0.000 A 
ATOM     12  C   UNL     1       7.147   5.222  16.598  0.00  0.00    +0.000 A 
ATOM     13  C   UNL     1       6.947   6.519  17.054  0.00  0.00    +0.000 A 
ATOM     14  F   UNL     1       7.970   7.381  17.037  0.00  0.00    +0.000 F 
ATOM     15  C   UNL     1       5.710   6.940  17.536  0.00  0.00    +0.000 A 
ATOM     16  C   UNL     1       4.641   6.023  17.556  0.00  0.00    +0.000 A 
ATOM     17  H   UNL     1       3.511   3.099  16.886  0.00  0.00    +0.000 HD
ENDBRANCH   4   7
BRANCH   1  18
ATOM     18  C   UNL     1      -0.169  10.098  19.977  0.00  0.00    +0.000 C 
BRANCH  18  26
ATOM     19  C   UNL     1      -1.694  13.318  23.234  0.00  0.00    +0.000 A 
ATOM     20  C   UNL     1      -1.589  14.547  23.888  0.00  0.00    +0.000 A 
ATOM     21  C   UNL     1      -0.620  15.464  23.495  0.00  0.00    +0.000 A 
ATOM     22  C   UNL     1       0.286  15.139  22.482  0.00  0.00    +0.000 A 
ATOM     23  C   UNL     1       0.271  13.886  21.851  0.00  0.00    +0.000 A 
ATOM     24  C   UNL     1      -0.774  12.993  22.215  0.00  0.00    +0.000 A 
ATOM     25  O   UNL     1      -0.949  11.761  21.611  0.00  0.00    +0.000 OA
ATOM     26  C   UNL     1      -0.142  11.576  20.437  0.00  0.00    +0.000 C 
ATOM     27  C   UNL     1       1.279  12.079  20.665  0.00  0.00    +0.000 C 
ATOM     28  N   UNL     1       1.223  13.537  20.869  0.00  0.00    +0.000 N 
ATOM     29  C   UNL     1       2.511  14.223  20.852  0.00  0.00    +0.000 C 
BRANCH  19  31
ATOM     30  C   UNL     1      -3.949  12.878  23.792  0.00  0.00    +0.000 C 
ATOM     31  O   UNL     1      -2.638  12.374  23.559  0.00  0.00    +0.000 OA
ENDBRANCH  19  31
ENDBRANCH  18  26
ENDBRANCH   1  18
TORSDOF 4
ENDMDL
MODEL 9
REMARK VINA RESULT:      -8.2      4.022      9.864
REMARK  Name = 
REMARK  6 active torsions:
REMARK  status: ('A' for Active; 'I' for Inactive)
REMARK    1  A    between atoms: C_1  and  O_2
REMARK    2  A    between atoms: O_2  and  C_3
REMARK    3  A    between atoms: C_10  and  C_11
REMARK    4  A    between atoms: C_11  and  N_12
REMARK    5  A    between atoms: C_15  and  C_16
REMARK    6  A    between atoms: N_29  and  C_30
REMARK                            x       y       z     vdW  Elec       q    Type
REMARK                         _______ _______ _______ _____ _____    ______ ____
ROOT
ATOM      1  N   UNL     1       2.233   7.931  19.689  0.00  0.00    +0.000 NA
ATOM      2  C   UNL     1       2.041   8.415  18.305  0.00  0.00    +0.000 C 
ATOM      3  C   UNL     1       1.396   9.763  18.153  0.00  0.00    +0.000 C 
ATOM      4  C   UNL     1       0.940  10.485  19.185  0.00  0.00    +0.000 C 
ATOM      5  C   UNL     1       1.088   9.973  20.588  0.00  0.00    +0.000 C 
ATOM      6  C   UNL     1       1.182   8.442  20.594  0.00  0.00    +0.000 C 
ENDROOT
BRANCH   4   7
ATOM      7  C   UNL     1       0.184  11.682  19.052  0.00  0.00    +0.000 A 
ATOM      8  C   UNL     1      -1.178  11.742  18.875  0.00  0.00    +0.000 A 
ATOM      9  N   UNL     1      -1.518  13.063  18.734  0.00  0.00    +0.000 N 
ATOM     10  C   UNL     1      -0.397  13.861  18.818  0.00  0.00    +0.000 A 
ATOM     11  C   UNL     1      -0.265  15.251  18.706  0.00  0.00    +0.000 A 
ATOM     12  C   UNL     1       1.016  15.791  18.853  0.00  0.00    +0.000 A 
ATOM     13  C   UNL     1       2.107  14.967  19.109  0.00  0.00    +0.000 A 
ATOM     14  F   UNL     1       3.318  15.517  19.253  0.00  0.00    +0.000 F 
ATOM     15  C   UNL     1       1.969  13.586  19.212  0.00  0.00    +0.000 A 
ATOM     16  C   UNL     1       0.691  13.016  19.053  0.00  0.00    +0.000 A 
ATOM     17  H   UNL     1      -2.456  13.407  18.579  0.00  0.00    +0.000 HD
ENDBRANCH   4   7
BRANCH   1  18
ATOM     18  C   UNL     1       2.216   6.446  19.725  0.00  0.00    +0.000 C 
BRANCH  18  26
ATOM     19  C   UNL     1       6.007   6.127  16.753  0.00  0.00    +0.000 A 
ATOM     20  C   UNL     1       6.815   5.414  15.866  0.00  0.00    +0.000 A 
ATOM     21  C   UNL     1       6.474   4.114  15.505  0.00  0.00    +0.000 A 
ATOM     22  C   UNL     1       5.353   3.498  16.069  0.00  0.00    +0.000 A 
ATOM     23  C   UNL     1       4.557   4.147  17.025  0.00  0.00    +0.000 A 
ATOM     24  C   UNL     1       4.879   5.499  17.323  0.00  0.00    +0.000 A 
ATOM     25  O   UNL     1       4.126   6.274  18.186  0.00  0.00    +0.000 OA
ATOM     26  C   UNL     1       2.875   5.674  18.555  0.00  0.00    +0.000 C 
ATOM     27  C   UNL     1       3.051   4.193  18.873  0.00  0.00    +0.000 C 
ATOM     28  N   UNL     1       3.459   3.503  17.638  0.00  0.00    +0.000 N 
ATOM     29  C   UNL     1       3.431   2.046  17.694  0.00  0.00    +0.000 C 
BRANCH  19  31
ATOM     30  C   UNL     1       7.621   7.669  17.533  0.00  0.00    +0.000 C 
ATOM     31  O   UNL     1       6.275   7.418  17.139  0.00  0.00    +0.000 OA
ENDBRANCH  19  31
ENDBRANCH  18  26
ENDBRANCH   1  18
TORSDOF 4
ENDMDL
