MODEL 1
REMARK VINA RESULT:      -8.1      0.000      0.000
REMARK  Name = 
REMARK  3 active torsions:
REMARK  status: ('A' for Active; 'I' for Inactive)
REMARK    1  A    between atoms: C_1  and  C_2
REMARK    2  A    between atoms: N_4  and  C_5
REMARK    3  A    between atoms: C_13  and  C_14
REMARK                            x       y       z     vdW  Elec       q    Type
REMARK                         _______ _______ _______ _____ _____    ______ ____
ROOT
ATOM      1  C   UNL     1       5.590   4.548  15.098  0.00  0.00    +0.000 A 
ATOM      2  C   UNL     1       5.569   5.914  15.408  0.00  0.00    +0.000 A 
ATOM      3  C   UNL     1       4.858   6.401  16.502  0.00  0.00    +0.000 A 
ATOM      4  C   UNL     1       4.149   5.520  17.298  0.00  0.00    +0.000 A 
ATOM      5  N   UNL     1       3.482   6.043  18.429  0.00  0.00    +0.000 N 
ATOM      6  C   UNL     1       2.756   5.295  19.331  0.00  0.00    +0.000 A 
ATOM      7  O   UNL     1       2.225   5.816  20.305  0.00  0.00    +0.000 OA
ATOM      8  C   UNL     1       2.702   3.881  19.027  0.00  0.00    +0.000 A 
ATOM      9  C   UNL     1       2.090   2.844  19.689  0.00  0.00    +0.000 A 
ATOM     10  C   UNL     1       1.287   2.795  20.932  0.00  0.00    +0.000 C 
ATOM     11  N   UNL     1       2.380   1.736  18.932  0.00  0.00    +0.000 N 
ATOM     12  N   UNL     1       3.137   1.989  17.838  0.00  0.00    +0.000 NA
ATOM     13  C   UNL     1       3.335   3.313  17.896  0.00  0.00    +0.000 A 
ATOM     14  C   UNL     1       4.109   4.142  16.982  0.00  0.00    +0.000 A 
ATOM     15  C   UNL     1       4.819   3.661  15.868  0.00  0.00    +0.000 A 
ATOM     16  H   UNL     1       3.546   7.030  18.638  0.00  0.00    +0.000 HD
ATOM     17  H   UNL     1       2.099   0.776  19.107  0.00  0.00    +0.000 HD
ENDROOT
BRANCH   1  21
ATOM     18  C   UNL     1       6.940   3.070  11.885  0.00  0.00    +0.000 C 
ATOM     19  C   UNL     1       5.887   3.622  12.806  0.00  0.00    +0.000 C 
ATOM     20  O   UNL     1       4.717   3.665  12.434  0.00  0.00    +0.000 OA
ATOM     21  N   UNL     1       6.382   4.051  14.033  0.00  0.00    +0.000 N 
ATOM     22  H   UNL     1       7.387   4.148  14.122  0.00  0.00    +0.000 HD
ENDBRANCH   1  21
TORSDOF 1
ENDMDL
MODEL 2
REMARK VINA RESULT:      -7.6      1.239      1.240
REMARK  Name = 
REMARK  3 active torsions:
REMARK  status: ('A' for Active; 'I' for Inactive)
REMARK    1  A    between atoms: C_1  and  C_2
REMARK    2  A    between atoms: N_4  and  C_5
REMARK    3  A    between atoms: C_13  and  C_14
REMARK                            x       y       z     vdW  Elec       q    Type
REMARK                         _______ _______ _______ _____ _____    ______ ____
ROOT
ATOM      1  C   UNL     1       5.130   4.856  15.394  0.00  0.00    +0.000 A 
ATOM      2  C   UNL     1       5.207   6.172  15.870  0.00  0.00    +0.000 A 
ATOM      3  C   UNL     1       4.651   6.536  17.093  0.00  0.00    +0.000 A 
ATOM      4  C   UNL     1       3.999   5.584  17.855  0.00  0.00    +0.000 A 
ATOM      5  N   UNL     1       3.493   5.978  19.114  0.00  0.00    +0.000 N 
ATOM      6  C   UNL     1       2.844   5.143  19.998  0.00  0.00    +0.000 A 
ATOM      7  O   UNL     1       2.454   5.552  21.086  0.00  0.00    +0.000 OA
ATOM      8  C   UNL     1       2.690   3.783  19.531  0.00  0.00    +0.000 A 
ATOM      9  C   UNL     1       2.112   2.688  20.129  0.00  0.00    +0.000 A 
ATOM     10  C   UNL     1       1.458   2.506  21.445  0.00  0.00    +0.000 C 
ATOM     11  N   UNL     1       2.262   1.678  19.213  0.00  0.00    +0.000 N 
ATOM     12  N   UNL     1       2.897   2.045  18.074  0.00  0.00    +0.000 NA
ATOM     13  C   UNL     1       3.160   3.344  18.270  0.00  0.00    +0.000 A 
ATOM     14  C   UNL     1       3.860   4.259  17.379  0.00  0.00    +0.000 A 
ATOM     15  C   UNL     1       4.413   3.903  16.137  0.00  0.00    +0.000 A 
ATOM     16  H   UNL     1       3.626   6.928  19.434  0.00  0.00    +0.000 HD
ATOM     17  H   UNL     1       1.959   0.713  19.301  0.00  0.00    +0.000 HD
ENDROOT
BRANCH   1  21
ATOM     18  C   UNL     1       7.459   4.372  12.449  0.00  0.00    +0.000 C 
ATOM     19  C   UNL     1       7.055   4.853  13.816  0.00  0.00    +0.000 C 
ATOM     20  O   UNL     1       7.849   5.506  14.488  0.00  0.00    +0.000 OA
ATOM     21  N   UNL     1       5.769   4.476  14.188  0.00  0.00    +0.000 N 
ATOM     22  H   UNL     1       5.310   3.769  13.627  0.00  0.00    +0.000 HD
ENDBRANCH   1  21
TORSDOF 1
ENDMDL
MODEL 3
REMARK VINA RESULT:      -7.6      3.264      4.941
REMARK  Name = 
REMARK  3 active torsions:
REMARK  status: ('A' for Active; 'I' for Inactive)
REMARK    1  A    between atoms: C_1  and  C_2
REMARK    2  A    between atoms: N_4  and  C_5
REMARK    3  A    between atoms: C_13  and  C_14
REMARK                            x       y       z     vdW  Elec       q    Type
REMARK                         _______ _______ _______ _____ _____    ______ ____
ROOT
ATOM      1  C   UNL     1       4.117   5.254  17.545  0.00  0.00    +0.000 A 
ATOM      2  C   UNL     1       4.030   4.604  18.784  0.00  0.00    +0.000 A 
ATOM      3  C   UNL     1       3.338   5.166  19.853  0.00  0.00    +0.000 A 
ATOM      4  C   UNL     1       2.728   6.398  19.695  0.00  0.00    +0.000 A 
ATOM      5  N   UNL     1       1.990   6.913  20.785  0.00  0.00    +0.000 N 
ATOM      6  C   UNL     1       1.307   8.110  20.777  0.00  0.00    +0.000 A 
ATOM      7  O   UNL     1       0.666   8.481  21.755  0.00  0.00    +0.000 OA
ATOM      8  C   UNL     1       1.408   8.847  19.537  0.00  0.00    +0.000 A 
ATOM      9  C   UNL     1       0.866  10.054  19.163  0.00  0.00    +0.000 A 
ATOM     10  C   UNL     1      -0.008  11.013  19.876  0.00  0.00    +0.000 C 
ATOM     11  N   UNL     1       1.307  10.244  17.877  0.00  0.00    +0.000 N 
ATOM     12  N   UNL     1       2.088   9.245  17.401  0.00  0.00    +0.000 NA
ATOM     13  C   UNL     1       2.151   8.384  18.425  0.00  0.00    +0.000 A 
ATOM     14  C   UNL     1       2.840   7.102  18.474  0.00  0.00    +0.000 A 
ATOM     15  C   UNL     1       3.552   6.532  17.404  0.00  0.00    +0.000 A 
ATOM     16  H   UNL     1       1.913   6.376  21.639  0.00  0.00    +0.000 HD
ATOM     17  H   UNL     1       1.109  11.030  17.265  0.00  0.00    +0.000 HD
ENDROOT
BRANCH   1  21
ATOM     18  C   UNL     1       6.307   4.317  14.603  0.00  0.00    +0.000 C 
ATOM     19  C   UNL     1       5.886   5.128  15.798  0.00  0.00    +0.000 C 
ATOM     20  O   UNL     1       6.540   6.116  16.122  0.00  0.00    +0.000 OA
ATOM     21  N   UNL     1       4.753   4.637  16.439  0.00  0.00    +0.000 N 
ATOM     22  H   UNL     1       4.443   3.706  16.190  0.00  0.00    +0.000 HD
ENDBRANCH   1  21
TORSDOF 1
ENDMDL
MODEL 4
REMARK VINA RESULT:      -7.6      2.949      4.359
REMARK  Name = 
REMARK  3 active torsions:
REMARK  status: ('A' for Active; 'I' for Inactive)
REMARK    1  A    between atoms: C_1  and  C_2
REMARK    2  A    between atoms: N_4  and  C_5
REMARK    3  A    between atoms: C_13  and  C_14
REMARK                            x       y       z     vdW  Elec       q    Type
REMARK                         _______ _______ _______ _____ _____    ______ ____
ROOT
ATOM      1  C   UNL     1       6.564   6.728  17.174  0.00  0.00    +0.000 A 
ATOM      2  C   UNL     1       7.008   5.645  16.402  0.00  0.00    +0.000 A 
ATOM      3  C   UNL     1       6.336   4.427  16.406  0.00  0.00    +0.000 A 
ATOM      4  C   UNL     1       5.210   4.273  17.195  0.00  0.00    +0.000 A 
ATOM      5  N   UNL     1       4.523   3.039  17.133  0.00  0.00    +0.000 N 
ATOM      6  C   UNL     1       3.376   2.741  17.837  0.00  0.00    +0.000 A 
ATOM      7  O   UNL     1       2.822   1.654  17.713  0.00  0.00    +0.000 OA
ATOM      8  C   UNL     1       2.905   3.809  18.691  0.00  0.00    +0.000 A 
ATOM      9  C   UNL     1       1.811   3.878  19.521  0.00  0.00    +0.000 A 
ATOM     10  C   UNL     1       0.735   2.908  19.828  0.00  0.00    +0.000 C 
ATOM     11  N   UNL     1       1.879   5.132  20.074  0.00  0.00    +0.000 N 
ATOM     12  N   UNL     1       2.935   5.871  19.655  0.00  0.00    +0.000 NA
ATOM     13  C   UNL     1       3.568   5.054  18.803  0.00  0.00    +0.000 A 
ATOM     14  C   UNL     1       4.766   5.330  18.023  0.00  0.00    +0.000 A 
ATOM     15  C   UNL     1       5.459   6.554  18.023  0.00  0.00    +0.000 A 
ATOM     16  H   UNL     1       4.855   2.310  16.517  0.00  0.00    +0.000 HD
ATOM     17  H   UNL     1       1.237   5.550  20.740  0.00  0.00    +0.000 HD
ENDROOT
BRANCH   1  21
ATOM     18  C   UNL     1       8.624   9.856  17.730  0.00  0.00    +0.000 C 
ATOM     19  C   UNL     1       8.163   8.449  17.998  0.00  0.00    +0.000 C 
ATOM     20  O   UNL     1       8.644   7.822  18.939  0.00  0.00    +0.000 OA
ATOM     21  N   UNL     1       7.206   7.990  17.100  0.00  0.00    +0.000 N 
ATOM     22  H   UNL     1       7.057   8.534  16.259  0.00  0.00    +0.000 HD
ENDBRANCH   1  21
TORSDOF 1
ENDMDL
MODEL 5
REMARK VINA RESULT:      -7.0      3.543      7.002
REMARK  Name = 
REMARK  3 active torsions:
REMARK  status: ('A' for Active; 'I' for Inactive)
REMARK    1  A    between atoms: C_1  and  C_2
REMARK    2  A    between atoms: N_4  and  C_5
REMARK    3  A    between atoms: C_13  and  C_14
REMARK                            x       y       z     vdW  Elec       q    Type
REMARK                         _______ _______ _______ _____ _____    ______ ____
ROOT
ATOM      1  C   UNL     1       1.011   8.578  20.298  0.00  0.00    +0.000 A 
ATOM      2  C   UNL     1       1.536   9.075  19.097  0.00  0.00    +0.000 A 
ATOM      3  C   UNL     1       2.335   8.290  18.272  0.00  0.00    +0.000 A 
ATOM      4  C   UNL     1       2.629   6.991  18.647  0.00  0.00    +0.000 A 
ATOM      5  N   UNL     1       3.401   6.206  17.760  0.00  0.00    +0.000 N 
ATOM      6  C   UNL     1       3.755   4.892  17.977  0.00  0.00    +0.000 A 
ATOM      7  O   UNL     1       4.407   4.267  17.147  0.00  0.00    +0.000 OA
ATOM      8  C   UNL     1       3.283   4.345  19.229  0.00  0.00    +0.000 A 
ATOM      9  C   UNL     1       3.433   3.092  19.775  0.00  0.00    +0.000 A 
ATOM     10  C   UNL     1       4.110   1.870  19.285  0.00  0.00    +0.000 C 
ATOM     11  N   UNL     1       2.774   3.161  20.978  0.00  0.00    +0.000 N 
ATOM     12  N   UNL     1       2.211   4.365  21.238  0.00  0.00    +0.000 NA
ATOM     13  C   UNL     1       2.526   5.096  20.160  0.00  0.00    +0.000 A 
ATOM     14  C   UNL     1       2.158   6.476  19.876  0.00  0.00    +0.000 A 
ATOM     15  C   UNL     1       1.361   7.281  20.710  0.00  0.00    +0.000 A 
ATOM     16  H   UNL     1       3.707   6.598  16.879  0.00  0.00    +0.000 HD
ATOM     17  H   UNL     1       2.666   2.423  21.667  0.00  0.00    +0.000 HD
ENDROOT
BRANCH   1  21
ATOM     18  C   UNL     1      -0.760  10.504  23.034  0.00  0.00    +0.000 C 
ATOM     19  C   UNL     1       0.377   9.747  22.402  0.00  0.00    +0.000 C 
ATOM     20  O   UNL     1       1.402   9.541  23.047  0.00  0.00    +0.000 OA
ATOM     21  N   UNL     1       0.131   9.357  21.090  0.00  0.00    +0.000 N 
ATOM     22  H   UNL     1      -0.665   9.772  20.621  0.00  0.00    +0.000 HD
ENDBRANCH   1  21
TORSDOF 1
ENDMDL
MODEL 6
REMARK VINA RESULT:      -6.9      1.957      2.055
REMARK  Name = 
REMARK  3 active torsions:
REMARK  status: ('A' for Active; 'I' for Inactive)
REMARK    1  A    between atoms: C_1  and  C_2
REMARK    2  A    between atoms: N_4  and  C_5
REMARK    3  A    between atoms: C_13  and  C_14
REMARK                            x       y       z     vdW  Elec       q    Type
REMARK                         _______ _______ _______ _____ _____    ______ ____
ROOT
ATOM      1  C   UNL     1       6.514   4.878  15.609  0.00  0.00    +0.000 A 
ATOM      2  C   UNL     1       7.460   4.762  16.637  0.00  0.00    +0.000 A 
ATOM      3  C   UNL     1       7.098   4.347  17.915  0.00  0.00    +0.000 A 
ATOM      4  C   UNL     1       5.774   4.050  18.183  0.00  0.00    +0.000 A 
ATOM      5  N   UNL     1       5.451   3.581  19.477  0.00  0.00    +0.000 N 
ATOM      6  C   UNL     1       4.187   3.221  19.892  0.00  0.00    +0.000 A 
ATOM      7  O   UNL     1       3.988   2.799  21.026  0.00  0.00    +0.000 OA
ATOM      8  C   UNL     1       3.162   3.373  18.883  0.00  0.00    +0.000 A 
ATOM      9  C   UNL     1       1.813   3.114  18.927  0.00  0.00    +0.000 A 
ATOM     10  C   UNL     1       0.938   2.586  19.999  0.00  0.00    +0.000 C 
ATOM     11  N   UNL     1       1.357   3.452  17.677  0.00  0.00    +0.000 N 
ATOM     12  N   UNL     1       2.317   3.905  16.836  0.00  0.00    +0.000 NA
ATOM     13  C   UNL     1       3.430   3.858  17.580  0.00  0.00    +0.000 A 
ATOM     14  C   UNL     1       4.787   4.206  17.182  0.00  0.00    +0.000 A 
ATOM     15  C   UNL     1       5.160   4.639  15.897  0.00  0.00    +0.000 A 
ATOM     16  H   UNL     1       6.183   3.463  20.165  0.00  0.00    +0.000 HD
ATOM     17  H   UNL     1       0.405   3.394  17.330  0.00  0.00    +0.000 HD
ENDROOT
BRANCH   1  21
ATOM     18  C   UNL     1       7.353   4.974  11.919  0.00  0.00    +0.000 C 
ATOM     19  C   UNL     1       6.792   4.386  13.185  0.00  0.00    +0.000 C 
ATOM     20  O   UNL     1       6.287   3.266  13.162  0.00  0.00    +0.000 OA
ATOM     21  N   UNL     1       6.905   5.222  14.290  0.00  0.00    +0.000 N 
ATOM     22  H   UNL     1       7.151   6.190  14.121  0.00  0.00    +0.000 HD
ENDBRANCH   1  21
TORSDOF 1
ENDMDL
MODEL 7
REMARK VINA RESULT:      -6.9      3.601      6.840
REMARK  Name = 
REMARK  3 active torsions:
REMARK  status: ('A' for Active; 'I' for Inactive)
REMARK    1  A    between atoms: C_1  and  C_2
REMARK    2  A    between atoms: N_4  and  C_5
REMARK    3  A    between atoms: C_13  and  C_14
REMARK                            x       y       z     vdW  Elec       q    Type
REMARK                         _______ _______ _______ _____ _____    ______ ____
ROOT
ATOM      1  C   UNL     1       1.627   8.936  18.524  0.00  0.00    +0.000 A 
ATOM      2  C   UNL     1       1.397   8.252  19.726  0.00  0.00    +0.000 A 
ATOM      3  C   UNL     1       2.152   7.139  20.084  0.00  0.00    +0.000 A 
ATOM      4  C   UNL     1       3.147   6.690  19.234  0.00  0.00    +0.000 A 
ATOM      5  N   UNL     1       3.928   5.590  19.655  0.00  0.00    +0.000 N 
ATOM      6  C   UNL     1       4.968   5.042  18.936  0.00  0.00    +0.000 A 
ATOM      7  O   UNL     1       5.618   4.101  19.379  0.00  0.00    +0.000 OA
ATOM      8  C   UNL     1       5.214   5.679  17.661  0.00  0.00    +0.000 A 
ATOM      9  C   UNL     1       6.153   5.417  16.692  0.00  0.00    +0.000 A 
ATOM     10  C   UNL     1       7.238   4.413  16.607  0.00  0.00    +0.000 C 
ATOM     11  N   UNL     1       5.900   6.342  15.710  0.00  0.00    +0.000 N 
ATOM     12  N   UNL     1       4.871   7.180  15.983  0.00  0.00    +0.000 NA
ATOM     13  C   UNL     1       4.447   6.770  17.186  0.00  0.00    +0.000 A 
ATOM     14  C   UNL     1       3.370   7.328  17.992  0.00  0.00    +0.000 A 
ATOM     15  C   UNL     1       2.593   8.443  17.632  0.00  0.00    +0.000 A 
ATOM     16  H   UNL     1       3.756   5.168  20.558  0.00  0.00    +0.000 HD
ATOM     17  H   UNL     1       6.394   6.462  14.831  0.00  0.00    +0.000 HD
ENDROOT
BRANCH   1  21
ATOM     18  C   UNL     1      -0.147  12.281  18.503  0.00  0.00    +0.000 C 
ATOM     19  C   UNL     1       0.718  11.189  19.070  0.00  0.00    +0.000 C 
ATOM     20  O   UNL     1       1.186  11.311  20.200  0.00  0.00    +0.000 OA
ATOM     21  N   UNL     1       0.909  10.117  18.206  0.00  0.00    +0.000 N 
ATOM     22  H   UNL     1       0.639  10.244  17.238  0.00  0.00    +0.000 HD
ENDBRANCH   1  21
TORSDOF 1
ENDMDL
MODEL 8
REMARK VINA RESULT:      -6.9      5.254      7.172
REMARK  Name = 
REMARK  3 active torsions:
REMARK  status: ('A' for Active; 'I' for Inactive)
REMARK    1  A    between atoms: C_1  and  C_2
REMARK    2  A    between atoms: N_4  and  C_5
REMARK    3  A    between atoms: C_13  and  C_14
REMARK                            x       y       z     vdW  Elec       q    Type
REMARK                         _______ _______ _______ _____ _____    ______ ____
ROOT
ATOM      1  C   UNL     1       2.493   7.371  19.011  0.00  0.00    +0.000 A 
ATOM      2  C   UNL     1       2.449   8.222  17.898  0.00  0.00    +0.000 A 
ATOM      3  C   UNL     1       1.754   9.427  17.931  0.00  0.00    +0.000 A 
ATOM      4  C   UNL     1       1.082   9.793  19.083  0.00  0.00    +0.000 A 
ATOM      5  N   UNL     1       0.431  11.048  19.098  0.00  0.00    +0.000 N 
ATOM      6  C   UNL     1      -0.257  11.565  20.174  0.00  0.00    +0.000 A 
ATOM      7  O   UNL     1      -0.777  12.674  20.121  0.00  0.00    +0.000 OA
ATOM      8  C   UNL     1      -0.288  10.701  21.334  0.00  0.00    +0.000 A 
ATOM      9  C   UNL     1      -0.862  10.878  22.571  0.00  0.00    +0.000 A 
ATOM     10  C   UNL     1      -1.635  11.998  23.155  0.00  0.00    +0.000 C 
ATOM     11  N   UNL     1      -0.566   9.726  23.255  0.00  0.00    +0.000 N 
ATOM     12  N   UNL     1       0.160   8.827  22.548  0.00  0.00    +0.000 NA
ATOM     13  C   UNL     1       0.330   9.428  21.362  0.00  0.00    +0.000 A 
ATOM     14  C   UNL     1       1.065   8.934  20.206  0.00  0.00    +0.000 A 
ATOM     15  C   UNL     1       1.759   7.712  20.160  0.00  0.00    +0.000 A 
ATOM     16  H   UNL     1       0.478  11.648  18.285  0.00  0.00    +0.000 HD
ATOM     17  H   UNL     1      -0.822   9.490  24.208  0.00  0.00    +0.000 HD
ENDROOT
BRANCH   1  21
ATOM     18  C   UNL     1       3.853   3.857  18.643  0.00  0.00    +0.000 C 
ATOM     19  C   UNL     1       2.861   4.973  18.455  0.00  0.00    +0.000 C 
ATOM     20  O   UNL     1       1.809   4.755  17.858  0.00  0.00    +0.000 OA
ATOM     21  N   UNL     1       3.271   6.186  18.997  0.00  0.00    +0.000 N 
ATOM     22  H   UNL     1       4.241   6.269  19.273  0.00  0.00    +0.000 HD
ENDBRANCH   1  21
TORSDOF 1
ENDMDL
MODEL 9
REMARK VINA RESULT:      -6.9      2.866      7.014
REMARK  Name = 
REMARK  3 active torsions:
REMARK  status: ('A' for Active; 'I' for Inactive)
REMARK    1  A    between atoms: C_1  and  C_2
REMARK    2  A    between atoms: N_4  and  C_5
REMARK    3  A    between atoms: C_13  and  C_14
REMARK                            x       y       z     vdW  Elec       q    Type
REMARK                         _______ _______ _______ _____ _____    ______ ____
ROOT
ATOM      1  C   UNL     1       1.829   7.159  20.507  0.00  0.00    +0.000 A 
ATOM      2  C   UNL     1       1.361   5.926  20.984  0.00  0.00    +0.000 A 
ATOM      3  C   UNL     1       1.733   4.727  20.384  0.00  0.00    +0.000 A 
ATOM      4  C   UNL     1       2.576   4.748  19.287  0.00  0.00    +0.000 A 
ATOM      5  N   UNL     1       2.974   3.508  18.736  0.00  0.00    +0.000 N 
ATOM      6  C   UNL     1       3.826   3.361  17.663  0.00  0.00    +0.000 A 
ATOM      7  O   UNL     1       4.146   2.250  17.256  0.00  0.00    +0.000 OA
ATOM      8  C   UNL     1       4.297   4.607  17.099  0.00  0.00    +0.000 A 
ATOM      9  C   UNL     1       5.147   4.852  16.047  0.00  0.00    +0.000 A 
ATOM     10  C   UNL     1       5.882   3.948  15.133  0.00  0.00    +0.000 C 
ATOM     11  N   UNL     1       5.220   6.221  15.976  0.00  0.00    +0.000 N 
ATOM     12  N   UNL     1       4.481   6.869  16.909  0.00  0.00    +0.000 NA
ATOM     13  C   UNL     1       3.911   5.873  17.601  0.00  0.00    +0.000 A 
ATOM     14  C   UNL     1       3.024   5.977  18.751  0.00  0.00    +0.000 A 
ATOM     15  C   UNL     1       2.633   7.185  19.356  0.00  0.00    +0.000 A 
ATOM     16  H   UNL     1       2.651   2.646  19.154  0.00  0.00    +0.000 HD
ATOM     17  H   UNL     1       5.758   6.779  15.320  0.00  0.00    +0.000 HD
ENDROOT
BRANCH   1  21
ATOM     18  C   UNL     1       0.173  10.094  22.233  0.00  0.00    +0.000 C 
ATOM     19  C   UNL     1       0.244   8.718  21.628  0.00  0.00    +0.000 C 
ATOM     20  O   UNL     1      -0.767   8.022  21.583  0.00  0.00    +0.000 OA
ATOM     21  N   UNL     1       1.512   8.369  21.174  0.00  0.00    +0.000 N 
ATOM     22  H   UNL     1       2.287   8.953  21.462  0.00  0.00    +0.000 HD
ENDBRANCH   1  21
TORSDOF 1
ENDMDL
