MODEL 1
REMARK VINA RESULT:      -6.8      0.000      0.000
REMARK  Name = 
REMARK  6 active torsions:
REMARK  status: ('A' for Active; 'I' for Inactive)
REMARK    1  A    between atoms: C_1  and  C_2
REMARK    2  A    between atoms: C_2  and  C_3
REMARK    3  A    between atoms: C_5  and  C_6
REMARK    4  A    between atoms: C_10  and  O_11
REMARK    5  A    between atoms: O_11  and  C_12
REMARK    6  A    between atoms: C_12  and  C_13
REMARK                            x       y       z     vdW  Elec       q    Type
REMARK                         _______ _______ _______ _____ _____    ______ ____
ROOT
ATOM      1  C   UNL     1       5.531   4.558  16.261  0.00  0.00    +0.000 A 
ATOM      2  C   UNL     1       6.591   4.570  17.172  0.00  0.00    +0.000 A 
ATOM      3  N   UNL     1       6.470   4.528  18.519  0.00  0.00    +0.000 NA
ATOM      4  C   UNL     1       5.213   4.443  19.008  0.00  0.00    +0.000 A 
ATOM      5  C   UNL     1       4.072   4.397  18.223  0.00  0.00    +0.000 A 
ATOM      6  C   UNL     1       4.249   4.439  16.837  0.00  0.00    +0.000 A 
ENDROOT
BRANCH   1   9
ATOM      7  C   UNL     1       6.062   3.669  13.818  0.00  0.00    +0.000 C 
ATOM      8  C   UNL     1       7.053   4.762  14.112  0.00  0.00    +0.000 C 
ATOM      9  C   UNL     1       5.688   4.788  14.766  0.00  0.00    +0.000 C 
BRANCH   7  11
ATOM     10  C   UNL     1       5.960   2.328  11.696  0.00  0.00    +0.000 C 
ATOM     11  C   UNL     1       5.543   3.600  12.409  0.00  0.00    +0.000 C 
ENDBRANCH   7  11
ENDBRANCH   1   9
BRANCH   5  12
ATOM     12  O   UNL     1       2.890   4.352  18.902  0.00  0.00    +0.000 OA
BRANCH  12  13
ATOM     13  C   UNL     1       2.775   5.169  20.070  0.00  0.00    +0.000 C 
BRANCH  13  14
ATOM     14  C   UNL     1       2.092   4.343  21.159  0.00  0.00    +0.000 C 
ATOM     15  C   UNL     1       2.720   2.975  21.513  0.00  0.00    +0.000 C 
ATOM     16  C   UNL     1       1.268   2.474  21.558  0.00  0.00    +0.000 C 
ATOM     17  N   UNL     1       0.905   3.588  20.653  0.00  0.00    +0.000 NA
ATOM     18  H   UNL     1       0.005   4.021  20.856  0.00  0.00    +0.000 HD
ENDBRANCH  13  14
ENDBRANCH  12  13
ENDBRANCH   5  12
TORSDOF 5
ENDMDL
MODEL 2
REMARK VINA RESULT:      -6.7      0.961      1.068
REMARK  Name = 
REMARK  6 active torsions:
REMARK  status: ('A' for Active; 'I' for Inactive)
REMARK    1  A    between atoms: C_1  and  C_2
REMARK    2  A    between atoms: C_2  and  C_3
REMARK    3  A    between atoms: C_5  and  C_6
REMARK    4  A    between atoms: C_10  and  O_11
REMARK    5  A    between atoms: O_11  and  C_12
REMARK    6  A    between atoms: C_12  and  C_13
REMARK                            x       y       z     vdW  Elec       q    Type
REMARK                         _______ _______ _______ _____ _____    ______ ____
ROOT
ATOM      1  C   UNL     1       5.593   4.641  16.087  0.00  0.00    +0.000 A 
ATOM      2  C   UNL     1       6.631   4.494  17.011  0.00  0.00    +0.000 A 
ATOM      3  N   UNL     1       6.487   4.448  18.356  0.00  0.00    +0.000 NA
ATOM      4  C   UNL     1       5.223   4.527  18.828  0.00  0.00    +0.000 A 
ATOM      5  C   UNL     1       4.097   4.649  18.028  0.00  0.00    +0.000 A 
ATOM      6  C   UNL     1       4.298   4.688  16.646  0.00  0.00    +0.000 A 
ENDROOT
BRANCH   1   9
ATOM      7  C   UNL     1       6.190   3.747  13.661  0.00  0.00    +0.000 C 
ATOM      8  C   UNL     1       7.186   4.825  13.989  0.00  0.00    +0.000 C 
ATOM      9  C   UNL     1       5.801   4.870  14.599  0.00  0.00    +0.000 C 
BRANCH   7  11
ATOM     10  C   UNL     1       5.526   2.264  11.744  0.00  0.00    +0.000 C 
ATOM     11  C   UNL     1       5.715   3.687  12.236  0.00  0.00    +0.000 C 
ENDBRANCH   7  11
ENDBRANCH   1   9
BRANCH   5  12
ATOM     12  O   UNL     1       2.910   4.755  18.692  0.00  0.00    +0.000 OA
BRANCH  12  13
ATOM     13  C   UNL     1       1.810   3.988  18.192  0.00  0.00    +0.000 C 
BRANCH  13  14
ATOM     14  C   UNL     1       1.099   3.351  19.384  0.00  0.00    +0.000 C 
ATOM     15  C   UNL     1       1.192   4.083  20.742  0.00  0.00    +0.000 C 
ATOM     16  C   UNL     1       1.392   2.679  21.331  0.00  0.00    +0.000 C 
ATOM     17  N   UNL     1       1.888   2.245  20.006  0.00  0.00    +0.000 NA
ATOM     18  H   UNL     1       1.599   1.307  19.733  0.00  0.00    +0.000 HD
ENDBRANCH  13  14
ENDBRANCH  12  13
ENDBRANCH   5  12
TORSDOF 5
ENDMDL
MODEL 3
REMARK VINA RESULT:      -6.7      0.999      1.070
REMARK  Name = 
REMARK  6 active torsions:
REMARK  status: ('A' for Active; 'I' for Inactive)
REMARK    1  A    between atoms: C_1  and  C_2
REMARK    2  A    between atoms: C_2  and  C_3
REMARK    3  A    between atoms: C_5  and  C_6
REMARK    4  A    between atoms: C_10  and  O_11
REMARK    5  A    between atoms: O_11  and  C_12
REMARK    6  A    between atoms: C_12  and  C_13
REMARK                            x       y       z     vdW  Elec       q    Type
REMARK                         _______ _______ _______ _____ _____    ______ ____
ROOT
ATOM      1  C   UNL     1       5.682   4.995  16.562  0.00  0.00    +0.000 A 
ATOM      2  C   UNL     1       6.752   4.666  17.401  0.00  0.00    +0.000 A 
ATOM      3  N   UNL     1       6.748   4.752  18.751  0.00  0.00    +0.000 NA
ATOM      4  C   UNL     1       5.598   5.171  19.324  0.00  0.00    +0.000 A 
ATOM      5  C   UNL     1       4.452   5.506  18.619  0.00  0.00    +0.000 A 
ATOM      6  C   UNL     1       4.504   5.396  17.227  0.00  0.00    +0.000 A 
ENDROOT
BRANCH   1   9
ATOM      7  C   UNL     1       6.098   3.840  14.210  0.00  0.00    +0.000 C 
ATOM      8  C   UNL     1       7.110   4.945  14.341  0.00  0.00    +0.000 C 
ATOM      9  C   UNL     1       5.775   5.060  15.047  0.00  0.00    +0.000 C 
BRANCH   7  11
ATOM     10  C   UNL     1       6.563   3.225  11.819  0.00  0.00    +0.000 C 
ATOM     11  C   UNL     1       5.516   3.627  12.841  0.00  0.00    +0.000 C 
ENDBRANCH   7  11
ENDBRANCH   1   9
BRANCH   5  12
ATOM     12  O   UNL     1       3.402   5.945  19.372  0.00  0.00    +0.000 OA
BRANCH  12  13
ATOM     13  C   UNL     1       2.153   5.265  19.213  0.00  0.00    +0.000 C 
BRANCH  13  14
ATOM     14  C   UNL     1       2.248   3.927  19.943  0.00  0.00    +0.000 C 
ATOM     15  C   UNL     1       0.967   3.064  20.015  0.00  0.00    +0.000 C 
ATOM     16  C   UNL     1       1.392   2.799  21.468  0.00  0.00    +0.000 C 
ATOM     17  N   UNL     1       2.152   4.068  21.428  0.00  0.00    +0.000 NA
ATOM     18  H   UNL     1       3.044   4.042  21.919  0.00  0.00    +0.000 HD
ENDBRANCH  13  14
ENDBRANCH  12  13
ENDBRANCH   5  12
TORSDOF 5
ENDMDL
MODEL 4
REMARK VINA RESULT:      -6.6      1.046      1.378
REMARK  Name = 
REMARK  6 active torsions:
REMARK  status: ('A' for Active; 'I' for Inactive)
REMARK    1  A    between atoms: C_1  and  C_2
REMARK    2  A    between atoms: C_2  and  C_3
REMARK    3  A    between atoms: C_5  and  C_6
REMARK    4  A    between atoms: C_10  and  O_11
REMARK    5  A    between atoms: O_11  and  C_12
REMARK    6  A    between atoms: C_12  and  C_13
REMARK                            x       y       z     vdW  Elec       q    Type
REMARK                         _______ _______ _______ _____ _____    ______ ____
ROOT
ATOM      1  C   UNL     1       5.702   4.331  16.000  0.00  0.00    +0.000 A 
ATOM      2  C   UNL     1       6.758   4.560  16.887  0.00  0.00    +0.000 A 
ATOM      3  N   UNL     1       6.686   4.477  18.235  0.00  0.00    +0.000 NA
ATOM      4  C   UNL     1       5.490   4.117  18.752  0.00  0.00    +0.000 A 
ATOM      5  C   UNL     1       4.365   3.835  17.993  0.00  0.00    +0.000 A 
ATOM      6  C   UNL     1       4.491   3.930  16.605  0.00  0.00    +0.000 A 
ENDROOT
BRANCH   1   9
ATOM      7  C   UNL     1       6.250   3.566  13.519  0.00  0.00    +0.000 C 
ATOM      8  C   UNL     1       7.094   4.779  13.801  0.00  0.00    +0.000 C 
ATOM      9  C   UNL     1       5.765   4.607  14.507  0.00  0.00    +0.000 C 
BRANCH   7  11
ATOM     10  C   UNL     1       5.848   2.060  11.549  0.00  0.00    +0.000 C 
ATOM     11  C   UNL     1       5.687   3.452  12.130  0.00  0.00    +0.000 C 
ENDBRANCH   7  11
ENDBRANCH   1   9
BRANCH   5  12
ATOM     12  O   UNL     1       3.239   3.528  18.699  0.00  0.00    +0.000 OA
BRANCH  12  13
ATOM     13  C   UNL     1       3.404   3.188  20.079  0.00  0.00    +0.000 C 
BRANCH  13  14
ATOM     14  C   UNL     1       2.494   4.100  20.901  0.00  0.00    +0.000 C 
ATOM     15  C   UNL     1       1.061   4.338  20.372  0.00  0.00    +0.000 C 
ATOM     16  C   UNL     1       1.298   5.799  20.785  0.00  0.00    +0.000 C 
ATOM     17  N   UNL     1       2.751   5.550  20.653  0.00  0.00    +0.000 NA
ATOM     18  H   UNL     1       3.325   6.010  21.358  0.00  0.00    +0.000 HD
ENDBRANCH  13  14
ENDBRANCH  12  13
ENDBRANCH   5  12
TORSDOF 5
ENDMDL
MODEL 5
REMARK VINA RESULT:      -6.6      1.342      1.470
REMARK  Name = 
REMARK  6 active torsions:
REMARK  status: ('A' for Active; 'I' for Inactive)
REMARK    1  A    between atoms: C_1  and  C_2
REMARK    2  A    between atoms: C_2  and  C_3
REMARK    3  A    between atoms: C_5  and  C_6
REMARK    4  A    between atoms: C_10  and  O_11
REMARK    5  A    between atoms: O_11  and  C_12
REMARK    6  A    between atoms: C_12  and  C_13
REMARK                            x       y       z     vdW  Elec       q    Type
REMARK                         _______ _______ _______ _____ _____    ______ ____
ROOT
ATOM      1  C   UNL     1       5.942   4.887  16.022  0.00  0.00    +0.000 A 
ATOM      2  C   UNL     1       7.075   4.529  16.759  0.00  0.00    +0.000 A 
ATOM      3  N   UNL     1       7.189   4.592  18.106  0.00  0.00    +0.000 NA
ATOM      4  C   UNL     1       6.098   5.015  18.783  0.00  0.00    +0.000 A 
ATOM      5  C   UNL     1       4.901   5.376  18.185  0.00  0.00    +0.000 A 
ATOM      6  C   UNL     1       4.831   5.291  16.792  0.00  0.00    +0.000 A 
ENDROOT
BRANCH   1   9
ATOM      7  C   UNL     1       6.129   3.766  13.624  0.00  0.00    +0.000 C 
ATOM      8  C   UNL     1       7.171   4.850  13.685  0.00  0.00    +0.000 C 
ATOM      9  C   UNL     1       5.905   4.977  14.505  0.00  0.00    +0.000 C 
BRANCH   7  11
ATOM     10  C   UNL     1       5.672   2.221  11.697  0.00  0.00    +0.000 C 
ATOM     11  C   UNL     1       5.427   3.588  12.307  0.00  0.00    +0.000 C 
ENDBRANCH   7  11
ENDBRANCH   1   9
BRANCH   5  12
ATOM     12  O   UNL     1       3.927   5.816  19.033  0.00  0.00    +0.000 OA
BRANCH  12  13
ATOM     13  C   UNL     1       2.575   5.479  18.708  0.00  0.00    +0.000 C 
BRANCH  13  14
ATOM     14  C   UNL     1       2.348   4.017  19.089  0.00  0.00    +0.000 C 
ATOM     15  C   UNL     1       2.004   3.031  17.949  0.00  0.00    +0.000 C 
ATOM     16  C   UNL     1       0.983   2.453  18.941  0.00  0.00    +0.000 C 
ATOM     17  N   UNL     1       0.976   3.765  19.625  0.00  0.00    +0.000 NA
ATOM     18  H   UNL     1       0.916   3.712  20.641  0.00  0.00    +0.000 HD
ENDBRANCH  13  14
ENDBRANCH  12  13
ENDBRANCH   5  12
TORSDOF 5
ENDMDL
MODEL 6
REMARK VINA RESULT:      -6.5      2.108      6.683
REMARK  Name = 
REMARK  6 active torsions:
REMARK  status: ('A' for Active; 'I' for Inactive)
REMARK    1  A    between atoms: C_1  and  C_2
REMARK    2  A    between atoms: C_2  and  C_3
REMARK    3  A    between atoms: C_5  and  C_6
REMARK    4  A    between atoms: C_10  and  O_11
REMARK    5  A    between atoms: O_11  and  C_12
REMARK    6  A    between atoms: C_12  and  C_13
REMARK                            x       y       z     vdW  Elec       q    Type
REMARK                         _______ _______ _______ _____ _____    ______ ____
ROOT
ATOM      1  C   UNL     1       4.103   5.023  18.217  0.00  0.00    +0.000 A 
ATOM      2  C   UNL     1       5.213   4.613  18.963  0.00  0.00    +0.000 A 
ATOM      3  N   UNL     1       6.484   4.537  18.504  0.00  0.00    +0.000 NA
ATOM      4  C   UNL     1       6.684   4.914  17.223  0.00  0.00    +0.000 A 
ATOM      5  C   UNL     1       5.683   5.366  16.376  0.00  0.00    +0.000 A 
ATOM      6  C   UNL     1       4.389   5.431  16.897  0.00  0.00    +0.000 A 
ENDROOT
BRANCH   1   9
ATOM      7  C   UNL     1       2.013   3.598  19.018  0.00  0.00    +0.000 C 
ATOM      8  C   UNL     1       1.575   4.378  17.809  0.00  0.00    +0.000 C 
ATOM      9  C   UNL     1       2.666   4.928  18.703  0.00  0.00    +0.000 C 
BRANCH   7  11
ATOM     10  C   UNL     1       1.602   2.893  21.394  0.00  0.00    +0.000 C 
ATOM     11  C   UNL     1       0.998   3.440  20.114  0.00  0.00    +0.000 C 
ENDBRANCH   7  11
ENDBRANCH   1   9
BRANCH   5  12
ATOM     12  O   UNL     1       6.076   5.663  15.104  0.00  0.00    +0.000 OA
BRANCH  12  13
ATOM     13  C   UNL     1       7.098   4.846  14.527  0.00  0.00    +0.000 C 
BRANCH  13  14
ATOM     14  C   UNL     1       6.420   3.721  13.748  0.00  0.00    +0.000 C 
ATOM     15  C   UNL     1       6.740   3.607  12.239  0.00  0.00    +0.000 C 
ATOM     16  C   UNL     1       5.237   3.330  12.081  0.00  0.00    +0.000 C 
ATOM     17  N   UNL     1       5.018   4.054  13.353  0.00  0.00    +0.000 NA
ATOM     18  H   UNL     1       4.297   3.649  13.950  0.00  0.00    +0.000 HD
ENDBRANCH  13  14
ENDBRANCH  12  13
ENDBRANCH   5  12
TORSDOF 5
ENDMDL
MODEL 7
REMARK VINA RESULT:      -6.5      1.341      2.058
REMARK  Name = 
REMARK  6 active torsions:
REMARK  status: ('A' for Active; 'I' for Inactive)
REMARK    1  A    between atoms: C_1  and  C_2
REMARK    2  A    between atoms: C_2  and  C_3
REMARK    3  A    between atoms: C_5  and  C_6
REMARK    4  A    between atoms: C_10  and  O_11
REMARK    5  A    between atoms: O_11  and  C_12
REMARK    6  A    between atoms: C_12  and  C_13
REMARK                            x       y       z     vdW  Elec       q    Type
REMARK                         _______ _______ _______ _____ _____    ______ ____
ROOT
ATOM      1  C   UNL     1       5.674   4.441  16.065  0.00  0.00    +0.000 A 
ATOM      2  C   UNL     1       6.768   4.583  16.925  0.00  0.00    +0.000 A 
ATOM      3  N   UNL     1       6.722   4.507  18.275  0.00  0.00    +0.000 NA
ATOM      4  C   UNL     1       5.514   4.248  18.821  0.00  0.00    +0.000 A 
ATOM      5  C   UNL     1       4.351   4.058  18.091  0.00  0.00    +0.000 A 
ATOM      6  C   UNL     1       4.450   4.142  16.700  0.00  0.00    +0.000 A 
ENDROOT
BRANCH   1   9
ATOM      7  C   UNL     1       6.125   3.640  13.576  0.00  0.00    +0.000 C 
ATOM      8  C   UNL     1       7.045   4.801  13.837  0.00  0.00    +0.000 C 
ATOM      9  C   UNL     1       5.723   4.709  14.570  0.00  0.00    +0.000 C 
BRANCH   7  11
ATOM     10  C   UNL     1       5.659   2.172  11.591  0.00  0.00    +0.000 C 
ATOM     11  C   UNL     1       5.529   3.556  12.199  0.00  0.00    +0.000 C 
ENDBRANCH   7  11
ENDBRANCH   1   9
BRANCH   5  12
ATOM     12  O   UNL     1       3.220   3.846  18.825  0.00  0.00    +0.000 OA
BRANCH  12  13
ATOM     13  C   UNL     1       3.063   4.614  20.022  0.00  0.00    +0.000 C 
BRANCH  13  14
ATOM     14  C   UNL     1       2.121   5.776  19.716  0.00  0.00    +0.000 C 
ATOM     15  C   UNL     1       2.686   6.950  18.883  0.00  0.00    +0.000 C 
ATOM     16  C   UNL     1       1.921   7.842  19.873  0.00  0.00    +0.000 C 
ATOM     17  N   UNL     1       1.997   6.736  20.854  0.00  0.00    +0.000 NA
ATOM     18  H   UNL     1       1.161   6.619  21.424  0.00  0.00    +0.000 HD
ENDBRANCH  13  14
ENDBRANCH  12  13
ENDBRANCH   5  12
TORSDOF 5
ENDMDL
MODEL 8
REMARK VINA RESULT:      -6.5      1.802      2.158
REMARK  Name = 
REMARK  6 active torsions:
REMARK  status: ('A' for Active; 'I' for Inactive)
REMARK    1  A    between atoms: C_1  and  C_2
REMARK    2  A    between atoms: C_2  and  C_3
REMARK    3  A    between atoms: C_5  and  C_6
REMARK    4  A    between atoms: C_10  and  O_11
REMARK    5  A    between atoms: O_11  and  C_12
REMARK    6  A    between atoms: C_12  and  C_13
REMARK                            x       y       z     vdW  Elec       q    Type
REMARK                         _______ _______ _______ _____ _____    ______ ____
ROOT
ATOM      1  C   UNL     1       4.760   5.545  16.660  0.00  0.00    +0.000 A 
ATOM      2  C   UNL     1       4.454   6.796  17.204  0.00  0.00    +0.000 A 
ATOM      3  N   UNL     1       3.359   7.085  17.946  0.00  0.00    +0.000 NA
ATOM      4  C   UNL     1       2.514   6.061  18.193  0.00  0.00    +0.000 A 
ATOM      5  C   UNL     1       2.704   4.764  17.740  0.00  0.00    +0.000 A 
ATOM      6  C   UNL     1       3.851   4.515  16.982  0.00  0.00    +0.000 A 
ENDROOT
BRANCH   1   9
ATOM      7  C   UNL     1       5.914   4.092  14.763  0.00  0.00    +0.000 C 
ATOM      8  C   UNL     1       6.885   4.168  15.910  0.00  0.00    +0.000 C 
ATOM      9  C   UNL     1       5.898   5.294  15.685  0.00  0.00    +0.000 C 
BRANCH   7  11
ATOM     10  C   UNL     1       5.733   3.302  12.385  0.00  0.00    +0.000 C 
ATOM     11  C   UNL     1       6.506   4.145  13.382  0.00  0.00    +0.000 C 
ENDBRANCH   7  11
ENDBRANCH   1   9
BRANCH   5  12
ATOM     12  O   UNL     1       1.719   3.876  18.059  0.00  0.00    +0.000 OA
BRANCH  12  13
ATOM     13  C   UNL     1       2.118   2.536  18.359  0.00  0.00    +0.000 C 
BRANCH  13  14
ATOM     14  C   UNL     1       1.883   2.296  19.850  0.00  0.00    +0.000 C 
ATOM     15  C   UNL     1       1.055   3.351  20.618  0.00  0.00    +0.000 C 
ATOM     16  C   UNL     1       2.101   3.164  21.728  0.00  0.00    +0.000 C 
ATOM     17  N   UNL     1       3.050   2.700  20.691  0.00  0.00    +0.000 NA
ATOM     18  H   UNL     1       3.653   1.933  20.984  0.00  0.00    +0.000 HD
ENDBRANCH  13  14
ENDBRANCH  12  13
ENDBRANCH   5  12
TORSDOF 5
ENDMDL
MODEL 9
REMARK VINA RESULT:      -6.4      1.211      1.277
REMARK  Name = 
REMARK  6 active torsions:
REMARK  status: ('A' for Active; 'I' for Inactive)
REMARK    1  A    between atoms: C_1  and  C_2
REMARK    2  A    between atoms: C_2  and  C_3
REMARK    3  A    between atoms: C_5  and  C_6
REMARK    4  A    between atoms: C_10  and  O_11
REMARK    5  A    between atoms: O_11  and  C_12
REMARK    6  A    between atoms: C_12  and  C_13
REMARK                            x       y       z     vdW  Elec       q    Type
REMARK                         _______ _______ _______ _____ _____    ______ ____
ROOT
ATOM      1  C   UNL     1       5.959   5.006  16.398  0.00  0.00    +0.000 A 
ATOM      2  C   UNL     1       6.953   5.635  17.153  0.00  0.00    +0.000 A 
ATOM      3  N   UNL     1       6.979   5.722  18.503  0.00  0.00    +0.000 NA
ATOM      4  C   UNL     1       5.962   5.124  19.163  0.00  0.00    +0.000 A 
ATOM      5  C   UNL     1       4.924   4.443  18.546  0.00  0.00    +0.000 A 
ATOM      6  C   UNL     1       4.945   4.378  17.151  0.00  0.00    +0.000 A 
ENDROOT
BRANCH   1   9
ATOM      7  C   UNL     1       6.056   3.860  14.006  0.00  0.00    +0.000 C 
ATOM      8  C   UNL     1       7.097   4.946  14.015  0.00  0.00    +0.000 C 
ATOM      9  C   UNL     1       5.863   5.080  14.883  0.00  0.00    +0.000 C 
BRANCH   7  11
ATOM     10  C   UNL     1       5.911   2.585  11.847  0.00  0.00    +0.000 C 
ATOM     11  C   UNL     1       5.303   3.667  12.720  0.00  0.00    +0.000 C 
ENDBRANCH   7  11
ENDBRANCH   1   9
BRANCH   5  12
ATOM     12  O   UNL     1       3.969   3.941  19.381  0.00  0.00    +0.000 OA
BRANCH  12  13
ATOM     13  C   UNL     1       2.971   4.850  19.855  0.00  0.00    +0.000 C 
BRANCH  13  14
ATOM     14  C   UNL     1       1.601   4.245  19.555  0.00  0.00    +0.000 C 
ATOM     15  C   UNL     1       1.212   2.954  20.314  0.00  0.00    +0.000 C 
ATOM     16  C   UNL     1       0.651   2.491  18.960  0.00  0.00    +0.000 C 
ATOM     17  N   UNL     1       1.590   3.428  18.304  0.00  0.00    +0.000 NA
ATOM     18  H   UNL     1       1.210   3.903  17.486  0.00  0.00    +0.000 HD
ENDBRANCH  13  14
ENDBRANCH  12  13
ENDBRANCH   5  12
TORSDOF 5
ENDMDL
