MODEL 1
REMARK VINA RESULT:      -7.5      0.000      0.000
REMARK  Name = 
REMARK  5 active torsions:
REMARK  status: ('A' for Active; 'I' for Inactive)
REMARK    1  A    between atoms: N_5  and  C_6
REMARK    2  A    between atoms: C_6  and  C_7
REMARK    3  A    between atoms: N_9  and  N_10
REMARK    4  A    between atoms: C_11  and  C_12
REMARK    5  A    between atoms: C_13  and  C_14
REMARK                            x       y       z     vdW  Elec       q    Type
REMARK                         _______ _______ _______ _____ _____    ______ ____
ROOT
ATOM      1  C   UNL     1       6.466   4.763  16.614  0.00  0.00    +0.000 C 
ATOM      2  O   UNL     1       5.781   4.034  15.901  0.00  0.00    +0.000 OA
ATOM      3  N   UNL     1       7.123   5.857  16.084  0.00  0.00    +0.000 N 
ATOM      4  H   UNL     1       7.056   6.027  15.085  0.00  0.00    +0.000 HD
ENDROOT
BRANCH   3   5
ATOM      5  N   UNL     1       7.830   6.667  16.902  0.00  0.00    +0.000 NA
ATOM      6  C   UNL     1       7.315   7.796  17.248  0.00  0.00    +0.000 C 
BRANCH   6   7
ATOM      7  C   UNL     1       8.128   8.642  18.136  0.00  0.00    +0.000 C 
ATOM      8  C   UNL     1       8.587   9.848  17.787  0.00  0.00    +0.000 C 
BRANCH   8   9
ATOM      9  C   UNL     1       9.439  10.639  18.691  0.00  0.00    +0.000 A 
ATOM     10  C   UNL     1      10.546  11.311  18.159  0.00  0.00    +0.000 A 
ATOM     11  C   UNL     1      11.397  12.047  18.988  0.00  0.00    +0.000 A 
ATOM     12  C   UNL     1      11.149  12.126  20.356  0.00  0.00    +0.000 A 
ATOM     13  C   UNL     1      10.039  11.483  20.896  0.00  0.00    +0.000 A 
ATOM     14  C   UNL     1       9.184  10.753  20.067  0.00  0.00    +0.000 A 
ENDBRANCH   8   9
ENDBRANCH   6   7
ENDBRANCH   3   5
BRANCH   1  15
ATOM     15  C   UNL     1       6.599   4.563  18.108  0.00  0.00    +0.000 C 
BRANCH  15  20
ATOM     16  N   UNL     1       3.071   2.857  20.726  0.00  0.00    +0.000 N 
ATOM     17  C   UNL     1       3.848   3.632  19.969  0.00  0.00    +0.000 A 
ATOM     18  N   UNL     1       3.540   4.947  19.771  0.00  0.00    +0.000 NA
ATOM     19  N   UNL     1       4.503   5.452  19.012  0.00  0.00    +0.000 NA
ATOM     20  N   UNL     1       5.317   4.409  18.754  0.00  0.00    +0.000 N 
ATOM     21  N   UNL     1       4.963   3.246  19.352  0.00  0.00    +0.000 NA
ATOM     22  H   UNL     1       2.136   3.173  20.948  0.00  0.00    +0.000 HD
ATOM     23  H   UNL     1       3.192   1.856  20.666  0.00  0.00    +0.000 HD
ENDBRANCH  15  20
ENDBRANCH   1  15
TORSDOF 5
ENDMDL
MODEL 2
REMARK VINA RESULT:      -7.5      4.393      7.358
REMARK  Name = 
REMARK  5 active torsions:
REMARK  status: ('A' for Active; 'I' for Inactive)
REMARK    1  A    between atoms: N_5  and  C_6
REMARK    2  A    between atoms: C_6  and  C_7
REMARK    3  A    between atoms: N_9  and  N_10
REMARK    4  A    between atoms: C_11  and  C_12
REMARK    5  A    between atoms: C_13  and  C_14
REMARK                            x       y       z     vdW  Elec       q    Type
REMARK                         _______ _______ _______ _____ _____    ______ ____
ROOT
ATOM      1  C   UNL     1       6.950   5.241  14.830  0.00  0.00    +0.000 C 
ATOM      2  O   UNL     1       7.695   5.604  13.923  0.00  0.00    +0.000 OA
ATOM      3  N   UNL     1       5.610   5.581  14.824  0.00  0.00    +0.000 N 
ATOM      4  H   UNL     1       5.261   6.166  14.071  0.00  0.00    +0.000 HD
ENDROOT
BRANCH   3   5
ATOM      5  N   UNL     1       4.806   5.127  15.811  0.00  0.00    +0.000 NA
ATOM      6  C   UNL     1       4.427   5.952  16.725  0.00  0.00    +0.000 C 
BRANCH   6   7
ATOM      7  C   UNL     1       3.557   5.406  17.778  0.00  0.00    +0.000 C 
ATOM      8  C   UNL     1       3.835   4.289  18.458  0.00  0.00    +0.000 C 
BRANCH   8   9
ATOM      9  C   UNL     1       2.908   3.754  19.471  0.00  0.00    +0.000 A 
ATOM     10  C   UNL     1       1.532   3.801  19.219  0.00  0.00    +0.000 A 
ATOM     11  C   UNL     1       0.619   3.333  20.167  0.00  0.00    +0.000 A 
ATOM     12  C   UNL     1       1.070   2.804  21.374  0.00  0.00    +0.000 A 
ATOM     13  C   UNL     1       2.435   2.729  21.630  0.00  0.00    +0.000 A 
ATOM     14  C   UNL     1       3.349   3.191  20.680  0.00  0.00    +0.000 A 
ENDBRANCH   8   9
ENDBRANCH   6   7
ENDBRANCH   3   5
BRANCH   1  15
ATOM     15  C   UNL     1       7.411   4.364  15.973  0.00  0.00    +0.000 C 
BRANCH  15  20
ATOM     16  N   UNL     1       8.202   5.441  20.492  0.00  0.00    +0.000 N 
ATOM     17  C   UNL     1       7.961   5.502  19.183  0.00  0.00    +0.000 A 
ATOM     18  N   UNL     1       7.995   6.695  18.522  0.00  0.00    +0.000 NA
ATOM     19  N   UNL     1       7.749   6.429  17.246  0.00  0.00    +0.000 NA
ATOM     20  N   UNL     1       7.534   5.099  17.210  0.00  0.00    +0.000 N 
ATOM     21  N   UNL     1       7.679   4.464  18.397  0.00  0.00    +0.000 NA
ATOM     22  H   UNL     1       8.168   6.295  21.034  0.00  0.00    +0.000 HD
ATOM     23  H   UNL     1       7.946   4.597  20.987  0.00  0.00    +0.000 HD
ENDBRANCH  15  20
ENDBRANCH   1  15
TORSDOF 5
ENDMDL
MODEL 3
REMARK VINA RESULT:      -7.5      0.789      1.558
REMARK  Name = 
REMARK  5 active torsions:
REMARK  status: ('A' for Active; 'I' for Inactive)
REMARK    1  A    between atoms: N_5  and  C_6
REMARK    2  A    between atoms: C_6  and  C_7
REMARK    3  A    between atoms: N_9  and  N_10
REMARK    4  A    between atoms: C_11  and  C_12
REMARK    5  A    between atoms: C_13  and  C_14
REMARK                            x       y       z     vdW  Elec       q    Type
REMARK                         _______ _______ _______ _____ _____    ______ ____
ROOT
ATOM      1  C   UNL     1       5.823   5.341  17.078  0.00  0.00    +0.000 C 
ATOM      2  O   UNL     1       4.929   4.711  16.518  0.00  0.00    +0.000 OA
ATOM      3  N   UNL     1       6.668   6.164  16.357  0.00  0.00    +0.000 N 
ATOM      4  H   UNL     1       6.557   6.211  15.349  0.00  0.00    +0.000 HD
ENDROOT
BRANCH   3   5
ATOM      5  N   UNL     1       7.611   6.880  17.008  0.00  0.00    +0.000 NA
ATOM      6  C   UNL     1       7.322   8.077  17.388  0.00  0.00    +0.000 C 
BRANCH   6   7
ATOM      7  C   UNL     1       8.386   8.816  18.087  0.00  0.00    +0.000 C 
ATOM      8  C   UNL     1       8.465  10.150  18.106  0.00  0.00    +0.000 C 
BRANCH   8   9
ATOM      9  C   UNL     1       9.577  10.846  18.779  0.00  0.00    +0.000 A 
ATOM     10  C   UNL     1       9.482  11.096  20.153  0.00  0.00    +0.000 A 
ATOM     11  C   UNL     1      10.499  11.780  20.823  0.00  0.00    +0.000 A 
ATOM     12  C   UNL     1      11.626  12.216  20.130  0.00  0.00    +0.000 A 
ATOM     13  C   UNL     1      11.746  11.954  18.769  0.00  0.00    +0.000 A 
ATOM     14  C   UNL     1      10.732  11.264  18.100  0.00  0.00    +0.000 A 
ENDBRANCH   8   9
ENDBRANCH   6   7
ENDBRANCH   3   5
BRANCH   1  15
ATOM     15  C   UNL     1       6.033   5.316  18.576  0.00  0.00    +0.000 C 
BRANCH  15  20
ATOM     16  N   UNL     1       1.786   4.527  20.460  0.00  0.00    +0.000 N 
ATOM     17  C   UNL     1       3.034   4.396  20.010  0.00  0.00    +0.000 A 
ATOM     18  N   UNL     1       3.617   3.166  19.921  0.00  0.00    +0.000 NA
ATOM     19  N   UNL     1       4.829   3.357  19.418  0.00  0.00    +0.000 NA
ATOM     20  N   UNL     1       4.932   4.692  19.271  0.00  0.00    +0.000 N 
ATOM     21  N   UNL     1       3.822   5.391  19.606  0.00  0.00    +0.000 NA
ATOM     22  H   UNL     1       1.364   3.756  20.960  0.00  0.00    +0.000 HD
ATOM     23  H   UNL     1       1.469   5.449  20.728  0.00  0.00    +0.000 HD
ENDBRANCH  15  20
ENDBRANCH   1  15
TORSDOF 5
ENDMDL
MODEL 4
REMARK VINA RESULT:      -7.5      4.382      6.785
REMARK  Name = 
REMARK  5 active torsions:
REMARK  status: ('A' for Active; 'I' for Inactive)
REMARK    1  A    between atoms: N_5  and  C_6
REMARK    2  A    between atoms: C_6  and  C_7
REMARK    3  A    between atoms: N_9  and  N_10
REMARK    4  A    between atoms: C_11  and  C_12
REMARK    5  A    between atoms: C_13  and  C_14
REMARK                            x       y       z     vdW  Elec       q    Type
REMARK                         _______ _______ _______ _____ _____    ______ ____
ROOT
ATOM      1  C   UNL     1       7.449   4.748  17.885  0.00  0.00    +0.000 C 
ATOM      2  O   UNL     1       8.399   3.995  17.684  0.00  0.00    +0.000 OA
ATOM      3  N   UNL     1       6.708   4.656  19.047  0.00  0.00    +0.000 N 
ATOM      4  H   UNL     1       6.942   3.932  19.718  0.00  0.00    +0.000 HD
ENDROOT
BRANCH   3   5
ATOM      5  N   UNL     1       5.699   5.530  19.261  0.00  0.00    +0.000 NA
ATOM      6  C   UNL     1       4.487   5.116  19.123  0.00  0.00    +0.000 C 
BRANCH   6   7
ATOM      7  C   UNL     1       3.426   6.108  19.362  0.00  0.00    +0.000 C 
ATOM      8  C   UNL     1       3.136   7.096  18.510  0.00  0.00    +0.000 C 
BRANCH   8   9
ATOM      9  C   UNL     1       2.097   8.096  18.815  0.00  0.00    +0.000 A 
ATOM     10  C   UNL     1       1.641   8.214  20.133  0.00  0.00    +0.000 A 
ATOM     11  C   UNL     1       0.635   9.127  20.458  0.00  0.00    +0.000 A 
ATOM     12  C   UNL     1       0.079   9.939  19.472  0.00  0.00    +0.000 A 
ATOM     13  C   UNL     1       0.538   9.850  18.161  0.00  0.00    +0.000 A 
ATOM     14  C   UNL     1       1.549   8.941  17.837  0.00  0.00    +0.000 A 
ENDBRANCH   8   9
ENDBRANCH   6   7
ENDBRANCH   3   5
BRANCH   1  15
ATOM     15  C   UNL     1       7.056   5.849  16.926  0.00  0.00    +0.000 C 
BRANCH  15  20
ATOM     16  N   UNL     1       6.945   4.098  12.552  0.00  0.00    +0.000 N 
ATOM     17  C   UNL     1       6.620   4.510  13.777  0.00  0.00    +0.000 A 
ATOM     18  N   UNL     1       5.390   4.234  14.302  0.00  0.00    +0.000 NA
ATOM     19  N   UNL     1       5.380   4.739  15.528  0.00  0.00    +0.000 NA
ATOM     20  N   UNL     1       6.582   5.332  15.664  0.00  0.00    +0.000 N 
ATOM     21  N   UNL     1       7.410   5.196  14.601  0.00  0.00    +0.000 NA
ATOM     22  H   UNL     1       6.209   3.801  11.926  0.00  0.00    +0.000 HD
ATOM     23  H   UNL     1       7.757   4.508  12.111  0.00  0.00    +0.000 HD
ENDBRANCH  15  20
ENDBRANCH   1  15
TORSDOF 5
ENDMDL
MODEL 5
REMARK VINA RESULT:      -7.5      0.640      1.101
REMARK  Name = 
REMARK  5 active torsions:
REMARK  status: ('A' for Active; 'I' for Inactive)
REMARK    1  A    between atoms: N_5  and  C_6
REMARK    2  A    between atoms: C_6  and  C_7
REMARK    3  A    between atoms: N_9  and  N_10
REMARK    4  A    between atoms: C_11  and  C_12
REMARK    5  A    between atoms: C_13  and  C_14
REMARK                            x       y       z     vdW  Elec       q    Type
REMARK                         _______ _______ _______ _____ _____    ______ ____
ROOT
ATOM      1  C   UNL     1       6.640   5.019  16.878  0.00  0.00    +0.000 C 
ATOM      2  O   UNL     1       5.957   4.253  16.203  0.00  0.00    +0.000 OA
ATOM      3  N   UNL     1       7.254   6.115  16.300  0.00  0.00    +0.000 N 
ATOM      4  H   UNL     1       7.157   6.255  15.300  0.00  0.00    +0.000 HD
ENDROOT
BRANCH   3   5
ATOM      5  N   UNL     1       7.960   6.966  17.077  0.00  0.00    +0.000 NA
ATOM      6  C   UNL     1       7.443   8.110  17.366  0.00  0.00    +0.000 C 
BRANCH   6   7
ATOM      7  C   UNL     1       8.255   9.001  18.210  0.00  0.00    +0.000 C 
ATOM      8  C   UNL     1       8.804  10.136  17.768  0.00  0.00    +0.000 C 
BRANCH   8   9
ATOM      9  C   UNL     1       9.651  10.972  18.637  0.00  0.00    +0.000 A 
ATOM     10  C   UNL     1      10.581  11.834  18.045  0.00  0.00    +0.000 A 
ATOM     11  C   UNL     1      11.424  12.621  18.834  0.00  0.00    +0.000 A 
ATOM     12  C   UNL     1      11.343  12.561  20.224  0.00  0.00    +0.000 A 
ATOM     13  C   UNL     1      10.407  11.725  20.827  0.00  0.00    +0.000 A 
ATOM     14  C   UNL     1       9.559  10.944  20.038  0.00  0.00    +0.000 A 
ENDBRANCH   8   9
ENDBRANCH   6   7
ENDBRANCH   3   5
BRANCH   1  15
ATOM     15  C   UNL     1       6.817   4.865  18.372  0.00  0.00    +0.000 C 
BRANCH  15  20
ATOM     16  N   UNL     1       2.427   5.355  20.017  0.00  0.00    +0.000 N 
ATOM     17  C   UNL     1       3.622   4.874  19.673  0.00  0.00    +0.000 A 
ATOM     18  N   UNL     1       3.884   3.537  19.751  0.00  0.00    +0.000 NA
ATOM     19  N   UNL     1       5.126   3.368  19.319  0.00  0.00    +0.000 NA
ATOM     20  N   UNL     1       5.565   4.612  19.046  0.00  0.00    +0.000 N 
ATOM     21  N   UNL     1       4.650   5.594  19.229  0.00  0.00    +0.000 NA
ATOM     22  H   UNL     1       1.805   4.772  20.561  0.00  0.00    +0.000 HD
ATOM     23  H   UNL     1       2.339   6.351  20.168  0.00  0.00    +0.000 HD
ENDBRANCH  15  20
ENDBRANCH   1  15
TORSDOF 5
ENDMDL
MODEL 6
REMARK VINA RESULT:      -7.2      5.065      8.131
REMARK  Name = 
REMARK  5 active torsions:
REMARK  status: ('A' for Active; 'I' for Inactive)
REMARK    1  A    between atoms: N_5  and  C_6
REMARK    2  A    between atoms: C_6  and  C_7
REMARK    3  A    between atoms: N_9  and  N_10
REMARK    4  A    between atoms: C_11  and  C_12
REMARK    5  A    between atoms: C_13  and  C_14
REMARK                            x       y       z     vdW  Elec       q    Type
REMARK                         _______ _______ _______ _____ _____    ______ ____
ROOT
ATOM      1  C   UNL     1       7.104   4.963  14.443  0.00  0.00    +0.000 C 
ATOM      2  O   UNL     1       7.901   5.401  13.617  0.00  0.00    +0.000 OA
ATOM      3  N   UNL     1       7.463   4.832  15.771  0.00  0.00    +0.000 N 
ATOM      4  H   UNL     1       8.410   5.073  16.045  0.00  0.00    +0.000 HD
ENDROOT
BRANCH   3   5
ATOM      5  N   UNL     1       6.550   4.392  16.665  0.00  0.00    +0.000 NA
ATOM      6  C   UNL     1       6.375   5.065  17.750  0.00  0.00    +0.000 C 
BRANCH   6   7
ATOM      7  C   UNL     1       5.373   4.540  18.691  0.00  0.00    +0.000 C 
ATOM      8  C   UNL     1       4.075   4.420  18.394  0.00  0.00    +0.000 C 
BRANCH   8   9
ATOM      9  C   UNL     1       3.100   3.935  19.386  0.00  0.00    +0.000 A 
ATOM     10  C   UNL     1       3.521   3.013  20.351  0.00  0.00    +0.000 A 
ATOM     11  C   UNL     1       2.621   2.505  21.291  0.00  0.00    +0.000 A 
ATOM     12  C   UNL     1       1.290   2.917  21.281  0.00  0.00    +0.000 A 
ATOM     13  C   UNL     1       0.861   3.851  20.343  0.00  0.00    +0.000 A 
ATOM     14  C   UNL     1       1.763   4.364  19.407  0.00  0.00    +0.000 A 
ENDBRANCH   8   9
ENDBRANCH   6   7
ENDBRANCH   3   5
BRANCH   1  15
ATOM     15  C   UNL     1       5.679   4.594  14.097  0.00  0.00    +0.000 C 
BRANCH  15  20
ATOM     16  N   UNL     1       6.446   1.080  11.052  0.00  0.00    +0.000 N 
ATOM     17  C   UNL     1       5.949   2.141  11.686  0.00  0.00    +0.000 A 
ATOM     18  N   UNL     1       4.743   2.669  11.324  0.00  0.00    +0.000 NA
ATOM     19  N   UNL     1       4.510   3.681  12.148  0.00  0.00    +0.000 NA
ATOM     20  N   UNL     1       5.603   3.742  12.933  0.00  0.00    +0.000 N 
ATOM     21  N   UNL     1       6.528   2.781  12.701  0.00  0.00    +0.000 NA
ATOM     22  H   UNL     1       6.055   0.820  10.156  0.00  0.00    +0.000 HD
ATOM     23  H   UNL     1       7.424   0.859  11.184  0.00  0.00    +0.000 HD
ENDBRANCH  15  20
ENDBRANCH   1  15
TORSDOF 5
ENDMDL
MODEL 7
REMARK VINA RESULT:      -7.2      5.207      6.713
REMARK  Name = 
REMARK  5 active torsions:
REMARK  status: ('A' for Active; 'I' for Inactive)
REMARK    1  A    between atoms: N_5  and  C_6
REMARK    2  A    between atoms: C_6  and  C_7
REMARK    3  A    between atoms: N_9  and  N_10
REMARK    4  A    between atoms: C_11  and  C_12
REMARK    5  A    between atoms: C_13  and  C_14
REMARK                            x       y       z     vdW  Elec       q    Type
REMARK                         _______ _______ _______ _____ _____    ______ ____
ROOT
ATOM      1  C   UNL     1       1.972   5.842  19.578  0.00  0.00    +0.000 C 
ATOM      2  O   UNL     1       1.535   6.075  20.702  0.00  0.00    +0.000 OA
ATOM      3  N   UNL     1       2.819   6.735  18.949  0.00  0.00    +0.000 N 
ATOM      4  H   UNL     1       3.046   7.605  19.420  0.00  0.00    +0.000 HD
ENDROOT
BRANCH   3   5
ATOM      5  N   UNL     1       3.322   6.428  17.733  0.00  0.00    +0.000 NA
ATOM      6  C   UNL     1       4.601   6.384  17.588  0.00  0.00    +0.000 C 
BRANCH   6   7
ATOM      7  C   UNL     1       5.096   6.051  16.243  0.00  0.00    +0.000 C 
ATOM      8  C   UNL     1       5.476   4.821  15.881  0.00  0.00    +0.000 C 
BRANCH   8   9
ATOM      9  C   UNL     1       6.012   4.544  14.537  0.00  0.00    +0.000 A 
ATOM     10  C   UNL     1       7.216   5.146  14.154  0.00  0.00    +0.000 A 
ATOM     11  C   UNL     1       7.743   4.935  12.878  0.00  0.00    +0.000 A 
ATOM     12  C   UNL     1       7.077   4.113  11.971  0.00  0.00    +0.000 A 
ATOM     13  C   UNL     1       5.891   3.489  12.345  0.00  0.00    +0.000 A 
ATOM     14  C   UNL     1       5.367   3.695  13.624  0.00  0.00    +0.000 A 
ENDBRANCH   8   9
ENDBRANCH   6   7
ENDBRANCH   3   5
BRANCH   1  15
ATOM     15  C   UNL     1       1.675   4.562  18.829  0.00  0.00    +0.000 C 
BRANCH  15  20
ATOM     16  N   UNL     1       4.286   0.653  18.487  0.00  0.00    +0.000 N 
ATOM     17  C   UNL     1       3.790   1.838  18.847  0.00  0.00    +0.000 A 
ATOM     18  N   UNL     1       4.478   2.651  19.700  0.00  0.00    +0.000 NA
ATOM     19  N   UNL     1       3.754   3.753  19.839  0.00  0.00    +0.000 NA
ATOM     20  N   UNL     1       2.649   3.531  19.101  0.00  0.00    +0.000 N 
ATOM     21  N   UNL     1       2.632   2.351  18.437  0.00  0.00    +0.000 NA
ATOM     22  H   UNL     1       5.041   0.256  19.029  0.00  0.00    +0.000 HD
ATOM     23  H   UNL     1       3.663  -0.012  18.050  0.00  0.00    +0.000 HD
ENDBRANCH  15  20
ENDBRANCH   1  15
TORSDOF 5
ENDMDL
MODEL 8
REMARK VINA RESULT:      -7.2      5.457      6.767
REMARK  Name = 
REMARK  5 active torsions:
REMARK  status: ('A' for Active; 'I' for Inactive)
REMARK    1  A    between atoms: N_5  and  C_6
REMARK    2  A    between atoms: C_6  and  C_7
REMARK    3  A    between atoms: N_9  and  N_10
REMARK    4  A    between atoms: C_11  and  C_12
REMARK    5  A    between atoms: C_13  and  C_14
REMARK                            x       y       z     vdW  Elec       q    Type
REMARK                         _______ _______ _______ _____ _____    ______ ____
ROOT
ATOM      1  C   UNL     1       2.032   5.497  19.794  0.00  0.00    +0.000 C 
ATOM      2  O   UNL     1       1.711   5.803  20.939  0.00  0.00    +0.000 OA
ATOM      3  N   UNL     1       2.898   6.290  19.066  0.00  0.00    +0.000 N 
ATOM      4  H   UNL     1       3.238   7.150  19.484  0.00  0.00    +0.000 HD
ENDROOT
BRANCH   3   5
ATOM      5  N   UNL     1       3.270   5.902  17.826  0.00  0.00    +0.000 NA
ATOM      6  C   UNL     1       4.526   5.768  17.573  0.00  0.00    +0.000 C 
BRANCH   6   7
ATOM      7  C   UNL     1       4.877   5.349  16.207  0.00  0.00    +0.000 C 
ATOM      8  C   UNL     1       6.117   5.011  15.835  0.00  0.00    +0.000 C 
BRANCH   8   9
ATOM      9  C   UNL     1       6.430   4.645  14.443  0.00  0.00    +0.000 A 
ATOM     10  C   UNL     1       7.506   5.274  13.806  0.00  0.00    +0.000 A 
ATOM     11  C   UNL     1       7.818   4.978  12.477  0.00  0.00    +0.000 A 
ATOM     12  C   UNL     1       7.063   4.044  11.770  0.00  0.00    +0.000 A 
ATOM     13  C   UNL     1       6.005   3.393  12.397  0.00  0.00    +0.000 A 
ATOM     14  C   UNL     1       5.697   3.684  13.728  0.00  0.00    +0.000 A 
ENDBRANCH   8   9
ENDBRANCH   6   7
ENDBRANCH   3   5
BRANCH   1  15
ATOM     15  C   UNL     1       1.564   4.226  19.120  0.00  0.00    +0.000 C 
BRANCH  15  20
ATOM     16  N   UNL     1       5.202   1.404  20.124  0.00  0.00    +0.000 N 
ATOM     17  C   UNL     1       4.168   2.003  19.533  0.00  0.00    +0.000 A 
ATOM     18  N   UNL     1       3.617   1.482  18.398  0.00  0.00    +0.000 NA
ATOM     19  N   UNL     1       2.603   2.272  18.072  0.00  0.00    +0.000 NA
ATOM     20  N   UNL     1       2.621   3.251  18.998  0.00  0.00    +0.000 N 
ATOM     21  N   UNL     1       3.571   3.116  19.954  0.00  0.00    +0.000 NA
ATOM     22  H   UNL     1       5.728   0.713  19.605  0.00  0.00    +0.000 HD
ATOM     23  H   UNL     1       5.725   1.927  20.814  0.00  0.00    +0.000 HD
ENDBRANCH  15  20
ENDBRANCH   1  15
TORSDOF 5
ENDMDL
MODEL 9
REMARK VINA RESULT:      -7.2      5.009      8.118
REMARK  Name = 
REMARK  5 active torsions:
REMARK  status: ('A' for Active; 'I' for Inactive)
REMARK    1  A    between atoms: N_5  and  C_6
REMARK    2  A    between atoms: C_6  and  C_7
REMARK    3  A    between atoms: N_9  and  N_10
REMARK    4  A    between atoms: C_11  and  C_12
REMARK    5  A    between atoms: C_13  and  C_14
REMARK                            x       y       z     vdW  Elec       q    Type
REMARK                         _______ _______ _______ _____ _____    ______ ____
ROOT
ATOM      1  C   UNL     1       7.128   4.980  14.494  0.00  0.00    +0.000 C 
ATOM      2  O   UNL     1       7.901   5.417  13.645  0.00  0.00    +0.000 OA
ATOM      3  N   UNL     1       7.510   4.892  15.820  0.00  0.00    +0.000 N 
ATOM      4  H   UNL     1       8.454   5.164  16.073  0.00  0.00    +0.000 HD
ENDROOT
BRANCH   3   5
ATOM      5  N   UNL     1       6.621   4.452  16.738  0.00  0.00    +0.000 NA
ATOM      6  C   UNL     1       6.298   5.235  17.708  0.00  0.00    +0.000 C 
BRANCH   6   7
ATOM      7  C   UNL     1       5.331   4.706  18.683  0.00  0.00    +0.000 C 
ATOM      8  C   UNL     1       4.119   4.253  18.346  0.00  0.00    +0.000 C 
BRANCH   8   9
ATOM      9  C   UNL     1       3.164   3.778  19.363  0.00  0.00    +0.000 A 
ATOM     10  C   UNL     1       1.860   4.285  19.353  0.00  0.00    +0.000 A 
ATOM     11  C   UNL     1       0.933   3.884  20.319  0.00  0.00    +0.000 A 
ATOM     12  C   UNL     1       1.297   2.965  21.301  0.00  0.00    +0.000 A 
ATOM     13  C   UNL     1       2.583   2.434  21.310  0.00  0.00    +0.000 A 
ATOM     14  C   UNL     1       3.508   2.830  20.340  0.00  0.00    +0.000 A 
ENDBRANCH   8   9
ENDBRANCH   6   7
ENDBRANCH   3   5
BRANCH   1  15
ATOM     15  C   UNL     1       5.708   4.566  14.179  0.00  0.00    +0.000 C 
BRANCH  15  20
ATOM     16  N   UNL     1       6.441   1.103  11.068  0.00  0.00    +0.000 N 
ATOM     17  C   UNL     1       5.958   2.161  11.719  0.00  0.00    +0.000 A 
ATOM     18  N   UNL     1       4.770   2.723  11.352  0.00  0.00    +0.000 NA
ATOM     19  N   UNL     1       4.547   3.722  12.195  0.00  0.00    +0.000 NA
ATOM     20  N   UNL     1       5.630   3.741  12.996  0.00  0.00    +0.000 N 
ATOM     21  N   UNL     1       6.537   2.765  12.755  0.00  0.00    +0.000 NA
ATOM     22  H   UNL     1       6.057   0.871  10.161  0.00  0.00    +0.000 HD
ATOM     23  H   UNL     1       7.412   0.858  11.208  0.00  0.00    +0.000 HD
ENDBRANCH  15  20
ENDBRANCH   1  15
TORSDOF 5
ENDMDL
