MODEL 1
REMARK VINA RESULT:      -5.6      0.000      0.000
REMARK  Name = 
REMARK  4 active torsions:
REMARK  status: ('A' for Active; 'I' for Inactive)
REMARK    1  A    between atoms: C_1  and  N_2
REMARK    2  A    between atoms: C_8  and  S_9
REMARK    3  A    between atoms: N_10  and  C_11
REMARK    4  A    between atoms: N_12  and  C_13
REMARK                            x       y       z     vdW  Elec       q    Type
REMARK                         _______ _______ _______ _____ _____    ______ ____
ROOT
ATOM      1  C   UNL     1       1.615   5.278  20.677  0.00  0.00    +0.000 C 
ATOM      2  N   UNL     1       2.473   4.770  19.624  0.00  0.00    +0.000 N 
ATOM      3  C   UNL     1       3.110   5.686  18.781  0.00  0.00    +0.000 A 
ATOM      4  O   UNL     1       2.995   6.905  18.869  0.00  0.00    +0.000 OA
ATOM      5  C   UNL     1       3.920   5.058  17.790  0.00  0.00    +0.000 A 
ATOM      6  C   UNL     1       4.051   3.706  17.691  0.00  0.00    +0.000 A 
ATOM      7  N   UNL     1       4.874   3.344  16.672  0.00  0.00    +0.000 NA
ATOM      8  C   UNL     1       5.253   4.485  16.140  0.00  0.00    +0.000 A 
ATOM      9  N   UNL     1       4.702   5.568  16.781  0.00  0.00    +0.000 N 
ATOM     10  C   UNL     1       4.878   6.970  16.491  0.00  0.00    +0.000 C 
ATOM     11  N   UNL     1       3.404   2.847  18.545  0.00  0.00    +0.000 N 
ATOM     12  C   UNL     1       3.545   1.411  18.436  0.00  0.00    +0.000 C 
ATOM     13  C   UNL     1       2.587   3.369  19.547  0.00  0.00    +0.000 A 
ATOM     14  O   UNL     1       1.987   2.630  20.335  0.00  0.00    +0.000 OA
ENDROOT
BRANCH   8  15
ATOM     15  S   UNL     1       6.324   4.586  14.789  0.00  0.00    +0.000 S 
ATOM     16  H   UNL     1       5.661   5.568  14.160  0.00  0.00    +0.000 HD
ENDBRANCH   8  15
TORSDOF 1
ENDMDL
MODEL 2
REMARK VINA RESULT:      -5.4      1.300      1.492
REMARK  Name = 
REMARK  4 active torsions:
REMARK  status: ('A' for Active; 'I' for Inactive)
REMARK    1  A    between atoms: C_1  and  N_2
REMARK    2  A    between atoms: C_8  and  S_9
REMARK    3  A    between atoms: N_10  and  C_11
REMARK    4  A    between atoms: N_12  and  C_13
REMARK                            x       y       z     vdW  Elec       q    Type
REMARK                         _______ _______ _______ _____ _____    ______ ____
ROOT
ATOM      1  C   UNL     1       1.854   7.510  20.233  0.00  0.00    +0.000 C 
ATOM      2  N   UNL     1       2.609   6.501  19.515  0.00  0.00    +0.000 N 
ATOM      3  C   UNL     1       3.264   6.871  18.337  0.00  0.00    +0.000 A 
ATOM      4  O   UNL     1       3.250   8.001  17.860  0.00  0.00    +0.000 OA
ATOM      5  C   UNL     1       3.966   5.788  17.730  0.00  0.00    +0.000 A 
ATOM      6  C   UNL     1       3.986   4.532  18.257  0.00  0.00    +0.000 A 
ATOM      7  N   UNL     1       4.719   3.672  17.503  0.00  0.00    +0.000 NA
ATOM      8  C   UNL     1       5.154   4.406  16.503  0.00  0.00    +0.000 A 
ATOM      9  N   UNL     1       4.726   5.708  16.587  0.00  0.00    +0.000 N 
ATOM     10  C   UNL     1       4.993   6.802  15.686  0.00  0.00    +0.000 C 
ATOM     11  N   UNL     1       3.324   4.220  19.419  0.00  0.00    +0.000 N 
ATOM     12  C   UNL     1       3.347   2.884  19.975  0.00  0.00    +0.000 C 
ATOM     13  C   UNL     1       2.609   5.214  20.085  0.00  0.00    +0.000 A 
ATOM     14  O   UNL     1       1.999   4.973  21.133  0.00  0.00    +0.000 OA
ENDROOT
BRANCH   8  15
ATOM     15  S   UNL     1       6.150   3.780  15.238  0.00  0.00    +0.000 S 
ATOM     16  H   UNL     1       5.683   4.594  14.280  0.00  0.00    +0.000 HD
ENDBRANCH   8  15
TORSDOF 1
ENDMDL
MODEL 3
REMARK VINA RESULT:      -5.4      2.844      4.955
REMARK  Name = 
REMARK  4 active torsions:
REMARK  status: ('A' for Active; 'I' for Inactive)
REMARK    1  A    between atoms: C_1  and  N_2
REMARK    2  A    between atoms: C_8  and  S_9
REMARK    3  A    between atoms: N_10  and  C_11
REMARK    4  A    between atoms: N_12  and  C_13
REMARK                            x       y       z     vdW  Elec       q    Type
REMARK                         _______ _______ _______ _____ _____    ______ ____
ROOT
ATOM      1  C   UNL     1       4.925   6.609  16.186  0.00  0.00    +0.000 C 
ATOM      2  N   UNL     1       4.162   6.177  17.342  0.00  0.00    +0.000 N 
ATOM      3  C   UNL     1       4.228   4.833  17.721  0.00  0.00    +0.000 A 
ATOM      4  O   UNL     1       4.895   3.981  17.142  0.00  0.00    +0.000 OA
ATOM      5  C   UNL     1       3.433   4.540  18.868  0.00  0.00    +0.000 A 
ATOM      6  C   UNL     1       2.694   5.485  19.515  0.00  0.00    +0.000 A 
ATOM      7  N   UNL     1       2.022   4.969  20.577  0.00  0.00    +0.000 NA
ATOM      8  C   UNL     1       2.351   3.696  20.584  0.00  0.00    +0.000 A 
ATOM      9  N   UNL     1       3.212   3.375  19.562  0.00  0.00    +0.000 N 
ATOM     10  C   UNL     1       3.789   2.092  19.243  0.00  0.00    +0.000 C 
ATOM     11  N   UNL     1       2.663   6.794  19.102  0.00  0.00    +0.000 N 
ATOM     12  C   UNL     1       1.875   7.793  19.791  0.00  0.00    +0.000 C 
ATOM     13  C   UNL     1       3.408   7.176  17.987  0.00  0.00    +0.000 A 
ATOM     14  O   UNL     1       3.406   8.343  17.583  0.00  0.00    +0.000 OA
ENDROOT
BRANCH   8  15
ATOM     15  S   UNL     1       1.757   2.575  21.754  0.00  0.00    +0.000 S 
ATOM     16  H   UNL     1       2.197   3.248  22.827  0.00  0.00    +0.000 HD
ENDBRANCH   8  15
TORSDOF 1
ENDMDL
MODEL 4
REMARK VINA RESULT:      -5.4      2.850      4.597
REMARK  Name = 
REMARK  4 active torsions:
REMARK  status: ('A' for Active; 'I' for Inactive)
REMARK    1  A    between atoms: C_1  and  N_2
REMARK    2  A    between atoms: C_8  and  S_9
REMARK    3  A    between atoms: N_10  and  C_11
REMARK    4  A    between atoms: N_12  and  C_13
REMARK                            x       y       z     vdW  Elec       q    Type
REMARK                         _______ _______ _______ _____ _____    ______ ____
ROOT
ATOM      1  C   UNL     1       7.958   6.636  18.127  0.00  0.00    +0.000 C 
ATOM      2  N   UNL     1       6.852   5.776  17.750  0.00  0.00    +0.000 N 
ATOM      3  C   UNL     1       6.004   5.300  18.755  0.00  0.00    +0.000 A 
ATOM      4  O   UNL     1       6.127   5.561  19.948  0.00  0.00    +0.000 OA
ATOM      5  C   UNL     1       4.962   4.467  18.253  0.00  0.00    +0.000 A 
ATOM      6  C   UNL     1       4.821   4.177  16.929  0.00  0.00    +0.000 A 
ATOM      7  N   UNL     1       3.757   3.366  16.693  0.00  0.00    +0.000 NA
ATOM      8  C   UNL     1       3.239   3.155  17.883  0.00  0.00    +0.000 A 
ATOM      9  N   UNL     1       3.933   3.803  18.876  0.00  0.00    +0.000 N 
ATOM     10  C   UNL     1       3.673   3.812  20.295  0.00  0.00    +0.000 C 
ATOM     11  N   UNL     1       5.682   4.671  15.980  0.00  0.00    +0.000 N 
ATOM     12  C   UNL     1       5.530   4.359  14.575  0.00  0.00    +0.000 C 
ATOM     13  C   UNL     1       6.734   5.495  16.376  0.00  0.00    +0.000 A 
ATOM     14  O   UNL     1       7.531   5.959  15.553  0.00  0.00    +0.000 OA
ENDROOT
BRANCH   8  15
ATOM     15  S   UNL     1       1.843   2.172  18.142  0.00  0.00    +0.000 S 
ATOM     16  H   UNL     1       1.499   2.075  16.850  0.00  0.00    +0.000 HD
ENDBRANCH   8  15
TORSDOF 1
ENDMDL
MODEL 5
REMARK VINA RESULT:      -5.2      2.959      4.423
REMARK  Name = 
REMARK  4 active torsions:
REMARK  status: ('A' for Active; 'I' for Inactive)
REMARK    1  A    between atoms: C_1  and  N_2
REMARK    2  A    between atoms: C_8  and  S_9
REMARK    3  A    between atoms: N_10  and  C_11
REMARK    4  A    between atoms: N_12  and  C_13
REMARK                            x       y       z     vdW  Elec       q    Type
REMARK                         _______ _______ _______ _____ _____    ______ ____
ROOT
ATOM      1  C   UNL     1       4.473   3.046  19.537  0.00  0.00    +0.000 C 
ATOM      2  N   UNL     1       4.096   4.355  19.038  0.00  0.00    +0.000 N 
ATOM      3  C   UNL     1       3.178   5.111  19.772  0.00  0.00    +0.000 A 
ATOM      4  O   UNL     1       2.662   4.746  20.824  0.00  0.00    +0.000 OA
ATOM      5  C   UNL     1       2.893   6.373  19.172  0.00  0.00    +0.000 A 
ATOM      6  C   UNL     1       3.466   6.783  18.006  0.00  0.00    +0.000 A 
ATOM      7  N   UNL     1       3.040   8.018  17.633  0.00  0.00    +0.000 NA
ATOM      8  C   UNL     1       2.199   8.371  18.579  0.00  0.00    +0.000 A 
ATOM      9  N   UNL     1       2.068   7.405  19.547  0.00  0.00    +0.000 N 
ATOM     10  C   UNL     1       1.244   7.427  20.731  0.00  0.00    +0.000 C 
ATOM     11  N   UNL     1       4.364   6.001  17.322  0.00  0.00    +0.000 N 
ATOM     12  C   UNL     1       4.969   6.440  16.083  0.00  0.00    +0.000 C 
ATOM     13  C   UNL     1       4.704   4.748  17.830  0.00  0.00    +0.000 A 
ATOM     14  O   UNL     1       5.507   4.015  17.245  0.00  0.00    +0.000 OA
ENDROOT
BRANCH   8  15
ATOM     15  S   UNL     1       1.364   9.883  18.582  0.00  0.00    +0.000 S 
ATOM     16  H   UNL     1       2.125  10.459  19.524  0.00  0.00    +0.000 HD
ENDBRANCH   8  15
TORSDOF 1
ENDMDL
MODEL 6
REMARK VINA RESULT:      -5.2      2.000      2.095
REMARK  Name = 
REMARK  4 active torsions:
REMARK  status: ('A' for Active; 'I' for Inactive)
REMARK    1  A    between atoms: C_1  and  N_2
REMARK    2  A    between atoms: C_8  and  S_9
REMARK    3  A    between atoms: N_10  and  C_11
REMARK    4  A    between atoms: N_12  and  C_13
REMARK                            x       y       z     vdW  Elec       q    Type
REMARK                         _______ _______ _______ _____ _____    ______ ____
ROOT
ATOM      1  C   UNL     1       0.593   3.315  18.822  0.00  0.00    +0.000 C 
ATOM      2  N   UNL     1       2.018   3.556  18.940  0.00  0.00    +0.000 N 
ATOM      3  C   UNL     1       2.555   4.697  18.335  0.00  0.00    +0.000 A 
ATOM      4  O   UNL     1       1.900   5.522  17.705  0.00  0.00    +0.000 OA
ATOM      5  C   UNL     1       3.963   4.815  18.525  0.00  0.00    +0.000 A 
ATOM      6  C   UNL     1       4.693   3.902  19.226  0.00  0.00    +0.000 A 
ATOM      7  N   UNL     1       6.012   4.228  19.271  0.00  0.00    +0.000 NA
ATOM      8  C   UNL     1       6.093   5.350  18.591  0.00  0.00    +0.000 A 
ATOM      9  N   UNL     1       4.873   5.758  18.111  0.00  0.00    +0.000 N 
ATOM     10  C   UNL     1       4.562   6.928  17.327  0.00  0.00    +0.000 C 
ATOM     11  N   UNL     1       4.117   2.797  19.802  0.00  0.00    +0.000 N 
ATOM     12  C   UNL     1       4.896   1.830  20.545  0.00  0.00    +0.000 C 
ATOM     13  C   UNL     1       2.744   2.596  19.670  0.00  0.00    +0.000 A 
ATOM     14  O   UNL     1       2.188   1.613  20.172  0.00  0.00    +0.000 OA
ENDROOT
BRANCH   8  15
ATOM     15  S   UNL     1       7.578   6.197  18.344  0.00  0.00    +0.000 S 
ATOM     16  H   UNL     1       7.964   6.177  19.628  0.00  0.00    +0.000 HD
ENDBRANCH   8  15
TORSDOF 1
ENDMDL
MODEL 7
REMARK VINA RESULT:      -5.2      2.955      4.128
REMARK  Name = 
REMARK  4 active torsions:
REMARK  status: ('A' for Active; 'I' for Inactive)
REMARK    1  A    between atoms: C_1  and  N_2
REMARK    2  A    between atoms: C_8  and  S_9
REMARK    3  A    between atoms: N_10  and  C_11
REMARK    4  A    between atoms: N_12  and  C_13
REMARK                            x       y       z     vdW  Elec       q    Type
REMARK                         _______ _______ _______ _____ _____    ______ ____
ROOT
ATOM      1  C   UNL     1       4.901   3.635  16.919  0.00  0.00    +0.000 C 
ATOM      2  N   UNL     1       4.087   4.290  17.925  0.00  0.00    +0.000 N 
ATOM      3  C   UNL     1       3.766   5.640  17.749  0.00  0.00    +0.000 A 
ATOM      4  O   UNL     1       4.124   6.319  16.792  0.00  0.00    +0.000 OA
ATOM      5  C   UNL     1       2.966   6.162  18.807  0.00  0.00    +0.000 A 
ATOM      6  C   UNL     1       2.564   5.410  19.871  0.00  0.00    +0.000 A 
ATOM      7  N   UNL     1       1.812   6.125  20.748  0.00  0.00    +0.000 NA
ATOM      8  C   UNL     1       1.750   7.327  20.219  0.00  0.00    +0.000 A 
ATOM      9  N   UNL     1       2.437   7.410  19.032  0.00  0.00    +0.000 N 
ATOM     10  C   UNL     1       2.597   8.552  18.166  0.00  0.00    +0.000 C 
ATOM     11  N   UNL     1       2.908   4.086  19.997  0.00  0.00    +0.000 N 
ATOM     12  C   UNL     1       2.480   3.292  21.129  0.00  0.00    +0.000 C 
ATOM     13  C   UNL     1       3.690   3.487  19.011  0.00  0.00    +0.000 A 
ATOM     14  O   UNL     1       4.021   2.300  19.088  0.00  0.00    +0.000 OA
ENDROOT
BRANCH   8  15
ATOM     15  S   UNL     1       0.895   8.636  20.952  0.00  0.00    +0.000 S 
ATOM     16  H   UNL     1       1.802   9.578  20.653  0.00  0.00    +0.000 HD
ENDBRANCH   8  15
TORSDOF 1
ENDMDL
MODEL 8
REMARK VINA RESULT:      -5.1      2.749      5.065
REMARK  Name = 
REMARK  4 active torsions:
REMARK  status: ('A' for Active; 'I' for Inactive)
REMARK    1  A    between atoms: C_1  and  N_2
REMARK    2  A    between atoms: C_8  and  S_9
REMARK    3  A    between atoms: N_10  and  C_11
REMARK    4  A    between atoms: N_12  and  C_13
REMARK                            x       y       z     vdW  Elec       q    Type
REMARK                         _______ _______ _______ _____ _____    ______ ____
ROOT
ATOM      1  C   UNL     1       6.364   5.026  15.106  0.00  0.00    +0.000 C 
ATOM      2  N   UNL     1       5.324   5.054  16.116  0.00  0.00    +0.000 N 
ATOM      3  C   UNL     1       4.905   3.843  16.677  0.00  0.00    +0.000 A 
ATOM      4  O   UNL     1       5.360   2.745  16.375  0.00  0.00    +0.000 OA
ATOM      5  C   UNL     1       3.879   4.010  17.653  0.00  0.00    +0.000 A 
ATOM      6  C   UNL     1       3.372   5.229  17.992  0.00  0.00    +0.000 A 
ATOM      7  N   UNL     1       2.406   5.135  18.943  0.00  0.00    +0.000 NA
ATOM      8  C   UNL     1       2.318   3.846  19.191  0.00  0.00    +0.000 A 
ATOM      9  N   UNL     1       3.194   3.109  18.432  0.00  0.00    +0.000 N 
ATOM     10  C   UNL     1       3.389   1.679  18.421  0.00  0.00    +0.000 C 
ATOM     11  N   UNL     1       3.819   6.390  17.411  0.00  0.00    +0.000 N 
ATOM     12  C   UNL     1       3.277   7.682  17.773  0.00  0.00    +0.000 C 
ATOM     13  C   UNL     1       4.820   6.327  16.444  0.00  0.00    +0.000 A 
ATOM     14  O   UNL     1       5.248   7.349  15.896  0.00  0.00    +0.000 OA
ENDROOT
BRANCH   8  15
ATOM     15  S   UNL     1       1.218   3.182  20.344  0.00  0.00    +0.000 S 
ATOM     16  H   UNL     1       2.104   3.095  21.347  0.00  0.00    +0.000 HD
ENDBRANCH   8  15
TORSDOF 1
ENDMDL
MODEL 9
REMARK VINA RESULT:      -5.1      1.061      1.061
REMARK  Name = 
REMARK  4 active torsions:
REMARK  status: ('A' for Active; 'I' for Inactive)
REMARK    1  A    between atoms: C_1  and  N_2
REMARK    2  A    between atoms: C_8  and  S_9
REMARK    3  A    between atoms: N_10  and  C_11
REMARK    4  A    between atoms: N_12  and  C_13
REMARK                            x       y       z     vdW  Elec       q    Type
REMARK                         _______ _______ _______ _____ _____    ______ ____
ROOT
ATOM      1  C   UNL     1       1.445   5.877  20.795  0.00  0.00    +0.000 C 
ATOM      2  N   UNL     1       2.526   5.305  20.016  0.00  0.00    +0.000 N 
ATOM      3  C   UNL     1       3.029   6.036  18.935  0.00  0.00    +0.000 A 
ATOM      4  O   UNL     1       2.620   7.141  18.594  0.00  0.00    +0.000 OA
ATOM      5  C   UNL     1       4.085   5.362  18.254  0.00  0.00    +0.000 A 
ATOM      6  C   UNL     1       4.544   4.135  18.631  0.00  0.00    +0.000 A 
ATOM      7  N   UNL     1       5.552   3.698  17.832  0.00  0.00    +0.000 NA
ATOM      8  C   UNL     1       5.715   4.665  16.955  0.00  0.00    +0.000 A 
ATOM      9  N   UNL     1       4.846   5.708  17.163  0.00  0.00    +0.000 N 
ATOM     10  C   UNL     1       4.721   6.936  16.415  0.00  0.00    +0.000 C 
ATOM     11  N   UNL     1       4.015   3.458  19.702  0.00  0.00    +0.000 N 
ATOM     12  C   UNL     1       4.504   2.155  20.098  0.00  0.00    +0.000 C 
ATOM     13  C   UNL     1       2.977   4.037  20.430  0.00  0.00    +0.000 A 
ATOM     14  O   UNL     1       2.473   3.460  21.399  0.00  0.00    +0.000 OA
ENDROOT
BRANCH   8  15
ATOM     15  S   UNL     1       6.894   4.606  15.695  0.00  0.00    +0.000 S 
ATOM     16  H   UNL     1       7.147   3.293  15.803  0.00  0.00    +0.000 HD
ENDBRANCH   8  15
TORSDOF 1
ENDMDL
