MODEL 1
REMARK VINA RESULT:      -7.3      0.000      0.000
REMARK  Name = 
REMARK  9 active torsions:
REMARK  status: ('A' for Active; 'I' for Inactive)
REMARK    1  A    between atoms: C_1  and  O_2
REMARK    2  A    between atoms: O_2  and  C_3
REMARK    3  A    between atoms: C_3  and  C_4
REMARK    4  A    between atoms: C_4  and  N_5
REMARK    5  A    between atoms: C_11  and  C_12
REMARK    6  A    between atoms: C_16  and  O_17
REMARK    7  A    between atoms: O_17  and  C_18
REMARK    8  A    between atoms: C_21  and  N_22
REMARK    9  A    between atoms: N_23  and  C_24
REMARK                            x       y       z     vdW  Elec       q    Type
REMARK                         _______ _______ _______ _____ _____    ______ ____
ROOT
ATOM      1  N   UNL     1      -0.324  10.580  18.859  0.00  0.00    +0.000 NA
ATOM      2  C   UNL     1       0.522   9.917  17.839  0.00  0.00    +0.000 C 
ATOM      3  C   UNL     1       1.881   9.373  18.335  0.00  0.00    +0.000 C 
ATOM      4  N   UNL     1       1.693   8.560  19.532  0.00  0.00    +0.000 N 
ATOM      5  C   UNL     1       2.285   7.320  19.625  0.00  0.00    +0.000 A 
ATOM      6  N   UNL     1       3.283   7.062  18.726  0.00  0.00    +0.000 NA
ATOM      7  C   UNL     1       3.907   5.848  18.668  0.00  0.00    +0.000 A 
ATOM      8  C   UNL     1       3.439   4.941  19.618  0.00  0.00    +0.000 A 
ATOM      9  C   UNL     1       3.833   3.652  19.913  0.00  0.00    +0.000 A 
ATOM     10  N   UNL     1       2.922   3.233  20.863  0.00  0.00    +0.000 N 
ATOM     11  C   UNL     1       2.766   1.909  21.418  0.00  0.00    +0.000 C 
ATOM     12  N   UNL     1       2.088   4.205  21.293  0.00  0.00    +0.000 NA
ATOM     13  C   UNL     1       2.399   5.252  20.526  0.00  0.00    +0.000 A 
ATOM     14  N   UNL     1       1.807   6.464  20.561  0.00  0.00    +0.000 NA
ATOM     15  C   UNL     1       0.847   9.096  20.594  0.00  0.00    +0.000 C 
ATOM     16  C   UNL     1      -0.472   9.653  20.007  0.00  0.00    +0.000 C 
ENDROOT
BRANCH   7  17
ATOM     17  C   UNL     1       4.895   5.629  17.617  0.00  0.00    +0.000 A 
ATOM     18  C   UNL     1       6.220   6.065  17.766  0.00  0.00    +0.000 A 
ATOM     19  C   UNL     1       7.171   5.827  16.770  0.00  0.00    +0.000 A 
ATOM     20  C   UNL     1       6.811   5.132  15.616  0.00  0.00    +0.000 A 
ATOM     21  C   UNL     1       5.498   4.706  15.432  0.00  0.00    +0.000 A 
ATOM     22  C   UNL     1       4.545   5.005  16.406  0.00  0.00    +0.000 A 
BRANCH  21  23
ATOM     23  O   UNL     1       5.258   4.004  14.283  0.00  0.00    +0.000 OA
ATOM     24  C   UNL     1       6.353   3.862  13.383  0.00  0.00    +0.000 C 
ENDBRANCH  21  23
ENDBRANCH   7  17
BRANCH   9  25
ATOM     25  N   UNL     1       4.839   2.865  19.457  0.00  0.00    +0.000 N 
ATOM     26  H   UNL     1       5.044   2.847  18.457  0.00  0.00    +0.000 HD
ATOM     27  H   UNL     1       5.670   2.653  20.005  0.00  0.00    +0.000 HD
ENDBRANCH   9  25
BRANCH   1  28
ATOM     28  C   UNL     1       0.181  11.901  19.274  0.00  0.00    +0.000 C 
BRANCH  28  29
ATOM     29  C   UNL     1      -0.682  12.525  20.386  0.00  0.00    +0.000 C 
BRANCH  29  31
ATOM     30  C   UNL     1      -3.012  12.657  20.255  0.00  0.00    +0.000 C 
ATOM     31  O   UNL     1      -1.784  13.255  19.843  0.00  0.00    +0.000 OA
ENDBRANCH  29  31
ENDBRANCH  28  29
ENDBRANCH   1  28
TORSDOF 6
ENDMDL
MODEL 2
REMARK VINA RESULT:      -7.3      1.339      2.063
REMARK  Name = 
REMARK  9 active torsions:
REMARK  status: ('A' for Active; 'I' for Inactive)
REMARK    1  A    between atoms: C_1  and  O_2
REMARK    2  A    between atoms: O_2  and  C_3
REMARK    3  A    between atoms: C_3  and  C_4
REMARK    4  A    between atoms: C_4  and  N_5
REMARK    5  A    between atoms: C_11  and  C_12
REMARK    6  A    between atoms: C_16  and  O_17
REMARK    7  A    between atoms: O_17  and  C_18
REMARK    8  A    between atoms: C_21  and  N_22
REMARK    9  A    between atoms: N_23  and  C_24
REMARK                            x       y       z     vdW  Elec       q    Type
REMARK                         _______ _______ _______ _____ _____    ______ ____
ROOT
ATOM      1  N   UNL     1      -0.488  10.660  19.258  0.00  0.00    +0.000 NA
ATOM      2  C   UNL     1       0.325  10.008  18.204  0.00  0.00    +0.000 C 
ATOM      3  C   UNL     1       1.675   9.410  18.661  0.00  0.00    +0.000 C 
ATOM      4  N   UNL     1       1.480   8.562  19.834  0.00  0.00    +0.000 N 
ATOM      5  C   UNL     1       2.038   7.305  19.876  0.00  0.00    +0.000 A 
ATOM      6  N   UNL     1       3.016   7.049  18.955  0.00  0.00    +0.000 NA
ATOM      7  C   UNL     1       3.604   5.820  18.847  0.00  0.00    +0.000 A 
ATOM      8  C   UNL     1       3.124   4.895  19.773  0.00  0.00    +0.000 A 
ATOM      9  C   UNL     1       3.485   3.587  20.019  0.00  0.00    +0.000 A 
ATOM     10  N   UNL     1       2.576   3.162  20.968  0.00  0.00    +0.000 N 
ATOM     11  C   UNL     1       2.391   1.825  21.481  0.00  0.00    +0.000 C 
ATOM     12  N   UNL     1       1.776   4.142  21.443  0.00  0.00    +0.000 NA
ATOM     13  C   UNL     1       2.106   5.205  20.706  0.00  0.00    +0.000 A 
ATOM     14  N   UNL     1       1.550   6.431  20.791  0.00  0.00    +0.000 NA
ATOM     15  C   UNL     1       0.665   9.086  20.925  0.00  0.00    +0.000 C 
ATOM     16  C   UNL     1      -0.646   9.700  20.377  0.00  0.00    +0.000 C 
ENDROOT
BRANCH   7  17
ATOM     17  C   UNL     1       4.571   5.609  17.774  0.00  0.00    +0.000 A 
ATOM     18  C   UNL     1       4.319   4.692  16.742  0.00  0.00    +0.000 A 
ATOM     19  C   UNL     1       5.233   4.514  15.701  0.00  0.00    +0.000 A 
ATOM     20  C   UNL     1       6.407   5.267  15.668  0.00  0.00    +0.000 A 
ATOM     21  C   UNL     1       6.691   6.170  16.690  0.00  0.00    +0.000 A 
ATOM     22  C   UNL     1       5.800   6.292  17.756  0.00  0.00    +0.000 A 
BRANCH  21  23
ATOM     23  O   UNL     1       7.850   6.882  16.545  0.00  0.00    +0.000 OA
ATOM     24  C   UNL     1       8.023   8.001  17.409  0.00  0.00    +0.000 C 
ENDBRANCH  21  23
ENDBRANCH   7  17
BRANCH   9  25
ATOM     25  N   UNL     1       4.462   2.788  19.522  0.00  0.00    +0.000 N 
ATOM     26  H   UNL     1       4.935   3.057  18.659  0.00  0.00    +0.000 HD
ATOM     27  H   UNL     1       5.069   2.221  20.111  0.00  0.00    +0.000 HD
ENDBRANCH   9  25
BRANCH   1  28
ATOM     28  C   UNL     1       0.061  11.952  19.709  0.00  0.00    +0.000 C 
BRANCH  28  29
ATOM     29  C   UNL     1      -0.254  13.088  18.720  0.00  0.00    +0.000 C 
BRANCH  29  31
ATOM     30  C   UNL     1       2.076  13.217  18.863  0.00  0.00    +0.000 C 
ATOM     31  O   UNL     1       0.889  13.917  18.496  0.00  0.00    +0.000 OA
ENDBRANCH  29  31
ENDBRANCH  28  29
ENDBRANCH   1  28
TORSDOF 6
ENDMDL
MODEL 3
REMARK VINA RESULT:      -7.3      0.988      1.321
REMARK  Name = 
REMARK  9 active torsions:
REMARK  status: ('A' for Active; 'I' for Inactive)
REMARK    1  A    between atoms: C_1  and  O_2
REMARK    2  A    between atoms: O_2  and  C_3
REMARK    3  A    between atoms: C_3  and  C_4
REMARK    4  A    between atoms: C_4  and  N_5
REMARK    5  A    between atoms: C_11  and  C_12
REMARK    6  A    between atoms: C_16  and  O_17
REMARK    7  A    between atoms: O_17  and  C_18
REMARK    8  A    between atoms: C_21  and  N_22
REMARK    9  A    between atoms: N_23  and  C_24
REMARK                            x       y       z     vdW  Elec       q    Type
REMARK                         _______ _______ _______ _____ _____    ______ ____
ROOT
ATOM      1  N   UNL     1      -0.356  10.622  19.155  0.00  0.00    +0.000 NA
ATOM      2  C   UNL     1       0.498  10.002  18.113  0.00  0.00    +0.000 C 
ATOM      3  C   UNL     1       1.848   9.426  18.596  0.00  0.00    +0.000 C 
ATOM      4  N   UNL     1       1.643   8.559  19.752  0.00  0.00    +0.000 N 
ATOM      5  C   UNL     1       2.226   7.313  19.792  0.00  0.00    +0.000 A 
ATOM      6  N   UNL     1       3.232   7.091  18.892  0.00  0.00    +0.000 NA
ATOM      7  C   UNL     1       3.849   5.877  18.783  0.00  0.00    +0.000 A 
ATOM      8  C   UNL     1       3.366   4.929  19.684  0.00  0.00    +0.000 A 
ATOM      9  C   UNL     1       3.749   3.625  19.923  0.00  0.00    +0.000 A 
ATOM     10  N   UNL     1       2.826   3.168  20.842  0.00  0.00    +0.000 N 
ATOM     11  C   UNL     1       2.657   1.820  21.333  0.00  0.00    +0.000 C 
ATOM     12  N   UNL     1       1.993   4.124  21.310  0.00  0.00    +0.000 NA
ATOM     13  C   UNL     1       2.319   5.204  20.596  0.00  0.00    +0.000 A 
ATOM     14  N   UNL     1       1.734   6.416  20.682  0.00  0.00    +0.000 NA
ATOM     15  C   UNL     1       0.789   9.050  20.829  0.00  0.00    +0.000 C 
ATOM     16  C   UNL     1      -0.521   9.643  20.256  0.00  0.00    +0.000 C 
ENDROOT
BRANCH   7  17
ATOM     17  C   UNL     1       4.847   5.701  17.733  0.00  0.00    +0.000 A 
ATOM     18  C   UNL     1       6.152   6.194  17.883  0.00  0.00    +0.000 A 
ATOM     19  C   UNL     1       7.113   5.998  16.888  0.00  0.00    +0.000 A 
ATOM     20  C   UNL     1       6.784   5.288  15.733  0.00  0.00    +0.000 A 
ATOM     21  C   UNL     1       5.491   4.806  15.549  0.00  0.00    +0.000 A 
ATOM     22  C   UNL     1       4.525   5.063  16.521  0.00  0.00    +0.000 A 
BRANCH  21  23
ATOM     23  O   UNL     1       5.283   4.095  14.398  0.00  0.00    +0.000 OA
ATOM     24  C   UNL     1       6.399   3.958  13.523  0.00  0.00    +0.000 C 
ENDBRANCH  21  23
ENDBRANCH   7  17
BRANCH   9  25
ATOM     25  N   UNL     1       4.755   2.854  19.440  0.00  0.00    +0.000 N 
ATOM     26  H   UNL     1       5.636   2.805  19.954  0.00  0.00    +0.000 HD
ATOM     27  H   UNL     1       4.595   2.003  18.907  0.00  0.00    +0.000 HD
ENDBRANCH   9  25
BRANCH   1  28
ATOM     28  C   UNL     1       0.153  11.919  19.637  0.00  0.00    +0.000 C 
BRANCH  28  29
ATOM     29  C   UNL     1       0.381  12.913  18.484  0.00  0.00    +0.000 C 
BRANCH  29  31
ATOM     30  C   UNL     1       1.816  14.752  18.643  0.00  0.00    +0.000 C 
ATOM     31  O   UNL     1       1.742  13.344  18.427  0.00  0.00    +0.000 OA
ENDBRANCH  29  31
ENDBRANCH  28  29
ENDBRANCH   1  28
TORSDOF 6
ENDMDL
MODEL 4
REMARK VINA RESULT:      -7.3      1.242      1.872
REMARK  Name = 
REMARK  9 active torsions:
REMARK  status: ('A' for Active; 'I' for Inactive)
REMARK    1  A    between atoms: C_1  and  O_2
REMARK    2  A    between atoms: O_2  and  C_3
REMARK    3  A    between atoms: C_3  and  C_4
REMARK    4  A    between atoms: C_4  and  N_5
REMARK    5  A    between atoms: C_11  and  C_12
REMARK    6  A    between atoms: C_16  and  O_17
REMARK    7  A    between atoms: O_17  and  C_18
REMARK    8  A    between atoms: C_21  and  N_22
REMARK    9  A    between atoms: N_23  and  C_24
REMARK                            x       y       z     vdW  Elec       q    Type
REMARK                         _______ _______ _______ _____ _____    ______ ____
ROOT
ATOM      1  N   UNL     1      -0.440  10.640  19.214  0.00  0.00    +0.000 NA
ATOM      2  C   UNL     1       0.376   9.980  18.167  0.00  0.00    +0.000 C 
ATOM      3  C   UNL     1       1.720   9.376  18.634  0.00  0.00    +0.000 C 
ATOM      4  N   UNL     1       1.513   8.534  19.809  0.00  0.00    +0.000 N 
ATOM      5  C   UNL     1       2.064   7.273  19.858  0.00  0.00    +0.000 A 
ATOM      6  N   UNL     1       3.046   7.009  18.944  0.00  0.00    +0.000 NA
ATOM      7  C   UNL     1       3.628   5.777  18.844  0.00  0.00    +0.000 A 
ATOM      8  C   UNL     1       3.137   4.858  19.770  0.00  0.00    +0.000 A 
ATOM      9  C   UNL     1       3.490   3.548  20.023  0.00  0.00    +0.000 A 
ATOM     10  N   UNL     1       2.572   3.131  20.968  0.00  0.00    +0.000 N 
ATOM     11  C   UNL     1       2.376   1.797  21.484  0.00  0.00    +0.000 C 
ATOM     12  N   UNL     1       1.774   4.117  21.434  0.00  0.00    +0.000 NA
ATOM     13  C   UNL     1       2.115   5.176  20.696  0.00  0.00    +0.000 A 
ATOM     14  N   UNL     1       1.565   6.405  20.773  0.00  0.00    +0.000 NA
ATOM     15  C   UNL     1       0.694   9.066  20.893  0.00  0.00    +0.000 C 
ATOM     16  C   UNL     1      -0.610   9.685  20.335  0.00  0.00    +0.000 C 
ENDROOT
BRANCH   7  17
ATOM     17  C   UNL     1       4.600   5.557  17.778  0.00  0.00    +0.000 A 
ATOM     18  C   UNL     1       4.374   4.599  16.778  0.00  0.00    +0.000 A 
ATOM     19  C   UNL     1       5.293   4.413  15.742  0.00  0.00    +0.000 A 
ATOM     20  C   UNL     1       6.445   5.196  15.683  0.00  0.00    +0.000 A 
ATOM     21  C   UNL     1       6.705   6.140  16.675  0.00  0.00    +0.000 A 
ATOM     22  C   UNL     1       5.810   6.272  17.737  0.00  0.00    +0.000 A 
BRANCH  21  23
ATOM     23  O   UNL     1       7.844   6.878  16.505  0.00  0.00    +0.000 OA
ATOM     24  C   UNL     1       8.011   7.999  17.368  0.00  0.00    +0.000 C 
ENDBRANCH  21  23
ENDBRANCH   7  17
BRANCH   9  25
ATOM     25  N   UNL     1       4.465   2.742  19.535  0.00  0.00    +0.000 N 
ATOM     26  H   UNL     1       5.188   3.141  18.935  0.00  0.00    +0.000 HD
ATOM     27  H   UNL     1       4.813   1.927  20.035  0.00  0.00    +0.000 HD
ENDBRANCH   9  25
BRANCH   1  28
ATOM     28  C   UNL     1       0.113  11.931  19.665  0.00  0.00    +0.000 C 
BRANCH  28  29
ATOM     29  C   UNL     1      -0.759  12.584  20.752  0.00  0.00    +0.000 C 
BRANCH  29  31
ATOM     30  C   UNL     1      -0.904  13.267  22.983  0.00  0.00    +0.000 C 
ATOM     31  O   UNL     1      -0.058  12.686  21.993  0.00  0.00    +0.000 OA
ENDBRANCH  29  31
ENDBRANCH  28  29
ENDBRANCH   1  28
TORSDOF 6
ENDMDL
MODEL 5
REMARK VINA RESULT:      -6.6      2.209      4.524
REMARK  Name = 
REMARK  9 active torsions:
REMARK  status: ('A' for Active; 'I' for Inactive)
REMARK    1  A    between atoms: C_1  and  O_2
REMARK    2  A    between atoms: O_2  and  C_3
REMARK    3  A    between atoms: C_3  and  C_4
REMARK    4  A    between atoms: C_4  and  N_5
REMARK    5  A    between atoms: C_11  and  C_12
REMARK    6  A    between atoms: C_16  and  O_17
REMARK    7  A    between atoms: O_17  and  C_18
REMARK    8  A    between atoms: C_21  and  N_22
REMARK    9  A    between atoms: N_23  and  C_24
REMARK                            x       y       z     vdW  Elec       q    Type
REMARK                         _______ _______ _______ _____ _____    ______ ____
ROOT
ATOM      1  N   UNL     1       1.039  11.666  20.051  0.00  0.00    +0.000 NA
ATOM      2  C   UNL     1       1.188  10.413  20.829  0.00  0.00    +0.000 C 
ATOM      3  C   UNL     1       0.884   9.102  20.070  0.00  0.00    +0.000 C 
ATOM      4  N   UNL     1       1.609   9.073  18.803  0.00  0.00    +0.000 N 
ATOM      5  C   UNL     1       2.325   7.954  18.443  0.00  0.00    +0.000 A 
ATOM      6  N   UNL     1       2.046   6.812  19.141  0.00  0.00    +0.000 NA
ATOM      7  C   UNL     1       2.730   5.648  18.928  0.00  0.00    +0.000 A 
ATOM      8  C   UNL     1       3.697   5.753  17.930  0.00  0.00    +0.000 A 
ATOM      9  C   UNL     1       4.551   4.811  17.392  0.00  0.00    +0.000 A 
ATOM     10  N   UNL     1       5.349   5.538  16.529  0.00  0.00    +0.000 N 
ATOM     11  C   UNL     1       6.517   5.086  15.811  0.00  0.00    +0.000 C 
ATOM     12  N   UNL     1       4.964   6.823  16.373  0.00  0.00    +0.000 NA
ATOM     13  C   UNL     1       3.954   6.959  17.236  0.00  0.00    +0.000 A 
ATOM     14  N   UNL     1       3.256   8.090  17.466  0.00  0.00    +0.000 NA
ATOM     15  C   UNL     1       1.565  10.268  17.965  0.00  0.00    +0.000 C 
ATOM     16  C   UNL     1       1.840  11.534  18.810  0.00  0.00    +0.000 C 
ENDROOT
BRANCH   7  17
ATOM     17  C   UNL     1       2.431   4.504  19.783  0.00  0.00    +0.000 A 
ATOM     18  C   UNL     1       1.107   4.131  20.057  0.00  0.00    +0.000 A 
ATOM     19  C   UNL     1       0.824   3.017  20.852  0.00  0.00    +0.000 A 
ATOM     20  C   UNL     1       1.866   2.249  21.371  0.00  0.00    +0.000 A 
ATOM     21  C   UNL     1       3.190   2.610  21.132  0.00  0.00    +0.000 A 
ATOM     22  C   UNL     1       3.458   3.759  20.389  0.00  0.00    +0.000 A 
BRANCH  21  23
ATOM     23  O   UNL     1       4.136   1.771  21.657  0.00  0.00    +0.000 OA
ATOM     24  C   UNL     1       5.207   1.399  20.795  0.00  0.00    +0.000 C 
ENDBRANCH  21  23
ENDBRANCH   7  17
BRANCH   9  25
ATOM     25  N   UNL     1       4.690   3.475  17.577  0.00  0.00    +0.000 N 
ATOM     26  H   UNL     1       5.584   3.033  17.360  0.00  0.00    +0.000 HD
ATOM     27  H   UNL     1       4.192   2.960  18.299  0.00  0.00    +0.000 HD
ENDBRANCH   9  25
BRANCH   1  28
ATOM     28  C   UNL     1      -0.364  12.021  19.770  0.00  0.00    +0.000 C 
BRANCH  28  29
ATOM     29  C   UNL     1      -0.483  13.032  18.616  0.00  0.00    +0.000 C 
BRANCH  29  31
ATOM     30  C   UNL     1      -1.990  11.349  18.015  0.00  0.00    +0.000 C 
ATOM     31  O   UNL     1      -1.355  12.553  17.590  0.00  0.00    +0.000 OA
ENDBRANCH  29  31
ENDBRANCH  28  29
ENDBRANCH   1  28
TORSDOF 6
ENDMDL
MODEL 6
REMARK VINA RESULT:      -6.5      2.196      4.516
REMARK  Name = 
REMARK  9 active torsions:
REMARK  status: ('A' for Active; 'I' for Inactive)
REMARK    1  A    between atoms: C_1  and  O_2
REMARK    2  A    between atoms: O_2  and  C_3
REMARK    3  A    between atoms: C_3  and  C_4
REMARK    4  A    between atoms: C_4  and  N_5
REMARK    5  A    between atoms: C_11  and  C_12
REMARK    6  A    between atoms: C_16  and  O_17
REMARK    7  A    between atoms: O_17  and  C_18
REMARK    8  A    between atoms: C_21  and  N_22
REMARK    9  A    between atoms: N_23  and  C_24
REMARK                            x       y       z     vdW  Elec       q    Type
REMARK                         _______ _______ _______ _____ _____    ______ ____
ROOT
ATOM      1  N   UNL     1       1.021  11.712  19.963  0.00  0.00    +0.000 NA
ATOM      2  C   UNL     1       1.150  10.462  20.749  0.00  0.00    +0.000 C 
ATOM      3  C   UNL     1       0.866   9.148  19.987  0.00  0.00    +0.000 C 
ATOM      4  N   UNL     1       1.623   9.114  18.740  0.00  0.00    +0.000 N 
ATOM      5  C   UNL     1       2.347   7.993  18.403  0.00  0.00    +0.000 A 
ATOM      6  N   UNL     1       2.050   6.854  19.098  0.00  0.00    +0.000 NA
ATOM      7  C   UNL     1       2.739   5.690  18.907  0.00  0.00    +0.000 A 
ATOM      8  C   UNL     1       3.732   5.790  17.933  0.00  0.00    +0.000 A 
ATOM      9  C   UNL     1       4.599   4.847  17.421  0.00  0.00    +0.000 A 
ATOM     10  N   UNL     1       5.419   5.570  16.576  0.00  0.00    +0.000 N 
ATOM     11  C   UNL     1       6.605   5.116  15.889  0.00  0.00    +0.000 C 
ATOM     12  N   UNL     1       5.038   6.855  16.405  0.00  0.00    +0.000 NA
ATOM     13  C   UNL     1       4.006   6.994  17.241  0.00  0.00    +0.000 A 
ATOM     14  N   UNL     1       3.302   8.125  17.450  0.00  0.00    +0.000 NA
ATOM     15  C   UNL     1       1.600  10.305  17.896  0.00  0.00    +0.000 C 
ATOM     16  C   UNL     1       1.853  11.575  18.743  0.00  0.00    +0.000 C 
ENDROOT
BRANCH   7  17
ATOM     17  C   UNL     1       2.418   4.549  19.758  0.00  0.00    +0.000 A 
ATOM     18  C   UNL     1       1.087   4.199  20.029  0.00  0.00    +0.000 A 
ATOM     19  C   UNL     1       0.783   3.088  20.820  0.00  0.00    +0.000 A 
ATOM     20  C   UNL     1       1.810   2.300  21.339  0.00  0.00    +0.000 A 
ATOM     21  C   UNL     1       3.141   2.638  21.104  0.00  0.00    +0.000 A 
ATOM     22  C   UNL     1       3.431   3.784  20.364  0.00  0.00    +0.000 A 
BRANCH  21  23
ATOM     23  O   UNL     1       4.070   1.781  21.628  0.00  0.00    +0.000 OA
ATOM     24  C   UNL     1       5.202   1.491  20.813  0.00  0.00    +0.000 C 
ENDBRANCH  21  23
ENDBRANCH   7  17
BRANCH   9  25
ATOM     25  N   UNL     1       4.733   3.511  17.614  0.00  0.00    +0.000 N 
ATOM     26  H   UNL     1       4.185   3.057  18.347  0.00  0.00    +0.000 HD
ATOM     27  H   UNL     1       4.951   2.861  16.864  0.00  0.00    +0.000 HD
ENDBRANCH   9  25
BRANCH   1  28
ATOM     28  C   UNL     1      -0.375  12.066  19.645  0.00  0.00    +0.000 C 
BRANCH  28  29
ATOM     29  C   UNL     1      -1.059  12.809  20.806  0.00  0.00    +0.000 C 
BRANCH  29  31
ATOM     30  C   UNL     1      -1.474  12.023  22.969  0.00  0.00    +0.000 C 
ATOM     31  O   UNL     1      -1.854  11.923  21.597  0.00  0.00    +0.000 OA
ENDBRANCH  29  31
ENDBRANCH  28  29
ENDBRANCH   1  28
TORSDOF 6
ENDMDL
MODEL 7
REMARK VINA RESULT:      -6.2      0.950      1.358
REMARK  Name = 
REMARK  9 active torsions:
REMARK  status: ('A' for Active; 'I' for Inactive)
REMARK    1  A    between atoms: C_1  and  O_2
REMARK    2  A    between atoms: O_2  and  C_3
REMARK    3  A    between atoms: C_3  and  C_4
REMARK    4  A    between atoms: C_4  and  N_5
REMARK    5  A    between atoms: C_11  and  C_12
REMARK    6  A    between atoms: C_16  and  O_17
REMARK    7  A    between atoms: O_17  and  C_18
REMARK    8  A    between atoms: C_21  and  N_22
REMARK    9  A    between atoms: N_23  and  C_24
REMARK                            x       y       z     vdW  Elec       q    Type
REMARK                         _______ _______ _______ _____ _____    ______ ____
ROOT
ATOM      1  N   UNL     1      -0.047  10.507  18.846  0.00  0.00    +0.000 NA
ATOM      2  C   UNL     1       0.564   9.677  17.780  0.00  0.00    +0.000 C 
ATOM      3  C   UNL     1       1.926   9.031  18.120  0.00  0.00    +0.000 C 
ATOM      4  N   UNL     1       1.852   8.342  19.404  0.00  0.00    +0.000 N 
ATOM      5  C   UNL     1       2.331   7.057  19.526  0.00  0.00    +0.000 A 
ATOM      6  N   UNL     1       3.148   6.622  18.520  0.00  0.00    +0.000 NA
ATOM      7  C   UNL     1       3.639   5.347  18.487  0.00  0.00    +0.000 A 
ATOM      8  C   UNL     1       3.241   4.575  19.577  0.00  0.00    +0.000 A 
ATOM      9  C   UNL     1       3.554   3.279  19.933  0.00  0.00    +0.000 A 
ATOM     10  N   UNL     1       2.766   3.038  21.042  0.00  0.00    +0.000 N 
ATOM     11  C   UNL     1       2.575   1.787  21.738  0.00  0.00    +0.000 C 
ATOM     12  N   UNL     1       2.104   4.125  21.496  0.00  0.00    +0.000 NA
ATOM     13  C   UNL     1       2.390   5.068  20.594  0.00  0.00    +0.000 A 
ATOM     14  N   UNL     1       1.927   6.335  20.601  0.00  0.00    +0.000 NA
ATOM     15  C   UNL     1       1.236   9.049  20.523  0.00  0.00    +0.000 C 
ATOM     16  C   UNL     1      -0.100   9.697  20.086  0.00  0.00    +0.000 C 
ENDROOT
BRANCH   7  17
ATOM     17  C   UNL     1       4.425   4.940  17.327  0.00  0.00    +0.000 A 
ATOM     18  C   UNL     1       4.011   3.880  16.507  0.00  0.00    +0.000 A 
ATOM     19  C   UNL     1       4.751   3.512  15.380  0.00  0.00    +0.000 A 
ATOM     20  C   UNL     1       5.910   4.213  15.049  0.00  0.00    +0.000 A 
ATOM     21  C   UNL     1       6.356   5.256  15.858  0.00  0.00    +0.000 A 
ATOM     22  C   UNL     1       5.642   5.572  17.014  0.00  0.00    +0.000 A 
BRANCH  21  23
ATOM     23  O   UNL     1       7.483   5.900  15.426  0.00  0.00    +0.000 OA
ATOM     24  C   UNL     1       7.926   5.594  14.107  0.00  0.00    +0.000 C 
ENDBRANCH  21  23
ENDBRANCH   7  17
BRANCH   9  25
ATOM     25  N   UNL     1       4.397   2.354  19.412  0.00  0.00    +0.000 N 
ATOM     26  H   UNL     1       4.908   1.734  20.042  0.00  0.00    +0.000 HD
ATOM     27  H   UNL     1       4.248   1.914  18.507  0.00  0.00    +0.000 HD
ENDBRANCH   9  25
BRANCH   1  28
ATOM     28  C   UNL     1       0.640  11.795  19.054  0.00  0.00    +0.000 C 
BRANCH  28  29
ATOM     29  C   UNL     1      -0.328  12.988  18.948  0.00  0.00    +0.000 C 
BRANCH  29  31
ATOM     30  C   UNL     1      -2.402  12.790  20.008  0.00  0.00    +0.000 C 
ATOM     31  O   UNL     1      -1.681  12.551  18.801  0.00  0.00    +0.000 OA
ENDBRANCH  29  31
ENDBRANCH  28  29
ENDBRANCH   1  28
TORSDOF 6
ENDMDL
MODEL 8
REMARK VINA RESULT:      -6.2      2.559      4.859
REMARK  Name = 
REMARK  9 active torsions:
REMARK  status: ('A' for Active; 'I' for Inactive)
REMARK    1  A    between atoms: C_1  and  O_2
REMARK    2  A    between atoms: O_2  and  C_3
REMARK    3  A    between atoms: C_3  and  C_4
REMARK    4  A    between atoms: C_4  and  N_5
REMARK    5  A    between atoms: C_11  and  C_12
REMARK    6  A    between atoms: C_16  and  O_17
REMARK    7  A    between atoms: O_17  and  C_18
REMARK    8  A    between atoms: C_21  and  N_22
REMARK    9  A    between atoms: N_23  and  C_24
REMARK                            x       y       z     vdW  Elec       q    Type
REMARK                         _______ _______ _______ _____ _____    ______ ____
ROOT
ATOM      1  N   UNL     1       1.064  11.806  19.747  0.00  0.00    +0.000 NA
ATOM      2  C   UNL     1       0.965  10.465  20.370  0.00  0.00    +0.000 C 
ATOM      3  C   UNL     1       0.783   9.277  19.398  0.00  0.00    +0.000 C 
ATOM      4  N   UNL     1       1.781   9.337  18.335  0.00  0.00    +0.000 N 
ATOM      5  C   UNL     1       2.505   8.214  18.004  0.00  0.00    +0.000 A 
ATOM      6  N   UNL     1       2.015   7.025  18.467  0.00  0.00    +0.000 NA
ATOM      7  C   UNL     1       2.672   5.844  18.264  0.00  0.00    +0.000 A 
ATOM      8  C   UNL     1       3.850   5.987  17.532  0.00  0.00    +0.000 A 
ATOM      9  C   UNL     1       4.758   5.050  17.083  0.00  0.00    +0.000 A 
ATOM     10  N   UNL     1       5.770   5.806  16.524  0.00  0.00    +0.000 N 
ATOM     11  C   UNL     1       7.050   5.351  16.035  0.00  0.00    +0.000 C 
ATOM     12  N   UNL     1       5.495   7.127  16.452  0.00  0.00    +0.000 NA
ATOM     13  C   UNL     1       4.320   7.241  17.076  0.00  0.00    +0.000 A 
ATOM     14  N   UNL     1       3.644   8.388  17.288  0.00  0.00    +0.000 NA
ATOM     15  C   UNL     1       1.992  10.620  17.670  0.00  0.00    +0.000 C 
ATOM     16  C   UNL     1       2.124  11.756  18.712  0.00  0.00    +0.000 C 
ENDROOT
BRANCH   7  17
ATOM     17  C   UNL     1       2.126   4.636  18.875  0.00  0.00    +0.000 A 
ATOM     18  C   UNL     1       1.422   3.693  18.111  0.00  0.00    +0.000 A 
ATOM     19  C   UNL     1       0.927   2.523  18.692  0.00  0.00    +0.000 A 
ATOM     20  C   UNL     1       1.145   2.272  20.047  0.00  0.00    +0.000 A 
ATOM     21  C   UNL     1       1.823   3.201  20.833  0.00  0.00    +0.000 A 
ATOM     22  C   UNL     1       2.257   4.393  20.254  0.00  0.00    +0.000 A 
BRANCH  21  23
ATOM     23  O   UNL     1       2.013   2.843  22.140  0.00  0.00    +0.000 OA
ATOM     24  C   UNL     1       1.022   2.001  22.721  0.00  0.00    +0.000 C 
ENDBRANCH  21  23
ENDBRANCH   7  17
BRANCH   9  25
ATOM     25  N   UNL     1       4.784   3.695  17.120  0.00  0.00    +0.000 N 
ATOM     26  H   UNL     1       3.906   3.177  17.058  0.00  0.00    +0.000 HD
ATOM     27  H   UNL     1       5.559   3.144  16.757  0.00  0.00    +0.000 HD
ENDBRANCH   9  25
BRANCH   1  28
ATOM     28  C   UNL     1      -0.217  12.299  19.206  0.00  0.00    +0.000 C 
BRANCH  28  29
ATOM     29  C   UNL     1      -0.058  13.654  18.495  0.00  0.00    +0.000 C 
BRANCH  29  31
ATOM     30  C   UNL     1      -0.200  15.974  18.744  0.00  0.00    +0.000 C 
ATOM     31  O   UNL     1      -0.629  14.716  19.261  0.00  0.00    +0.000 OA
ENDBRANCH  29  31
ENDBRANCH  28  29
ENDBRANCH   1  28
TORSDOF 6
ENDMDL
MODEL 9
REMARK VINA RESULT:      -6.2      2.526      4.814
REMARK  Name = 
REMARK  9 active torsions:
REMARK  status: ('A' for Active; 'I' for Inactive)
REMARK    1  A    between atoms: C_1  and  O_2
REMARK    2  A    between atoms: O_2  and  C_3
REMARK    3  A    between atoms: C_3  and  C_4
REMARK    4  A    between atoms: C_4  and  N_5
REMARK    5  A    between atoms: C_11  and  C_12
REMARK    6  A    between atoms: C_16  and  O_17
REMARK    7  A    between atoms: O_17  and  C_18
REMARK    8  A    between atoms: C_21  and  N_22
REMARK    9  A    between atoms: N_23  and  C_24
REMARK                            x       y       z     vdW  Elec       q    Type
REMARK                         _______ _______ _______ _____ _____    ______ ____
ROOT
ATOM      1  N   UNL     1       1.113  11.903  19.563  0.00  0.00    +0.000 NA
ATOM      2  C   UNL     1       0.981  10.580  20.218  0.00  0.00    +0.000 C 
ATOM      3  C   UNL     1       0.801   9.370  19.274  0.00  0.00    +0.000 C 
ATOM      4  N   UNL     1       1.821   9.387  18.231  0.00  0.00    +0.000 N 
ATOM      5  C   UNL     1       2.535   8.246  17.944  0.00  0.00    +0.000 A 
ATOM      6  N   UNL     1       2.018   7.076  18.428  0.00  0.00    +0.000 NA
ATOM      7  C   UNL     1       2.661   5.881  18.270  0.00  0.00    +0.000 A 
ATOM      8  C   UNL     1       3.855   5.987  17.558  0.00  0.00    +0.000 A 
ATOM      9  C   UNL     1       4.758   5.026  17.153  0.00  0.00    +0.000 A 
ATOM     10  N   UNL     1       5.792   5.752  16.595  0.00  0.00    +0.000 N 
ATOM     11  C   UNL     1       7.075   5.266  16.145  0.00  0.00    +0.000 C 
ATOM     12  N   UNL     1       5.539   7.075  16.484  0.00  0.00    +0.000 NA
ATOM     13  C   UNL     1       4.353   7.222  17.080  0.00  0.00    +0.000 A 
ATOM     14  N   UNL     1       3.690   8.384  17.247  0.00  0.00    +0.000 NA
ATOM     15  C   UNL     1       2.065  10.649  17.537  0.00  0.00    +0.000 C 
ATOM     16  C   UNL     1       2.193  11.810  18.552  0.00  0.00    +0.000 C 
ENDROOT
BRANCH   7  17
ATOM     17  C   UNL     1       2.084   4.697  18.900  0.00  0.00    +0.000 A 
ATOM     18  C   UNL     1       1.402   3.733  18.142  0.00  0.00    +0.000 A 
ATOM     19  C   UNL     1       0.877   2.587  18.744  0.00  0.00    +0.000 A 
ATOM     20  C   UNL     1       1.044   2.380  20.113  0.00  0.00    +0.000 A 
ATOM     21  C   UNL     1       1.699   3.332  20.892  0.00  0.00    +0.000 A 
ATOM     22  C   UNL     1       2.163   4.501  20.290  0.00  0.00    +0.000 A 
BRANCH  21  23
ATOM     23  O   UNL     1       1.839   3.017  22.217  0.00  0.00    +0.000 OA
ATOM     24  C   UNL     1       1.029   1.953  22.708  0.00  0.00    +0.000 C 
ENDBRANCH  21  23
ENDBRANCH   7  17
BRANCH   9  25
ATOM     25  N   UNL     1       4.763   3.672  17.225  0.00  0.00    +0.000 N 
ATOM     26  H   UNL     1       5.094   3.131  16.425  0.00  0.00    +0.000 HD
ATOM     27  H   UNL     1       4.905   3.163  18.095  0.00  0.00    +0.000 HD
ENDBRANCH   9  25
BRANCH   1  28
ATOM     28  C   UNL     1      -0.149  12.400  18.983  0.00  0.00    +0.000 C 
BRANCH  28  29
ATOM     29  C   UNL     1      -1.377  11.918  19.776  0.00  0.00    +0.000 C 
BRANCH  29  31
ATOM     30  C   UNL     1      -2.483  10.670  18.138  0.00  0.00    +0.000 C 
ATOM     31  O   UNL     1      -2.538  11.843  18.947  0.00  0.00    +0.000 OA
ENDBRANCH  29  31
ENDBRANCH  28  29
ENDBRANCH   1  28
TORSDOF 6
ENDMDL
