MODEL 1
REMARK VINA RESULT:      -7.8      0.000      0.000
REMARK  Name = 
REMARK  5 active torsions:
REMARK  status: ('A' for Active; 'I' for Inactive)
REMARK    1  A    between atoms: C_1  and  C_2
REMARK    2  A    between atoms: C_3  and  C_4
REMARK    3  A    between atoms: C_4  and  O_6
REMARK    4  A    between atoms: C_13  and  C_14
REMARK    5  A    between atoms: C_16  and  C_17
REMARK                            x       y       z     vdW  Elec       q    Type
REMARK                         _______ _______ _______ _____ _____    ______ ____
ROOT
ATOM      1  C   UNL     1       0.473   9.367  22.661  0.00  0.00    +0.000 C 
ATOM      2  C   UNL     1       0.132  10.387  21.628  0.00  0.00    +0.000 A 
ATOM      3  C   UNL     1      -0.610  11.563  21.733  0.00  0.00    +0.000 A 
ATOM      4  C   UNL     1      -0.528  12.119  20.441  0.00  0.00    +0.000 A 
ATOM      5  N   UNL     1       0.179  11.382  19.589  0.00  0.00    +0.000 NA
ATOM      6  N   UNL     1       0.557  10.285  20.305  0.00  0.00    +0.000 N 
ATOM      7  C   UNL     1       1.286   9.216  19.671  0.00  0.00    +0.000 A 
ATOM      8  C   UNL     1       1.682   9.369  18.342  0.00  0.00    +0.000 A 
ATOM      9  C   UNL     1       2.378   8.330  17.716  0.00  0.00    +0.000 A 
ATOM     10  C   UNL     1       2.665   7.149  18.410  0.00  0.00    +0.000 A 
ATOM     11  C   UNL     1       2.230   7.086  19.727  0.00  0.00    +0.000 A 
ATOM     12  N   UNL     1       1.560   8.082  20.368  0.00  0.00    +0.000 NA
ENDROOT
BRANCH  10  13
ATOM     13  C   UNL     1       3.388   6.039  17.809  0.00  0.00    +0.000 A 
ATOM     14  N   UNL     1       4.540   6.004  17.173  0.00  0.00    +0.000 NA
ATOM     15  C   UNL     1       4.634   4.678  16.816  0.00  0.00    +0.000 A 
ATOM     16  N   UNL     1       3.608   3.916  17.212  0.00  0.00    +0.000 NA
ATOM     17  O   UNL     1       2.781   4.814  17.879  0.00  0.00    +0.000 OA
BRANCH  15  18
ATOM     18  C   UNL     1       5.781   4.085  16.012  0.00  0.00    +0.000 C 
ATOM     19  C   UNL     1       5.810   4.306  14.513  0.00  0.00    +0.000 C 
ATOM     20  C   UNL     1       6.805   5.001  15.376  0.00  0.00    +0.000 C 
ENDBRANCH  15  18
ENDBRANCH  10  13
BRANCH   3  21
ATOM     21  C   UNL     1      -1.288  12.071  22.923  0.00  0.00    +0.000 C 
ATOM     22  O   UNL     1      -2.286  11.562  23.411  0.00  0.00    +0.000 OA
BRANCH  21  23
ATOM     23  O   UNL     1      -0.744  13.183  23.484  0.00  0.00    +0.000 OA
ATOM     24  H   UNL     1      -0.396  13.068  24.383  0.00  0.00    +0.000 HD
ENDBRANCH  21  23
ENDBRANCH   3  21
TORSDOF 4
ENDMDL
MODEL 2
REMARK VINA RESULT:      -7.3      2.175      8.848
REMARK  Name = 
REMARK  5 active torsions:
REMARK  status: ('A' for Active; 'I' for Inactive)
REMARK    1  A    between atoms: C_1  and  C_2
REMARK    2  A    between atoms: C_3  and  C_4
REMARK    3  A    between atoms: C_4  and  O_6
REMARK    4  A    between atoms: C_13  and  C_14
REMARK    5  A    between atoms: C_16  and  C_17
REMARK                            x       y       z     vdW  Elec       q    Type
REMARK                         _______ _______ _______ _____ _____    ______ ____
ROOT
ATOM      1  C   UNL     1       2.219   4.248  20.920  0.00  0.00    +0.000 C 
ATOM      2  C   UNL     1       2.864   4.538  19.608  0.00  0.00    +0.000 A 
ATOM      3  C   UNL     1       3.626   3.717  18.777  0.00  0.00    +0.000 A 
ATOM      4  C   UNL     1       3.899   4.539  17.665  0.00  0.00    +0.000 A 
ATOM      5  N   UNL     1       3.382   5.760  17.767  0.00  0.00    +0.000 NA
ATOM      6  N   UNL     1       2.774   5.782  18.987  0.00  0.00    +0.000 N 
ATOM      7  C   UNL     1       2.163   6.992  19.475  0.00  0.00    +0.000 A 
ATOM      8  C   UNL     1       2.117   8.107  18.638  0.00  0.00    +0.000 A 
ATOM      9  C   UNL     1       1.537   9.289  19.109  0.00  0.00    +0.000 A 
ATOM     10  C   UNL     1       1.018   9.356  20.407  0.00  0.00    +0.000 A 
ATOM     11  C   UNL     1       1.109   8.198  21.169  0.00  0.00    +0.000 A 
ATOM     12  N   UNL     1       1.658   7.030  20.736  0.00  0.00    +0.000 NA
ENDROOT
BRANCH  10  13
ATOM     13  C   UNL     1       0.401  10.558  20.947  0.00  0.00    +0.000 A 
ATOM     14  N   UNL     1      -0.493  10.714  21.900  0.00  0.00    +0.000 NA
ATOM     15  C   UNL     1      -0.691  12.076  21.892  0.00  0.00    +0.000 A 
ATOM     16  N   UNL     1       0.044  12.744  20.996  0.00  0.00    +0.000 NA
ATOM     17  O   UNL     1       0.777  11.740  20.370  0.00  0.00    +0.000 OA
BRANCH  15  18
ATOM     18  C   UNL     1      -1.675  12.806  22.793  0.00  0.00    +0.000 C 
ATOM     19  C   UNL     1      -3.093  13.016  22.303  0.00  0.00    +0.000 C 
ATOM     20  C   UNL     1      -2.833  12.051  23.408  0.00  0.00    +0.000 C 
ENDBRANCH  15  18
ENDBRANCH  10  13
BRANCH   3  21
ATOM     21  C   UNL     1       4.018   2.333  19.028  0.00  0.00    +0.000 C 
ATOM     22  O   UNL     1       3.491   1.365  18.499  0.00  0.00    +0.000 OA
BRANCH  21  23
ATOM     23  O   UNL     1       5.032   2.158  19.916  0.00  0.00    +0.000 OA
ATOM     24  H   UNL     1       5.602   1.389  19.752  0.00  0.00    +0.000 HD
ENDBRANCH  21  23
ENDBRANCH   3  21
TORSDOF 4
ENDMDL
MODEL 3
REMARK VINA RESULT:      -7.3      1.945      3.120
REMARK  Name = 
REMARK  5 active torsions:
REMARK  status: ('A' for Active; 'I' for Inactive)
REMARK    1  A    between atoms: C_1  and  C_2
REMARK    2  A    between atoms: C_3  and  C_4
REMARK    3  A    between atoms: C_4  and  O_6
REMARK    4  A    between atoms: C_13  and  C_14
REMARK    5  A    between atoms: C_16  and  C_17
REMARK                            x       y       z     vdW  Elec       q    Type
REMARK                         _______ _______ _______ _____ _____    ______ ____
ROOT
ATOM      1  C   UNL     1       1.182  10.225  18.598  0.00  0.00    +0.000 C 
ATOM      2  C   UNL     1       1.104   9.355  19.806  0.00  0.00    +0.000 A 
ATOM      3  C   UNL     1       0.448   9.555  21.021  0.00  0.00    +0.000 A 
ATOM      4  C   UNL     1       0.697   8.361  21.727  0.00  0.00    +0.000 A 
ATOM      5  N   UNL     1       1.438   7.488  21.053  0.00  0.00    +0.000 NA
ATOM      6  N   UNL     1       1.731   8.112  19.876  0.00  0.00    +0.000 N 
ATOM      7  C   UNL     1       2.596   7.482  18.912  0.00  0.00    +0.000 A 
ATOM      8  C   UNL     1       3.046   6.185  19.160  0.00  0.00    +0.000 A 
ATOM      9  C   UNL     1       3.897   5.572  18.235  0.00  0.00    +0.000 A 
ATOM     10  C   UNL     1       4.300   6.254  17.081  0.00  0.00    +0.000 A 
ATOM     11  C   UNL     1       3.803   7.541  16.919  0.00  0.00    +0.000 A 
ATOM     12  N   UNL     1       2.966   8.161  17.795  0.00  0.00    +0.000 NA
ENDROOT
BRANCH  10  13
ATOM     13  C   UNL     1       5.180   5.663  16.084  0.00  0.00    +0.000 A 
ATOM     14  N   UNL     1       4.976   4.690  15.222  0.00  0.00    +0.000 NA
ATOM     15  C   UNL     1       6.205   4.580  14.612  0.00  0.00    +0.000 A 
ATOM     16  N   UNL     1       7.129   5.441  15.053  0.00  0.00    +0.000 NA
ATOM     17  O   UNL     1       6.451   6.169  16.026  0.00  0.00    +0.000 OA
BRANCH  15  18
ATOM     18  C   UNL     1       6.541   3.559  13.536  0.00  0.00    +0.000 C 
ATOM     19  C   UNL     1       5.643   3.461  12.319  0.00  0.00    +0.000 C 
ATOM     20  C   UNL     1       7.014   4.028  12.177  0.00  0.00    +0.000 C 
ENDBRANCH  15  18
ENDBRANCH  10  13
BRANCH   3  21
ATOM     21  C   UNL     1      -0.315  10.733  21.424  0.00  0.00    +0.000 C 
ATOM     22  O   UNL     1      -1.095  11.326  20.693  0.00  0.00    +0.000 OA
BRANCH  21  23
ATOM     23  O   UNL     1      -0.110  11.163  22.697  0.00  0.00    +0.000 OA
ATOM     24  H   UNL     1      -0.592  11.967  22.947  0.00  0.00    +0.000 HD
ENDBRANCH  21  23
ENDBRANCH   3  21
TORSDOF 4
ENDMDL
MODEL 4
REMARK VINA RESULT:      -7.2      0.942      1.281
REMARK  Name = 
REMARK  5 active torsions:
REMARK  status: ('A' for Active; 'I' for Inactive)
REMARK    1  A    between atoms: C_1  and  C_2
REMARK    2  A    between atoms: C_3  and  C_4
REMARK    3  A    between atoms: C_4  and  O_6
REMARK    4  A    between atoms: C_13  and  C_14
REMARK    5  A    between atoms: C_16  and  C_17
REMARK                            x       y       z     vdW  Elec       q    Type
REMARK                         _______ _______ _______ _____ _____    ______ ____
ROOT
ATOM      1  C   UNL     1      -0.072   9.946  22.827  0.00  0.00    +0.000 C 
ATOM      2  C   UNL     1      -0.506  10.949  21.812  0.00  0.00    +0.000 A 
ATOM      3  C   UNL     1      -1.355  12.048  21.937  0.00  0.00    +0.000 A 
ATOM      4  C   UNL     1      -1.324  12.633  20.655  0.00  0.00    +0.000 A 
ATOM      5  N   UNL     1      -0.550  11.983  19.792  0.00  0.00    +0.000 NA
ATOM      6  N   UNL     1      -0.072  10.912  20.489  0.00  0.00    +0.000 N 
ATOM      7  C   UNL     1       0.755   9.928  19.837  0.00  0.00    +0.000 A 
ATOM      8  C   UNL     1       1.136  10.142  18.513  0.00  0.00    +0.000 A 
ATOM      9  C   UNL     1       1.927   9.185  17.870  0.00  0.00    +0.000 A 
ATOM     10  C   UNL     1       2.323   8.023  18.542  0.00  0.00    +0.000 A 
ATOM     11  C   UNL     1       1.894   7.895  19.857  0.00  0.00    +0.000 A 
ATOM     12  N   UNL     1       1.133   8.812  20.514  0.00  0.00    +0.000 NA
ENDROOT
BRANCH  10  13
ATOM     13  C   UNL     1       3.147   6.996  17.923  0.00  0.00    +0.000 A 
ATOM     14  N   UNL     1       4.220   7.093  17.166  0.00  0.00    +0.000 NA
ATOM     15  C   UNL     1       4.485   5.776  16.870  0.00  0.00    +0.000 A 
ATOM     16  N   UNL     1       3.638   4.896  17.416  0.00  0.00    +0.000 NA
ATOM     17  O   UNL     1       2.751   5.702  18.123  0.00  0.00    +0.000 OA
BRANCH  15  18
ATOM     18  C   UNL     1       5.624   5.310  15.975  0.00  0.00    +0.000 C 
ATOM     19  C   UNL     1       6.858   4.712  16.619  0.00  0.00    +0.000 C 
ATOM     20  C   UNL     1       5.929   3.832  15.856  0.00  0.00    +0.000 C 
ENDBRANCH  15  18
ENDBRANCH  10  13
BRANCH   3  21
ATOM     21  C   UNL     1      -2.079  12.469  23.133  0.00  0.00    +0.000 C 
ATOM     22  O   UNL     1      -1.768  13.432  23.818  0.00  0.00    +0.000 OA
BRANCH  21  23
ATOM     23  O   UNL     1      -3.155  11.709  23.471  0.00  0.00    +0.000 OA
ATOM     24  H   UNL     1      -3.817  11.590  22.771  0.00  0.00    +0.000 HD
ENDBRANCH  21  23
ENDBRANCH   3  21
TORSDOF 4
ENDMDL
MODEL 5
REMARK VINA RESULT:      -7.2      2.088      8.953
REMARK  Name = 
REMARK  5 active torsions:
REMARK  status: ('A' for Active; 'I' for Inactive)
REMARK    1  A    between atoms: C_1  and  C_2
REMARK    2  A    between atoms: C_3  and  C_4
REMARK    3  A    between atoms: C_4  and  O_6
REMARK    4  A    between atoms: C_13  and  C_14
REMARK    5  A    between atoms: C_16  and  C_17
REMARK                            x       y       z     vdW  Elec       q    Type
REMARK                         _______ _______ _______ _____ _____    ______ ____
ROOT
ATOM      1  C   UNL     1       2.239   4.610  20.772  0.00  0.00    +0.000 C 
ATOM      2  C   UNL     1       2.880   5.113  19.523  0.00  0.00    +0.000 A 
ATOM      3  C   UNL     1       3.747   4.477  18.635  0.00  0.00    +0.000 A 
ATOM      4  C   UNL     1       3.955   5.443  17.631  0.00  0.00    +0.000 A 
ATOM      5  N   UNL     1       3.306   6.583  17.846  0.00  0.00    +0.000 NA
ATOM      6  N   UNL     1       2.670   6.403  19.040  0.00  0.00    +0.000 N 
ATOM      7  C   UNL     1       1.919   7.479  19.635  0.00  0.00    +0.000 A 
ATOM      8  C   UNL     1       1.772   8.669  18.924  0.00  0.00    +0.000 A 
ATOM      9  C   UNL     1       1.055   9.722  19.501  0.00  0.00    +0.000 A 
ATOM     10  C   UNL     1       0.501   9.587  20.779  0.00  0.00    +0.000 A 
ATOM     11  C   UNL     1       0.700   8.367  21.412  0.00  0.00    +0.000 A 
ATOM     12  N   UNL     1       1.383   7.320  20.874  0.00  0.00    +0.000 NA
ENDROOT
BRANCH  10  13
ATOM     13  C   UNL     1      -0.257  10.648  21.425  0.00  0.00    +0.000 A 
ATOM     14  N   UNL     1      -1.192  11.447  20.958  0.00  0.00    +0.000 NA
ATOM     15  C   UNL     1      -1.460  12.247  22.045  0.00  0.00    +0.000 A 
ATOM     16  N   UNL     1      -0.745  11.965  23.140  0.00  0.00    +0.000 NA
ATOM     17  O   UNL     1       0.051  10.897  22.735  0.00  0.00    +0.000 OA
BRANCH  15  18
ATOM     18  C   UNL     1      -2.461  13.393  22.042  0.00  0.00    +0.000 C 
ATOM     19  C   UNL     1      -3.941  13.067  22.073  0.00  0.00    +0.000 C 
ATOM     20  C   UNL     1      -3.295  13.665  23.275  0.00  0.00    +0.000 C 
ENDBRANCH  15  18
ENDBRANCH  10  13
BRANCH   3  21
ATOM     21  C   UNL     1       4.282   3.122  18.747  0.00  0.00    +0.000 C 
ATOM     22  O   UNL     1       3.774   2.141  18.225  0.00  0.00    +0.000 OA
BRANCH  21  23
ATOM     23  O   UNL     1       5.412   2.993  19.491  0.00  0.00    +0.000 OA
ATOM     24  H   UNL     1       5.369   3.369  20.384  0.00  0.00    +0.000 HD
ENDBRANCH  21  23
ENDBRANCH   3  21
TORSDOF 4
ENDMDL
MODEL 6
REMARK VINA RESULT:      -7.2      2.335      8.543
REMARK  Name = 
REMARK  5 active torsions:
REMARK  status: ('A' for Active; 'I' for Inactive)
REMARK    1  A    between atoms: C_1  and  C_2
REMARK    2  A    between atoms: C_3  and  C_4
REMARK    3  A    between atoms: C_4  and  O_6
REMARK    4  A    between atoms: C_13  and  C_14
REMARK    5  A    between atoms: C_16  and  C_17
REMARK                            x       y       z     vdW  Elec       q    Type
REMARK                         _______ _______ _______ _____ _____    ______ ____
ROOT
ATOM      1  C   UNL     1       2.435   4.441  20.751  0.00  0.00    +0.000 C 
ATOM      2  C   UNL     1       3.181   4.476  19.461  0.00  0.00    +0.000 A 
ATOM      3  C   UNL     1       3.969   3.502  18.847  0.00  0.00    +0.000 A 
ATOM      4  C   UNL     1       4.349   4.106  17.632  0.00  0.00    +0.000 A 
ATOM      5  N   UNL     1       3.872   5.337  17.478  0.00  0.00    +0.000 NA
ATOM      6  N   UNL     1       3.182   5.591  18.626  0.00  0.00    +0.000 N 
ATOM      7  C   UNL     1       2.583   6.884  18.845  0.00  0.00    +0.000 A 
ATOM      8  C   UNL     1       2.638   7.832  17.824  0.00  0.00    +0.000 A 
ATOM      9  C   UNL     1       2.071   9.092  18.035  0.00  0.00    +0.000 A 
ATOM     10  C   UNL     1       1.465   9.402  19.258  0.00  0.00    +0.000 A 
ATOM     11  C   UNL     1       1.459   8.397  20.216  0.00  0.00    +0.000 A 
ATOM     12  N   UNL     1       1.993   7.158  20.039  0.00  0.00    +0.000 NA
ENDROOT
BRANCH  10  13
ATOM     13  C   UNL     1       0.857  10.696  19.530  0.00  0.00    +0.000 A 
ATOM     14  N   UNL     1       1.321  11.917  19.371  0.00  0.00    +0.000 NA
ATOM     15  C   UNL     1       0.289  12.686  19.857  0.00  0.00    +0.000 A 
ATOM     16  N   UNL     1      -0.772  11.993  20.287  0.00  0.00    +0.000 NA
ATOM     17  O   UNL     1      -0.403  10.670  20.065  0.00  0.00    +0.000 OA
BRANCH  15  18
ATOM     18  C   UNL     1       0.315  14.204  19.943  0.00  0.00    +0.000 C 
ATOM     19  C   UNL     1      -0.143  15.010  18.745  0.00  0.00    +0.000 C 
ATOM     20  C   UNL     1      -0.985  14.978  19.974  0.00  0.00    +0.000 C 
ENDBRANCH  15  18
ENDBRANCH  10  13
BRANCH   3  21
ATOM     21  C   UNL     1       4.290   2.176  19.367  0.00  0.00    +0.000 C 
ATOM     22  O   UNL     1       4.836   1.976  20.443  0.00  0.00    +0.000 OA
BRANCH  21  23
ATOM     23  O   UNL     1       3.947   1.129  18.571  0.00  0.00    +0.000 OA
ATOM     24  H   UNL     1       3.842   0.277  19.024  0.00  0.00    +0.000 HD
ENDBRANCH  21  23
ENDBRANCH   3  21
TORSDOF 4
ENDMDL
MODEL 7
REMARK VINA RESULT:      -7.1      1.266      1.936
REMARK  Name = 
REMARK  5 active torsions:
REMARK  status: ('A' for Active; 'I' for Inactive)
REMARK    1  A    between atoms: C_1  and  C_2
REMARK    2  A    between atoms: C_3  and  C_4
REMARK    3  A    between atoms: C_4  and  O_6
REMARK    4  A    between atoms: C_13  and  C_14
REMARK    5  A    between atoms: C_16  and  C_17
REMARK                            x       y       z     vdW  Elec       q    Type
REMARK                         _______ _______ _______ _____ _____    ______ ____
ROOT
ATOM      1  C   UNL     1       0.644  10.946  19.007  0.00  0.00    +0.000 C 
ATOM      2  C   UNL     1       0.422  10.427  20.387  0.00  0.00    +0.000 A 
ATOM      3  C   UNL     1      -0.176  11.032  21.493  0.00  0.00    +0.000 A 
ATOM      4  C   UNL     1      -0.138  10.024  22.477  0.00  0.00    +0.000 A 
ATOM      5  N   UNL     1       0.429   8.895  22.062  0.00  0.00    +0.000 NA
ATOM      6  N   UNL     1       0.818   9.150  20.780  0.00  0.00    +0.000 N 
ATOM      7  C   UNL     1       1.548   8.160  20.030  0.00  0.00    +0.000 A 
ATOM      8  C   UNL     1       1.761   6.906  20.601  0.00  0.00    +0.000 A 
ATOM      9  C   UNL     1       2.480   5.945  19.883  0.00  0.00    +0.000 A 
ATOM     10  C   UNL     1       2.988   6.240  18.613  0.00  0.00    +0.000 A 
ATOM     11  C   UNL     1       2.727   7.515  18.126  0.00  0.00    +0.000 A 
ATOM     12  N   UNL     1       2.023   8.468  18.794  0.00  0.00    +0.000 NA
ENDROOT
BRANCH  10  13
ATOM     13  C   UNL     1       3.739   5.278  17.822  0.00  0.00    +0.000 A 
ATOM     14  N   UNL     1       4.759   5.441  17.006  0.00  0.00    +0.000 NA
ATOM     15  C   UNL     1       4.967   4.163  16.542  0.00  0.00    +0.000 A 
ATOM     16  N   UNL     1       4.137   3.241  17.044  0.00  0.00    +0.000 NA
ATOM     17  O   UNL     1       3.323   3.976  17.901  0.00  0.00    +0.000 OA
BRANCH  15  18
ATOM     18  C   UNL     1       6.027   3.782  15.520  0.00  0.00    +0.000 C 
ATOM     19  C   UNL     1       5.807   4.157  14.068  0.00  0.00    +0.000 C 
ATOM     20  C   UNL     1       6.855   4.863  14.858  0.00  0.00    +0.000 C 
ENDBRANCH  15  18
ENDBRANCH  10  13
BRANCH   3  21
ATOM     21  C   UNL     1      -0.712  12.387  21.570  0.00  0.00    +0.000 C 
ATOM     22  O   UNL     1      -1.747  12.746  21.027  0.00  0.00    +0.000 OA
BRANCH  21  23
ATOM     23  O   UNL     1       0.020  13.273  22.296  0.00  0.00    +0.000 OA
ATOM     24  H   UNL     1      -0.391  13.576  23.121  0.00  0.00    +0.000 HD
ENDBRANCH  21  23
ENDBRANCH   3  21
TORSDOF 4
ENDMDL
MODEL 8
REMARK VINA RESULT:      -7.1      2.228      8.818
REMARK  Name = 
REMARK  5 active torsions:
REMARK  status: ('A' for Active; 'I' for Inactive)
REMARK    1  A    between atoms: C_1  and  C_2
REMARK    2  A    between atoms: C_3  and  C_4
REMARK    3  A    between atoms: C_4  and  O_6
REMARK    4  A    between atoms: C_13  and  C_14
REMARK    5  A    between atoms: C_16  and  C_17
REMARK                            x       y       z     vdW  Elec       q    Type
REMARK                         _______ _______ _______ _____ _____    ______ ____
ROOT
ATOM      1  C   UNL     1       2.354   4.444  20.997  0.00  0.00    +0.000 C 
ATOM      2  C   UNL     1       3.012   4.708  19.686  0.00  0.00    +0.000 A 
ATOM      3  C   UNL     1       3.830   3.890  18.907  0.00  0.00    +0.000 A 
ATOM      4  C   UNL     1       4.086   4.675  17.765  0.00  0.00    +0.000 A 
ATOM      5  N   UNL     1       3.510   5.872  17.802  0.00  0.00    +0.000 NA
ATOM      6  N   UNL     1       2.876   5.918  19.009  0.00  0.00    +0.000 N 
ATOM      7  C   UNL     1       2.197   7.117  19.431  0.00  0.00    +0.000 A 
ATOM      8  C   UNL     1       2.116   8.191  18.544  0.00  0.00    +0.000 A 
ATOM      9  C   UNL     1       1.470   9.362  18.952  0.00  0.00    +0.000 A 
ATOM     10  C   UNL     1       0.921   9.460  20.236  0.00  0.00    +0.000 A 
ATOM     11  C   UNL     1       1.052   8.342  21.049  0.00  0.00    +0.000 A 
ATOM     12  N   UNL     1       1.665   7.185  20.680  0.00  0.00    +0.000 NA
ENDROOT
BRANCH  10  13
ATOM     13  C   UNL     1       0.236  10.653  20.710  0.00  0.00    +0.000 A 
ATOM     14  N   UNL     1       0.399  11.362  21.807  0.00  0.00    +0.000 NA
ATOM     15  C   UNL     1      -0.581  12.319  21.682  0.00  0.00    +0.000 A 
ATOM     16  N   UNL     1      -1.314  12.230  20.566  0.00  0.00    +0.000 NA
ATOM     17  O   UNL     1      -0.770  11.128  19.913  0.00  0.00    +0.000 OA
BRANCH  15  18
ATOM     18  C   UNL     1      -0.865  13.397  22.717  0.00  0.00    +0.000 C 
ATOM     19  C   UNL     1      -0.250  14.769  22.526  0.00  0.00    +0.000 C 
ATOM     20  C   UNL     1      -1.718  14.591  22.344  0.00  0.00    +0.000 C 
ENDBRANCH  15  18
ENDBRANCH  10  13
BRANCH   3  21
ATOM     21  C   UNL     1       4.282   2.539  19.227  0.00  0.00    +0.000 C 
ATOM     22  O   UNL     1       4.900   2.246  20.240  0.00  0.00    +0.000 OA
BRANCH  21  23
ATOM     23  O   UNL     1       3.979   1.581  18.311  0.00  0.00    +0.000 OA
ATOM     24  H   UNL     1       4.224   0.675  18.559  0.00  0.00    +0.000 HD
ENDBRANCH  21  23
ENDBRANCH   3  21
TORSDOF 4
ENDMDL
MODEL 9
REMARK VINA RESULT:      -7.1      2.821      8.499
REMARK  Name = 
REMARK  5 active torsions:
REMARK  status: ('A' for Active; 'I' for Inactive)
REMARK    1  A    between atoms: C_1  and  C_2
REMARK    2  A    between atoms: C_3  and  C_4
REMARK    3  A    between atoms: C_4  and  O_6
REMARK    4  A    between atoms: C_13  and  C_14
REMARK    5  A    between atoms: C_16  and  C_17
REMARK                            x       y       z     vdW  Elec       q    Type
REMARK                         _______ _______ _______ _____ _____    ______ ____
ROOT
ATOM      1  C   UNL     1       3.734   5.197  17.834  0.00  0.00    +0.000 C 
ATOM      2  C   UNL     1       3.177   4.673  19.113  0.00  0.00    +0.000 A 
ATOM      3  C   UNL     1       3.240   3.395  19.669  0.00  0.00    +0.000 A 
ATOM      4  C   UNL     1       2.581   3.543  20.906  0.00  0.00    +0.000 A 
ATOM      5  N   UNL     1       2.131   4.774  21.125  0.00  0.00    +0.000 NA
ATOM      6  N   UNL     1       2.459   5.472  20.001  0.00  0.00    +0.000 N 
ATOM      7  C   UNL     1       2.053   6.847  19.852  0.00  0.00    +0.000 A 
ATOM      8  C   UNL     1       1.408   7.476  20.916  0.00  0.00    +0.000 A 
ATOM      9  C   UNL     1       0.999   8.806  20.774  0.00  0.00    +0.000 A 
ATOM     10  C   UNL     1       1.225   9.493  19.576  0.00  0.00    +0.000 A 
ATOM     11  C   UNL     1       1.872   8.785  18.571  0.00  0.00    +0.000 A 
ATOM     12  N   UNL     1       2.291   7.495  18.681  0.00  0.00    +0.000 NA
ENDROOT
BRANCH  10  13
ATOM     13  C   UNL     1       0.824  10.877  19.374  0.00  0.00    +0.000 A 
ATOM     14  N   UNL     1       1.237  11.987  19.949  0.00  0.00    +0.000 NA
ATOM     15  C   UNL     1       0.435  12.936  19.357  0.00  0.00    +0.000 A 
ATOM     16  N   UNL     1      -0.426  12.458  18.453  0.00  0.00    +0.000 NA
ATOM     17  O   UNL     1      -0.167  11.091  18.455  0.00  0.00    +0.000 OA
BRANCH  15  18
ATOM     18  C   UNL     1       0.471  14.419  19.692  0.00  0.00    +0.000 C 
ATOM     19  C   UNL     1       1.337  15.335  18.851  0.00  0.00    +0.000 C 
ATOM     20  C   UNL     1      -0.146  15.420  18.739  0.00  0.00    +0.000 C 
ENDBRANCH  15  18
ENDBRANCH  10  13
BRANCH   3  21
ATOM     21  C   UNL     1       3.861   2.211  19.081  0.00  0.00    +0.000 C 
ATOM     22  O   UNL     1       3.409   1.606  18.121  0.00  0.00    +0.000 OA
BRANCH  21  23
ATOM     23  O   UNL     1       5.009   1.790  19.675  0.00  0.00    +0.000 OA
ATOM     24  H   UNL     1       5.241   0.860  19.520  0.00  0.00    +0.000 HD
ENDBRANCH  21  23
ENDBRANCH   3  21
TORSDOF 4
ENDMDL
