MODEL 1
REMARK VINA RESULT:      -9.1      0.000      0.000
REMARK  Name = 
REMARK  6 active torsions:
REMARK  status: ('A' for Active; 'I' for Inactive)
REMARK    1  A    between atoms: C_1  and  O_2
REMARK    2  A    between atoms: O_2  and  C_3
REMARK    3  A    between atoms: C_7  and  N_8
REMARK    4  A    between atoms: N_8  and  C_9
REMARK    5  A    between atoms: N_18  and  C_19
REMARK    6  A    between atoms: C_19  and  C_20
REMARK                            x       y       z     vdW  Elec       q    Type
REMARK                         _______ _______ _______ _____ _____    ______ ____
ROOT
ATOM      1  C   UNL     1      -1.213  13.295  19.594  0.00  0.00    +0.000 C 
ATOM      2  C   UNL     1      -1.588  12.587  18.279  0.00  0.00    +0.000 C 
ATOM      3  C   UNL     1      -0.901  11.229  18.050  0.00  0.00    +0.000 C 
ATOM      4  C   UNL     1      -0.412  10.579  19.311  0.00  0.00    +0.000 A 
ATOM      5  C   UNL     1      -0.787  11.033  20.560  0.00  0.00    +0.000 A 
ATOM      6  S   UNL     1      -0.388   9.930  21.794  0.00  0.00    +0.000 S 
ATOM      7  C   UNL     1       0.608   9.031  20.727  0.00  0.00    +0.000 A 
ATOM      8  N   UNL     1       1.358   7.986  21.151  0.00  0.00    +0.000 NA
ATOM      9  C   UNL     1       2.157   7.508  20.251  0.00  0.00    +0.000 A 
ATOM     10  N   UNL     1       2.285   7.972  18.951  0.00  0.00    +0.000 N 
ATOM     11  C   UNL     1       1.595   9.104  18.523  0.00  0.00    +0.000 A 
ATOM     12  O   UNL     1       1.870   9.733  17.504  0.00  0.00    +0.000 OA
ATOM     13  C   UNL     1       0.593   9.576  19.468  0.00  0.00    +0.000 A 
ATOM     14  C   UNL     1      -1.448  12.352  20.807  0.00  0.00    +0.000 C 
ENDROOT
BRANCH   1  15
ATOM     15  N   UNL     1       0.175  13.785  19.484  0.00  0.00    +0.000 N 
ATOM     16  H   UNL     1       0.760  13.541  20.284  0.00  0.00    +0.000 HD
BRANCH  15  21
ATOM     17  C   UNL     1       2.119  16.663  18.104  0.00  0.00    +0.000 A 
ATOM     18  C   UNL     1       1.093  17.584  17.914  0.00  0.00    +0.000 A 
ATOM     19  C   UNL     1      -0.212  17.264  18.276  0.00  0.00    +0.000 A 
ATOM     20  C   UNL     1      -0.498  15.989  18.775  0.00  0.00    +0.000 A 
ATOM     21  C   UNL     1       0.510  15.027  18.945  0.00  0.00    +0.000 A 
ATOM     22  C   UNL     1       1.826  15.427  18.686  0.00  0.00    +0.000 A 
BRANCH  17  24
ATOM     23  C   UNL     1       4.467  16.840  18.567  0.00  0.00    +0.000 C 
ATOM     24  O   UNL     1       3.357  17.086  17.712  0.00  0.00    +0.000 OA
ENDBRANCH  17  24
ENDBRANCH  15  21
ENDBRANCH   1  15
BRANCH  10  25
ATOM     25  C   UNL     1       3.348   7.447  18.106  0.00  0.00    +0.000 C 
BRANCH  25  26
ATOM     26  C   UNL     1       3.240   5.983  17.704  0.00  0.00    +0.000 A 
ATOM     27  C   UNL     1       2.112   5.206  18.029  0.00  0.00    +0.000 A 
ATOM     28  C   UNL     1       2.052   3.856  17.694  0.00  0.00    +0.000 A 
ATOM     29  C   UNL     1       3.127   3.250  17.050  0.00  0.00    +0.000 A 
ATOM     30  C   UNL     1       4.269   3.987  16.711  0.00  0.00    +0.000 A 
ATOM     31  C   UNL     1       5.356   3.346  16.087  0.00  0.00    +0.000 A 
ATOM     32  C   UNL     1       6.493   4.053  15.721  0.00  0.00    +0.000 A 
ATOM     33  C   UNL     1       6.552   5.428  15.948  0.00  0.00    +0.000 A 
ATOM     34  C   UNL     1       5.489   6.067  16.576  0.00  0.00    +0.000 A 
ATOM     35  C   UNL     1       4.329   5.371  17.006  0.00  0.00    +0.000 A 
ENDBRANCH  25  26
ENDBRANCH  10  25
TORSDOF 5
ENDMDL
MODEL 2
REMARK VINA RESULT:      -8.7      1.439      2.299
REMARK  Name = 
REMARK  6 active torsions:
REMARK  status: ('A' for Active; 'I' for Inactive)
REMARK    1  A    between atoms: C_1  and  O_2
REMARK    2  A    between atoms: O_2  and  C_3
REMARK    3  A    between atoms: C_7  and  N_8
REMARK    4  A    between atoms: N_8  and  C_9
REMARK    5  A    between atoms: N_18  and  C_19
REMARK    6  A    between atoms: C_19  and  C_20
REMARK                            x       y       z     vdW  Elec       q    Type
REMARK                         _______ _______ _______ _____ _____    ______ ____
ROOT
ATOM      1  C   UNL     1      -0.036  13.607  20.634  0.00  0.00    +0.000 C 
ATOM      2  C   UNL     1      -0.642  13.246  19.265  0.00  0.00    +0.000 C 
ATOM      3  C   UNL     1      -0.285  11.844  18.742  0.00  0.00    +0.000 C 
ATOM      4  C   UNL     1       0.133  10.886  19.819  0.00  0.00    +0.000 A 
ATOM      5  C   UNL     1      -0.051  11.166  21.158  0.00  0.00    +0.000 A 
ATOM      6  S   UNL     1       0.178   9.796  22.142  0.00  0.00    +0.000 S 
ATOM      7  C   UNL     1       0.882   8.928  20.842  0.00  0.00    +0.000 A 
ATOM      8  N   UNL     1       1.412   7.692  21.005  0.00  0.00    +0.000 NA
ATOM      9  C   UNL     1       2.026   7.238  19.960  0.00  0.00    +0.000 A 
ATOM     10  N   UNL     1       2.167   7.899  18.750  0.00  0.00    +0.000 N 
ATOM     11  C   UNL     1       1.714   9.207  18.591  0.00  0.00    +0.000 A 
ATOM     12  O   UNL     1       2.052   9.945  17.670  0.00  0.00    +0.000 OA
ATOM     13  C   UNL     1       0.903   9.688  19.700  0.00  0.00    +0.000 A 
ATOM     14  C   UNL     1      -0.391  12.523  21.690  0.00  0.00    +0.000 C 
ENDROOT
BRANCH   1  15
ATOM     15  N   UNL     1       1.415  13.817  20.465  0.00  0.00    +0.000 N 
ATOM     16  H   UNL     1       1.934  13.817  21.343  0.00  0.00    +0.000 HD
BRANCH  15  21
ATOM     17  C   UNL     1       3.713  15.409  17.985  0.00  0.00    +0.000 A 
ATOM     18  C   UNL     1       3.000  16.570  17.700  0.00  0.00    +0.000 A 
ATOM     19  C   UNL     1       1.799  16.833  18.351  0.00  0.00    +0.000 A 
ATOM     20  C   UNL     1       1.280  15.895  19.250  0.00  0.00    +0.000 A 
ATOM     21  C   UNL     1       1.959  14.698  19.531  0.00  0.00    +0.000 A 
ATOM     22  C   UNL     1       3.220  14.528  18.950  0.00  0.00    +0.000 A 
BRANCH  17  24
ATOM     23  C   UNL     1       6.040  14.824  17.979  0.00  0.00    +0.000 C 
ATOM     24  O   UNL     1       4.875  15.257  17.285  0.00  0.00    +0.000 OA
ENDBRANCH  17  24
ENDBRANCH  15  21
ENDBRANCH   1  15
BRANCH  10  25
ATOM     25  C   UNL     1       3.032   7.335  17.723  0.00  0.00    +0.000 C 
BRANCH  25  26
ATOM     26  C   UNL     1       3.883   6.140  18.129  0.00  0.00    +0.000 A 
ATOM     27  C   UNL     1       5.239   6.279  18.479  0.00  0.00    +0.000 A 
ATOM     28  C   UNL     1       6.014   5.168  18.800  0.00  0.00    +0.000 A 
ATOM     29  C   UNL     1       5.454   3.894  18.755  0.00  0.00    +0.000 A 
ATOM     30  C   UNL     1       4.110   3.712  18.409  0.00  0.00    +0.000 A 
ATOM     31  C   UNL     1       3.575   2.411  18.341  0.00  0.00    +0.000 A 
ATOM     32  C   UNL     1       2.241   2.199  18.021  0.00  0.00    +0.000 A 
ATOM     33  C   UNL     1       1.405   3.292  17.790  0.00  0.00    +0.000 A 
ATOM     34  C   UNL     1       1.928   4.579  17.842  0.00  0.00    +0.000 A 
ATOM     35  C   UNL     1       3.296   4.835  18.121  0.00  0.00    +0.000 A 
ENDBRANCH  25  26
ENDBRANCH  10  25
TORSDOF 5
ENDMDL
MODEL 3
REMARK VINA RESULT:      -8.7      1.007      1.183
REMARK  Name = 
REMARK  6 active torsions:
REMARK  status: ('A' for Active; 'I' for Inactive)
REMARK    1  A    between atoms: C_1  and  O_2
REMARK    2  A    between atoms: O_2  and  C_3
REMARK    3  A    between atoms: C_7  and  N_8
REMARK    4  A    between atoms: N_8  and  C_9
REMARK    5  A    between atoms: N_18  and  C_19
REMARK    6  A    between atoms: C_19  and  C_20
REMARK                            x       y       z     vdW  Elec       q    Type
REMARK                         _______ _______ _______ _____ _____    ______ ____
ROOT
ATOM      1  C   UNL     1      -0.287  13.598  20.868  0.00  0.00    +0.000 C 
ATOM      2  C   UNL     1      -0.775  13.278  19.443  0.00  0.00    +0.000 C 
ATOM      3  C   UNL     1      -0.333  11.912  18.892  0.00  0.00    +0.000 C 
ATOM      4  C   UNL     1       0.034  10.921  19.958  0.00  0.00    +0.000 A 
ATOM      5  C   UNL     1      -0.259  11.137  21.289  0.00  0.00    +0.000 A 
ATOM      6  S   UNL     1      -0.059   9.733  22.231  0.00  0.00    +0.000 S 
ATOM      7  C   UNL     1       0.770   8.944  20.954  0.00  0.00    +0.000 A 
ATOM      8  N   UNL     1       1.327   7.719  21.106  0.00  0.00    +0.000 NA
ATOM      9  C   UNL     1       2.033   7.329  20.093  0.00  0.00    +0.000 A 
ATOM     10  N   UNL     1       2.242   8.046  18.926  0.00  0.00    +0.000 N 
ATOM     11  C   UNL     1       1.759   9.346  18.786  0.00  0.00    +0.000 A 
ATOM     12  O   UNL     1       2.140  10.133  17.925  0.00  0.00    +0.000 OA
ATOM     13  C   UNL     1       0.851   9.753  19.849  0.00  0.00    +0.000 A 
ATOM     14  C   UNL     1      -0.683  12.458  21.849  0.00  0.00    +0.000 C 
ENDROOT
BRANCH   1  15
ATOM     15  N   UNL     1       1.165  13.859  20.819  0.00  0.00    +0.000 N 
ATOM     16  H   UNL     1       1.596  13.951  21.739  0.00  0.00    +0.000 HD
BRANCH  15  21
ATOM     17  C   UNL     1       3.517  15.218  18.253  0.00  0.00    +0.000 A 
ATOM     18  C   UNL     1       2.930  16.458  18.013  0.00  0.00    +0.000 A 
ATOM     19  C   UNL     1       1.797  16.846  18.723  0.00  0.00    +0.000 A 
ATOM     20  C   UNL     1       1.216  15.959  19.635  0.00  0.00    +0.000 A 
ATOM     21  C   UNL     1       1.764  14.687  19.871  0.00  0.00    +0.000 A 
ATOM     22  C   UNL     1       2.970  14.384  19.230  0.00  0.00    +0.000 A 
BRANCH  17  24
ATOM     23  C   UNL     1       5.908  15.161  18.064  0.00  0.00    +0.000 C 
ATOM     24  O   UNL     1       4.621  14.945  17.497  0.00  0.00    +0.000 OA
ENDBRANCH  17  24
ENDBRANCH  15  21
ENDBRANCH   1  15
BRANCH  10  25
ATOM     25  C   UNL     1       3.201   7.554  17.946  0.00  0.00    +0.000 C 
BRANCH  25  26
ATOM     26  C   UNL     1       3.158   6.064  17.638  0.00  0.00    +0.000 A 
ATOM     27  C   UNL     1       2.056   5.265  17.997  0.00  0.00    +0.000 A 
ATOM     28  C   UNL     1       2.056   3.894  17.750  0.00  0.00    +0.000 A 
ATOM     29  C   UNL     1       3.165   3.293  17.161  0.00  0.00    +0.000 A 
ATOM     30  C   UNL     1       4.282   4.053  16.792  0.00  0.00    +0.000 A 
ATOM     31  C   UNL     1       5.403   3.418  16.225  0.00  0.00    +0.000 A 
ATOM     32  C   UNL     1       6.517   4.146  15.830  0.00  0.00    +0.000 A 
ATOM     33  C   UNL     1       6.517   5.534  15.968  0.00  0.00    +0.000 A 
ATOM     34  C   UNL     1       5.420   6.168  16.539  0.00  0.00    +0.000 A 
ATOM     35  C   UNL     1       4.282   5.455  16.996  0.00  0.00    +0.000 A 
ENDBRANCH  25  26
ENDBRANCH  10  25
TORSDOF 5
ENDMDL
MODEL 4
REMARK VINA RESULT:      -8.6      1.494      2.672
REMARK  Name = 
REMARK  6 active torsions:
REMARK  status: ('A' for Active; 'I' for Inactive)
REMARK    1  A    between atoms: C_1  and  O_2
REMARK    2  A    between atoms: O_2  and  C_3
REMARK    3  A    between atoms: C_7  and  N_8
REMARK    4  A    between atoms: N_8  and  C_9
REMARK    5  A    between atoms: N_18  and  C_19
REMARK    6  A    between atoms: C_19  and  C_20
REMARK                            x       y       z     vdW  Elec       q    Type
REMARK                         _______ _______ _______ _____ _____    ______ ____
ROOT
ATOM      1  C   UNL     1      -0.800  13.394  19.598  0.00  0.00    +0.000 C 
ATOM      2  C   UNL     1      -1.459  12.620  18.440  0.00  0.00    +0.000 C 
ATOM      3  C   UNL     1      -0.935  11.189  18.229  0.00  0.00    +0.000 C 
ATOM      4  C   UNL     1      -0.282  10.599  19.444  0.00  0.00    +0.000 A 
ATOM      5  C   UNL     1      -0.390  11.186  20.689  0.00  0.00    +0.000 A 
ATOM      6  S   UNL     1       0.134  10.153  21.937  0.00  0.00    +0.000 S 
ATOM      7  C   UNL     1       0.849   9.081  20.807  0.00  0.00    +0.000 A 
ATOM      8  N   UNL     1       1.577   8.006  21.195  0.00  0.00    +0.000 NA
ATOM      9  C   UNL     1       2.161   7.383  20.222  0.00  0.00    +0.000 A 
ATOM     10  N   UNL     1       2.092   7.726  18.880  0.00  0.00    +0.000 N 
ATOM     11  C   UNL     1       1.429   8.881  18.470  0.00  0.00    +0.000 A 
ATOM     12  O   UNL     1       1.567   9.397  17.364  0.00  0.00    +0.000 OA
ATOM     13  C   UNL     1       0.652   9.521  19.522  0.00  0.00    +0.000 A 
ATOM     14  C   UNL     1      -0.888  12.578  20.918  0.00  0.00    +0.000 C 
ENDROOT
BRANCH   1  15
ATOM     15  N   UNL     1       0.581  13.738  19.206  0.00  0.00    +0.000 N 
ATOM     16  H   UNL     1       1.294  13.256  19.753  0.00  0.00    +0.000 HD
BRANCH  15  21
ATOM     17  C   UNL     1       0.514  17.360  18.287  0.00  0.00    +0.000 A 
ATOM     18  C   UNL     1       1.867  17.577  18.044  0.00  0.00    +0.000 A 
ATOM     19  C   UNL     1       2.775  16.527  18.146  0.00  0.00    +0.000 A 
ATOM     20  C   UNL     1       2.330  15.266  18.554  0.00  0.00    +0.000 A 
ATOM     21  C   UNL     1       0.976  15.025  18.841  0.00  0.00    +0.000 A 
ATOM     22  C   UNL     1       0.078  16.072  18.608  0.00  0.00    +0.000 A 
BRANCH  17  24
ATOM     23  C   UNL     1      -1.690  18.308  18.289  0.00  0.00    +0.000 C 
ATOM     24  O   UNL     1      -0.281  18.462  18.159  0.00  0.00    +0.000 OA
ENDBRANCH  17  24
ENDBRANCH  15  21
ENDBRANCH   1  15
BRANCH  10  25
ATOM     25  C   UNL     1       2.941   7.036  17.921  0.00  0.00    +0.000 C 
BRANCH  25  26
ATOM     26  C   UNL     1       3.677   5.802  18.424  0.00  0.00    +0.000 A 
ATOM     27  C   UNL     1       5.044   5.840  18.759  0.00  0.00    +0.000 A 
ATOM     28  C   UNL     1       5.712   4.690  19.173  0.00  0.00    +0.000 A 
ATOM     29  C   UNL     1       5.032   3.476  19.236  0.00  0.00    +0.000 A 
ATOM     30  C   UNL     1       3.673   3.396  18.909  0.00  0.00    +0.000 A 
ATOM     31  C   UNL     1       3.016   2.152  18.952  0.00  0.00    +0.000 A 
ATOM     32  C   UNL     1       1.665   2.043  18.653  0.00  0.00    +0.000 A 
ATOM     33  C   UNL     1       0.936   3.188  18.332  0.00  0.00    +0.000 A 
ATOM     34  C   UNL     1       1.580   4.419  18.273  0.00  0.00    +0.000 A 
ATOM     35  C   UNL     1       2.968   4.564  18.528  0.00  0.00    +0.000 A 
ENDBRANCH  25  26
ENDBRANCH  10  25
TORSDOF 5
ENDMDL
MODEL 5
REMARK VINA RESULT:      -8.4      3.224      5.013
REMARK  Name = 
REMARK  6 active torsions:
REMARK  status: ('A' for Active; 'I' for Inactive)
REMARK    1  A    between atoms: C_1  and  O_2
REMARK    2  A    between atoms: O_2  and  C_3
REMARK    3  A    between atoms: C_7  and  N_8
REMARK    4  A    between atoms: N_8  and  C_9
REMARK    5  A    between atoms: N_18  and  C_19
REMARK    6  A    between atoms: C_19  and  C_20
REMARK                            x       y       z     vdW  Elec       q    Type
REMARK                         _______ _______ _______ _____ _____    ______ ____
ROOT
ATOM      1  C   UNL     1      -2.676  13.569  21.345  0.00  0.00    +0.000 C 
ATOM      2  C   UNL     1      -1.890  13.202  22.617  0.00  0.00    +0.000 C 
ATOM      3  C   UNL     1      -0.805  12.128  22.428  0.00  0.00    +0.000 C 
ATOM      4  C   UNL     1      -0.331  11.991  21.010  0.00  0.00    +0.000 A 
ATOM      5  C   UNL     1      -0.647  12.922  20.041  0.00  0.00    +0.000 A 
ATOM      6  S   UNL     1       0.286  12.727  18.630  0.00  0.00    +0.000 S 
ATOM      7  C   UNL     1       0.838  11.192  19.156  0.00  0.00    +0.000 A 
ATOM      8  N   UNL     1       1.608  10.397  18.375  0.00  0.00    +0.000 NA
ATOM      9  C   UNL     1       1.819   9.217  18.866  0.00  0.00    +0.000 A 
ATOM     10  N   UNL     1       1.335   8.743  20.075  0.00  0.00    +0.000 N 
ATOM     11  C   UNL     1       0.464   9.508  20.848  0.00  0.00    +0.000 A 
ATOM     12  O   UNL     1      -0.220   9.056  21.762  0.00  0.00    +0.000 OA
ATOM     13  C   UNL     1       0.321  10.881  20.389  0.00  0.00    +0.000 A 
ATOM     14  C   UNL     1      -1.703  13.970  20.200  0.00  0.00    +0.000 C 
ENDROOT
BRANCH   1  15
ATOM     15  N   UNL     1      -3.563  12.440  21.000  0.00  0.00    +0.000 N 
ATOM     16  H   UNL     1      -3.202  11.532  21.290  0.00  0.00    +0.000 HD
BRANCH  15  21
ATOM     17  C   UNL     1      -4.621  11.545  17.529  0.00  0.00    +0.000 A 
ATOM     18  C   UNL     1      -5.766  12.328  17.411  0.00  0.00    +0.000 A 
ATOM     19  C   UNL     1      -6.153  13.166  18.453  0.00  0.00    +0.000 A 
ATOM     20  C   UNL     1      -5.419  13.171  19.644  0.00  0.00    +0.000 A 
ATOM     21  C   UNL     1      -4.280  12.366  19.806  0.00  0.00    +0.000 A 
ATOM     22  C   UNL     1      -3.854  11.632  18.693  0.00  0.00    +0.000 A 
BRANCH  17  24
ATOM     23  C   UNL     1      -3.170  11.039  15.687  0.00  0.00    +0.000 C 
ATOM     24  O   UNL     1      -4.341  10.763  16.446  0.00  0.00    +0.000 OA
ENDBRANCH  17  24
ENDBRANCH  15  21
ENDBRANCH   1  15
BRANCH  10  25
ATOM     25  C   UNL     1       1.512   7.338  20.413  0.00  0.00    +0.000 C 
BRANCH  25  26
ATOM     26  C   UNL     1       2.275   6.484  19.410  0.00  0.00    +0.000 A 
ATOM     27  C   UNL     1       3.219   7.043  18.528  0.00  0.00    +0.000 A 
ATOM     28  C   UNL     1       3.872   6.255  17.585  0.00  0.00    +0.000 A 
ATOM     29  C   UNL     1       3.576   4.898  17.488  0.00  0.00    +0.000 A 
ATOM     30  C   UNL     1       2.641   4.304  18.344  0.00  0.00    +0.000 A 
ATOM     31  C   UNL     1       2.337   2.936  18.207  0.00  0.00    +0.000 A 
ATOM     32  C   UNL     1       1.430   2.314  19.054  0.00  0.00    +0.000 A 
ATOM     33  C   UNL     1       0.829   3.046  20.078  0.00  0.00    +0.000 A 
ATOM     34  C   UNL     1       1.113   4.400  20.211  0.00  0.00    +0.000 A 
ATOM     35  C   UNL     1       1.999   5.082  19.339  0.00  0.00    +0.000 A 
ENDBRANCH  25  26
ENDBRANCH  10  25
TORSDOF 5
ENDMDL
MODEL 6
REMARK VINA RESULT:      -8.4      1.502      2.299
REMARK  Name = 
REMARK  6 active torsions:
REMARK  status: ('A' for Active; 'I' for Inactive)
REMARK    1  A    between atoms: C_1  and  O_2
REMARK    2  A    between atoms: O_2  and  C_3
REMARK    3  A    between atoms: C_7  and  N_8
REMARK    4  A    between atoms: N_8  and  C_9
REMARK    5  A    between atoms: N_18  and  C_19
REMARK    6  A    between atoms: C_19  and  C_20
REMARK                            x       y       z     vdW  Elec       q    Type
REMARK                         _______ _______ _______ _____ _____    ______ ____
ROOT
ATOM      1  C   UNL     1      -1.177  13.130  18.413  0.00  0.00    +0.000 C 
ATOM      2  C   UNL     1      -1.718  11.925  17.621  0.00  0.00    +0.000 C 
ATOM      3  C   UNL     1      -1.164  10.557  18.053  0.00  0.00    +0.000 C 
ATOM      4  C   UNL     1      -0.622  10.540  19.453  0.00  0.00    +0.000 A 
ATOM      5  C   UNL     1      -0.851  11.574  20.338  0.00  0.00    +0.000 A 
ATOM      6  S   UNL     1      -0.437  11.159  21.936  0.00  0.00    +0.000 S 
ATOM      7  C   UNL     1       0.390   9.755  21.403  0.00  0.00    +0.000 A 
ATOM      8  N   UNL     1       1.088   8.964  22.253  0.00  0.00    +0.000 NA
ATOM      9  C   UNL     1       1.766   8.029  21.668  0.00  0.00    +0.000 A 
ATOM     10  N   UNL     1       1.820   7.797  20.303  0.00  0.00    +0.000 N 
ATOM     11  C   UNL     1       1.188   8.655  19.405  0.00  0.00    +0.000 A 
ATOM     12  O   UNL     1       1.424   8.685  18.201  0.00  0.00    +0.000 OA
ATOM     13  C   UNL     1       0.311   9.629  20.039  0.00  0.00    +0.000 A 
ATOM     14  C   UNL     1      -1.381  12.915  19.939  0.00  0.00    +0.000 C 
ENDROOT
BRANCH   1  15
ATOM     15  N   UNL     1       0.231  13.350  18.029  0.00  0.00    +0.000 N 
ATOM     16  H   UNL     1       0.676  12.530  17.616  0.00  0.00    +0.000 HD
BRANCH  15  21
ATOM     17  C   UNL     1       2.001  16.231  19.620  0.00  0.00    +0.000 A 
ATOM     18  C   UNL     1       3.009  15.555  20.302  0.00  0.00    +0.000 A 
ATOM     19  C   UNL     1       3.118  14.171  20.199  0.00  0.00    +0.000 A 
ATOM     20  C   UNL     1       2.172  13.457  19.456  0.00  0.00    +0.000 A 
ATOM     21  C   UNL     1       1.123  14.108  18.787  0.00  0.00    +0.000 A 
ATOM     22  C   UNL     1       1.120  15.507  18.814  0.00  0.00    +0.000 A 
BRANCH  17  24
ATOM     23  C   UNL     1       0.769  18.290  19.612  0.00  0.00    +0.000 C 
ATOM     24  O   UNL     1       1.991  17.585  19.797  0.00  0.00    +0.000 OA
ENDBRANCH  17  24
ENDBRANCH  15  21
ENDBRANCH   1  15
BRANCH  10  25
ATOM     25  C   UNL     1       2.762   6.817  19.780  0.00  0.00    +0.000 C 
BRANCH  25  26
ATOM     26  C   UNL     1       2.275   5.378  19.700  0.00  0.00    +0.000 A 
ATOM     27  C   UNL     1       1.312   4.870  20.592  0.00  0.00    +0.000 A 
ATOM     28  C   UNL     1       0.914   3.537  20.534  0.00  0.00    +0.000 A 
ATOM     29  C   UNL     1       1.488   2.680  19.599  0.00  0.00    +0.000 A 
ATOM     30  C   UNL     1       2.451   3.145  18.695  0.00  0.00    +0.000 A 
ATOM     31  C   UNL     1       3.039   2.253  17.779  0.00  0.00    +0.000 A 
ATOM     32  C   UNL     1       3.982   2.688  16.857  0.00  0.00    +0.000 A 
ATOM     33  C   UNL     1       4.334   4.036  16.816  0.00  0.00    +0.000 A 
ATOM     34  C   UNL     1       3.769   4.922  17.726  0.00  0.00    +0.000 A 
ATOM     35  C   UNL     1       2.836   4.508  18.712  0.00  0.00    +0.000 A 
ENDBRANCH  25  26
ENDBRANCH  10  25
TORSDOF 5
ENDMDL
MODEL 7
REMARK VINA RESULT:      -8.3      3.379      5.663
REMARK  Name = 
REMARK  6 active torsions:
REMARK  status: ('A' for Active; 'I' for Inactive)
REMARK    1  A    between atoms: C_1  and  O_2
REMARK    2  A    between atoms: O_2  and  C_3
REMARK    3  A    between atoms: C_7  and  N_8
REMARK    4  A    between atoms: N_8  and  C_9
REMARK    5  A    between atoms: N_18  and  C_19
REMARK    6  A    between atoms: C_19  and  C_20
REMARK                            x       y       z     vdW  Elec       q    Type
REMARK                         _______ _______ _______ _____ _____    ______ ____
ROOT
ATOM      1  C   UNL     1      -2.913  13.610  21.883  0.00  0.00    +0.000 C 
ATOM      2  C   UNL     1      -1.897  13.382  23.018  0.00  0.00    +0.000 C 
ATOM      3  C   UNL     1      -0.791  12.358  22.709  0.00  0.00    +0.000 C 
ATOM      4  C   UNL     1      -0.560  12.143  21.242  0.00  0.00    +0.000 A 
ATOM      5  C   UNL     1      -1.100  12.981  20.287  0.00  0.00    +0.000 A 
ATOM      6  S   UNL     1      -0.412  12.734  18.749  0.00  0.00    +0.000 S 
ATOM      7  C   UNL     1       0.324  11.274  19.266  0.00  0.00    +0.000 A 
ATOM      8  N   UNL     1       1.000  10.467  18.413  0.00  0.00    +0.000 NA
ATOM      9  C   UNL     1       1.370   9.341  18.932  0.00  0.00    +0.000 A 
ATOM     10  N   UNL     1       1.135   8.931  20.235  0.00  0.00    +0.000 N 
ATOM     11  C   UNL     1       0.360   9.702  21.100  0.00  0.00    +0.000 A 
ATOM     12  O   UNL     1      -0.125   9.283  22.147  0.00  0.00    +0.000 OA
ATOM     13  C   UNL     1       0.048  11.028  20.587  0.00  0.00    +0.000 A 
ATOM     14  C   UNL     1      -2.181  13.978  20.562  0.00  0.00    +0.000 C 
ENDROOT
BRANCH   1  15
ATOM     15  N   UNL     1      -3.769  12.412  21.772  0.00  0.00    +0.000 N 
ATOM     16  H   UNL     1      -3.252  11.556  21.571  0.00  0.00    +0.000 HD
BRANCH  15  21
ATOM     17  C   UNL     1      -6.504  12.244  19.232  0.00  0.00    +0.000 A 
ATOM     18  C   UNL     1      -7.606  12.519  20.037  0.00  0.00    +0.000 A 
ATOM     19  C   UNL     1      -7.433  12.794  21.391  0.00  0.00    +0.000 A 
ATOM     20  C   UNL     1      -6.153  12.732  21.950  0.00  0.00    +0.000 A 
ATOM     21  C   UNL     1      -5.027  12.421  21.170  0.00  0.00    +0.000 A 
ATOM     22  C   UNL     1      -5.226  12.273  19.793  0.00  0.00    +0.000 A 
BRANCH  17  24
ATOM     23  C   UNL     1      -6.823  13.074  17.003  0.00  0.00    +0.000 C 
ATOM     24  O   UNL     1      -6.795  11.988  17.922  0.00  0.00    +0.000 OA
ENDBRANCH  17  24
ENDBRANCH  15  21
ENDBRANCH   1  15
BRANCH  10  25
ATOM     25  C   UNL     1       1.461   7.567  20.625  0.00  0.00    +0.000 C 
BRANCH  25  26
ATOM     26  C   UNL     1       2.187   6.716  19.593  0.00  0.00    +0.000 A 
ATOM     27  C   UNL     1       3.052   7.286  18.640  0.00  0.00    +0.000 A 
ATOM     28  C   UNL     1       3.670   6.498  17.672  0.00  0.00    +0.000 A 
ATOM     29  C   UNL     1       3.417   5.130  17.625  0.00  0.00    +0.000 A 
ATOM     30  C   UNL     1       2.561   4.525  18.553  0.00  0.00    +0.000 A 
ATOM     31  C   UNL     1       2.298   3.144  18.466  0.00  0.00    +0.000 A 
ATOM     32  C   UNL     1       1.470   2.512  19.383  0.00  0.00    +0.000 A 
ATOM     33  C   UNL     1       0.911   3.247  20.428  0.00  0.00    +0.000 A 
ATOM     34  C   UNL     1       1.154   4.613  20.514  0.00  0.00    +0.000 A 
ATOM     35  C   UNL     1       1.958   5.304  19.570  0.00  0.00    +0.000 A 
ENDBRANCH  25  26
ENDBRANCH  10  25
TORSDOF 5
ENDMDL
MODEL 8
REMARK VINA RESULT:      -8.3      1.609      2.396
REMARK  Name = 
REMARK  6 active torsions:
REMARK  status: ('A' for Active; 'I' for Inactive)
REMARK    1  A    between atoms: C_1  and  O_2
REMARK    2  A    between atoms: O_2  and  C_3
REMARK    3  A    between atoms: C_7  and  N_8
REMARK    4  A    between atoms: N_8  and  C_9
REMARK    5  A    between atoms: N_18  and  C_19
REMARK    6  A    between atoms: C_19  and  C_20
REMARK                            x       y       z     vdW  Elec       q    Type
REMARK                         _______ _______ _______ _____ _____    ______ ____
ROOT
ATOM      1  C   UNL     1      -0.279  13.587  20.023  0.00  0.00    +0.000 C 
ATOM      2  C   UNL     1      -0.937  13.015  18.753  0.00  0.00    +0.000 C 
ATOM      3  C   UNL     1      -0.533  11.573  18.400  0.00  0.00    +0.000 C 
ATOM      4  C   UNL     1      -0.008  10.790  19.568  0.00  0.00    +0.000 A 
ATOM      5  C   UNL     1      -0.134  11.241  20.866  0.00  0.00    +0.000 A 
ATOM      6  S   UNL     1       0.221  10.029  22.008  0.00  0.00    +0.000 S 
ATOM      7  C   UNL     1       0.900   9.026  20.795  0.00  0.00    +0.000 A 
ATOM      8  N   UNL     1       1.504   7.849  21.088  0.00  0.00    +0.000 NA
ATOM      9  C   UNL     1       2.085   7.287  20.077  0.00  0.00    +0.000 A 
ATOM     10  N   UNL     1       2.125   7.783  18.784  0.00  0.00    +0.000 N 
ATOM     11  C   UNL     1       1.594   9.035  18.480  0.00  0.00    +0.000 A 
ATOM     12  O   UNL     1       1.841   9.656  17.450  0.00  0.00    +0.000 OA
ATOM     13  C   UNL     1       0.819   9.624  19.563  0.00  0.00    +0.000 A 
ATOM     14  C   UNL     1      -0.517  12.640  21.233  0.00  0.00    +0.000 C 
ENDROOT
BRANCH   1  15
ATOM     15  N   UNL     1       1.148  13.838  19.739  0.00  0.00    +0.000 N 
ATOM     16  H   UNL     1       1.764  13.084  20.042  0.00  0.00    +0.000 HD
BRANCH  15  21
ATOM     17  C   UNL     1       3.535  16.696  19.420  0.00  0.00    +0.000 A 
ATOM     18  C   UNL     1       2.904  17.635  20.230  0.00  0.00    +0.000 A 
ATOM     19  C   UNL     1       1.728  17.306  20.899  0.00  0.00    +0.000 A 
ATOM     20  C   UNL     1       1.151  16.047  20.705  0.00  0.00    +0.000 A 
ATOM     21  C   UNL     1       1.746  15.091  19.866  0.00  0.00    +0.000 A 
ATOM     22  C   UNL     1       2.988  15.415  19.309  0.00  0.00    +0.000 A 
BRANCH  17  24
ATOM     23  C   UNL     1       5.806  17.442  19.622  0.00  0.00    +0.000 C 
ATOM     24  O   UNL     1       4.678  17.130  18.813  0.00  0.00    +0.000 OA
ENDBRANCH  17  24
ENDBRANCH  15  21
ENDBRANCH   1  15
BRANCH  10  25
ATOM     25  C   UNL     1       2.962   7.126  17.791  0.00  0.00    +0.000 C 
BRANCH  25  26
ATOM     26  C   UNL     1       3.753   5.912  18.260  0.00  0.00    +0.000 A 
ATOM     27  C   UNL     1       5.125   5.993  18.562  0.00  0.00    +0.000 A 
ATOM     28  C   UNL     1       5.842   4.862  18.943  0.00  0.00    +0.000 A 
ATOM     29  C   UNL     1       5.207   3.625  19.007  0.00  0.00    +0.000 A 
ATOM     30  C   UNL     1       3.844   3.501  18.712  0.00  0.00    +0.000 A 
ATOM     31  C   UNL     1       3.231   2.235  18.755  0.00  0.00    +0.000 A 
ATOM     32  C   UNL     1       1.877   2.083  18.488  0.00  0.00    +0.000 A 
ATOM     33  C   UNL     1       1.102   3.205  18.200  0.00  0.00    +0.000 A 
ATOM     34  C   UNL     1       1.701   4.458  18.142  0.00  0.00    +0.000 A 
ATOM     35  C   UNL     1       3.090   4.649  18.364  0.00  0.00    +0.000 A 
ENDBRANCH  25  26
ENDBRANCH  10  25
TORSDOF 5
ENDMDL
MODEL 9
REMARK VINA RESULT:      -8.3      1.419      2.316
REMARK  Name = 
REMARK  6 active torsions:
REMARK  status: ('A' for Active; 'I' for Inactive)
REMARK    1  A    between atoms: C_1  and  O_2
REMARK    2  A    between atoms: O_2  and  C_3
REMARK    3  A    between atoms: C_7  and  N_8
REMARK    4  A    between atoms: N_8  and  C_9
REMARK    5  A    between atoms: N_18  and  C_19
REMARK    6  A    between atoms: C_19  and  C_20
REMARK                            x       y       z     vdW  Elec       q    Type
REMARK                         _______ _______ _______ _____ _____    ______ ____
ROOT
ATOM      1  C   UNL     1      -1.295  13.183  19.726  0.00  0.00    +0.000 C 
ATOM      2  C   UNL     1      -1.813  12.426  18.488  0.00  0.00    +0.000 C 
ATOM      3  C   UNL     1      -1.134  11.072  18.220  0.00  0.00    +0.000 C 
ATOM      4  C   UNL     1      -0.485  10.470  19.432  0.00  0.00    +0.000 A 
ATOM      5  C   UNL     1      -0.715  10.960  20.702  0.00  0.00    +0.000 A 
ATOM      6  S   UNL     1      -0.150   9.903  21.912  0.00  0.00    +0.000 S 
ATOM      7  C   UNL     1       0.726   8.985  20.761  0.00  0.00    +0.000 A 
ATOM      8  N   UNL     1       1.541   7.964  21.123  0.00  0.00    +0.000 NA
ATOM      9  C   UNL     1       2.234   7.469  20.148  0.00  0.00    +0.000 A 
ATOM     10  N   UNL     1       2.196   7.892  18.828  0.00  0.00    +0.000 N 
ATOM     11  C   UNL     1       1.439   9.000  18.452  0.00  0.00    +0.000 A 
ATOM     12  O   UNL     1       1.578   9.599  17.389  0.00  0.00    +0.000 OA
ATOM     13  C   UNL     1       0.550   9.487  19.496  0.00  0.00    +0.000 A 
ATOM     14  C   UNL     1      -1.365  12.277  20.987  0.00  0.00    +0.000 C 
ENDROOT
BRANCH   1  15
ATOM     15  N   UNL     1       0.061  13.688  19.434  0.00  0.00    +0.000 N 
ATOM     16  H   UNL     1       0.802  13.027  19.664  0.00  0.00    +0.000 HD
BRANCH  15  21
ATOM     17  C   UNL     1       1.369  17.148  18.900  0.00  0.00    +0.000 A 
ATOM     18  C   UNL     1       1.258  17.655  20.191  0.00  0.00    +0.000 A 
ATOM     19  C   UNL     1       0.794  16.846  21.224  0.00  0.00    +0.000 A 
ATOM     20  C   UNL     1       0.382  15.539  20.946  0.00  0.00    +0.000 A 
ATOM     21  C   UNL     1       0.448  15.011  19.647  0.00  0.00    +0.000 A 
ATOM     22  C   UNL     1       1.035  15.813  18.661  0.00  0.00    +0.000 A 
BRANCH  17  24
ATOM     23  C   UNL     1       1.019  18.329  16.841  0.00  0.00    +0.000 C 
ATOM     24  O   UNL     1       1.834  18.032  17.968  0.00  0.00    +0.000 OA
ENDBRANCH  17  24
ENDBRANCH  15  21
ENDBRANCH   1  15
BRANCH  10  25
ATOM     25  C   UNL     1       3.159   7.354  17.877  0.00  0.00    +0.000 C 
BRANCH  25  26
ATOM     26  C   UNL     1       3.910   6.100  18.301  0.00  0.00    +0.000 A 
ATOM     27  C   UNL     1       5.259   6.143  18.701  0.00  0.00    +0.000 A 
ATOM     28  C   UNL     1       5.943   4.978  19.039  0.00  0.00    +0.000 A 
ATOM     29  C   UNL     1       5.299   3.746  18.962  0.00  0.00    +0.000 A 
ATOM     30  C   UNL     1       3.958   3.660  18.566  0.00  0.00    +0.000 A 
ATOM     31  C   UNL     1       3.338   2.400  18.466  0.00  0.00    +0.000 A 
ATOM     32  C   UNL     1       2.005   2.284  18.096  0.00  0.00    +0.000 A 
ATOM     33  C   UNL     1       1.256   3.433  17.846  0.00  0.00    +0.000 A 
ATOM     34  C   UNL     1       1.864   4.681  17.929  0.00  0.00    +0.000 A 
ATOM     35  C   UNL     1       3.235   4.839  18.260  0.00  0.00    +0.000 A 
ENDBRANCH  25  26
ENDBRANCH  10  25
TORSDOF 5
ENDMDL
