MODEL 1
REMARK VINA RESULT:      -6.0      0.000      0.000
REMARK  Name = 
REMARK  3 active torsions:
REMARK  status: ('A' for Active; 'I' for Inactive)
REMARK    1  A    between atoms: N_1  and  C_2
REMARK    2  A    between atoms: C_2  and  C_3
REMARK    3  A    between atoms: C_6  and  O_7
REMARK                            x       y       z     vdW  Elec       q    Type
REMARK                         _______ _______ _______ _____ _____    ______ ____
ROOT
ATOM      1  C   UNL     1       3.350   6.466  17.830  0.00  0.00    +0.000 A 
ATOM      2  C   UNL     1       4.570   6.821  17.223  0.00  0.00    +0.000 A 
ATOM      3  C   UNL     1       5.424   5.852  16.705  0.00  0.00    +0.000 A 
ATOM      4  C   UNL     1       5.060   4.513  16.779  0.00  0.00    +0.000 A 
ATOM      5  C   UNL     1       3.837   4.111  17.348  0.00  0.00    +0.000 A 
ATOM      6  C   UNL     1       3.471   2.749  17.407  0.00  0.00    +0.000 A 
ATOM      7  C   UNL     1       2.260   2.341  17.959  0.00  0.00    +0.000 A 
ATOM      8  C   UNL     1       1.387   3.291  18.463  0.00  0.00    +0.000 A 
ATOM      9  C   UNL     1       1.729   4.647  18.422  0.00  0.00    +0.000 A 
ATOM     10  C   UNL     1       2.957   5.095  17.875  0.00  0.00    +0.000 A 
ENDROOT
BRANCH   4  11
ATOM     11  O   UNL     1       5.914   3.560  16.280  0.00  0.00    +0.000 OA
ATOM     12  H   UNL     1       5.392   2.793  15.995  0.00  0.00    +0.000 HD
ENDBRANCH   4  11
BRANCH   1  13
ATOM     13  C   UNL     1       2.511   7.586  18.407  0.00  0.00    +0.000 C 
BRANCH  13  14
ATOM     14  N   UNL     1       2.351   8.687  17.467  0.00  0.00    +0.000 NA
ATOM     15  H   UNL     1       1.974   8.329  16.591  0.00  0.00    +0.000 HD
ATOM     16  H   UNL     1       3.269   9.074  17.250  0.00  0.00    +0.000 HD
ENDBRANCH  13  14
ENDBRANCH   1  13
TORSDOF 3
ENDMDL
MODEL 2
REMARK VINA RESULT:      -6.0      2.198      3.553
REMARK  Name = 
REMARK  3 active torsions:
REMARK  status: ('A' for Active; 'I' for Inactive)
REMARK    1  A    between atoms: N_1  and  C_2
REMARK    2  A    between atoms: C_2  and  C_3
REMARK    3  A    between atoms: C_6  and  O_7
REMARK                            x       y       z     vdW  Elec       q    Type
REMARK                         _______ _______ _______ _____ _____    ______ ____
ROOT
ATOM      1  C   UNL     1       2.183   5.758  19.668  0.00  0.00    +0.000 A 
ATOM      2  C   UNL     1       1.355   4.953  20.474  0.00  0.00    +0.000 A 
ATOM      3  C   UNL     1       1.250   3.583  20.255  0.00  0.00    +0.000 A 
ATOM      4  C   UNL     1       1.984   2.999  19.229  0.00  0.00    +0.000 A 
ATOM      5  C   UNL     1       2.849   3.756  18.417  0.00  0.00    +0.000 A 
ATOM      6  C   UNL     1       3.598   3.150  17.386  0.00  0.00    +0.000 A 
ATOM      7  C   UNL     1       4.464   3.888  16.582  0.00  0.00    +0.000 A 
ATOM      8  C   UNL     1       4.598   5.250  16.796  0.00  0.00    +0.000 A 
ATOM      9  C   UNL     1       3.860   5.874  17.808  0.00  0.00    +0.000 A 
ATOM     10  C   UNL     1       2.966   5.155  18.638  0.00  0.00    +0.000 A 
ENDROOT
BRANCH   4  11
ATOM     11  O   UNL     1       1.865   1.649  19.008  0.00  0.00    +0.000 OA
ATOM     12  H   UNL     1       2.499   1.183  19.576  0.00  0.00    +0.000 HD
ENDBRANCH   4  11
BRANCH   1  13
ATOM     13  C   UNL     1       2.195   7.245  19.953  0.00  0.00    +0.000 C 
BRANCH  13  14
ATOM     14  N   UNL     1       1.547   7.563  21.218  0.00  0.00    +0.000 NA
ATOM     15  H   UNL     1       2.210   8.044  21.823  0.00  0.00    +0.000 HD
ATOM     16  H   UNL     1       1.301   6.694  21.692  0.00  0.00    +0.000 HD
ENDBRANCH  13  14
ENDBRANCH   1  13
TORSDOF 3
ENDMDL
MODEL 3
REMARK VINA RESULT:      -5.9      2.464      3.409
REMARK  Name = 
REMARK  3 active torsions:
REMARK  status: ('A' for Active; 'I' for Inactive)
REMARK    1  A    between atoms: N_1  and  C_2
REMARK    2  A    between atoms: C_2  and  C_3
REMARK    3  A    between atoms: C_6  and  O_7
REMARK                            x       y       z     vdW  Elec       q    Type
REMARK                         _______ _______ _______ _____ _____    ______ ____
ROOT
ATOM      1  C   UNL     1       5.036   4.834  16.630  0.00  0.00    +0.000 A 
ATOM      2  C   UNL     1       5.250   6.223  16.724  0.00  0.00    +0.000 A 
ATOM      3  C   UNL     1       4.326   7.052  17.353  0.00  0.00    +0.000 A 
ATOM      4  C   UNL     1       3.178   6.497  17.907  0.00  0.00    +0.000 A 
ATOM      5  C   UNL     1       2.935   5.111  17.867  0.00  0.00    +0.000 A 
ATOM      6  C   UNL     1       1.772   4.556  18.442  0.00  0.00    +0.000 A 
ATOM      7  C   UNL     1       1.526   3.186  18.416  0.00  0.00    +0.000 A 
ATOM      8  C   UNL     1       2.443   2.341  17.812  0.00  0.00    +0.000 A 
ATOM      9  C   UNL     1       3.600   2.868  17.228  0.00  0.00    +0.000 A 
ATOM     10  C   UNL     1       3.877   4.257  17.230  0.00  0.00    +0.000 A 
ENDROOT
BRANCH   4  11
ATOM     11  O   UNL     1       2.263   7.322  18.513  0.00  0.00    +0.000 OA
ATOM     12  H   UNL     1       1.371   6.990  18.324  0.00  0.00    +0.000 HD
ENDBRANCH   4  11
BRANCH   1  13
ATOM     13  C   UNL     1       6.074   4.021  15.886  0.00  0.00    +0.000 C 
BRANCH  13  14
ATOM     14  N   UNL     1       7.365   4.693  15.843  0.00  0.00    +0.000 NA
ATOM     15  H   UNL     1       7.931   4.287  15.100  0.00  0.00    +0.000 HD
ATOM     16  H   UNL     1       7.862   4.513  16.716  0.00  0.00    +0.000 HD
ENDBRANCH  13  14
ENDBRANCH   1  13
TORSDOF 3
ENDMDL
MODEL 4
REMARK VINA RESULT:      -5.9      2.964      4.711
REMARK  Name = 
REMARK  3 active torsions:
REMARK  status: ('A' for Active; 'I' for Inactive)
REMARK    1  A    between atoms: N_1  and  C_2
REMARK    2  A    between atoms: C_2  and  C_3
REMARK    3  A    between atoms: C_6  and  O_7
REMARK                            x       y       z     vdW  Elec       q    Type
REMARK                         _______ _______ _______ _____ _____    ______ ____
ROOT
ATOM      1  C   UNL     1       2.911   3.204  18.422  0.00  0.00    +0.000 A 
ATOM      2  C   UNL     1       2.083   3.439  19.536  0.00  0.00    +0.000 A 
ATOM      3  C   UNL     1       1.944   4.714  20.074  0.00  0.00    +0.000 A 
ATOM      4  C   UNL     1       2.628   5.776  19.494  0.00  0.00    +0.000 A 
ATOM      5  C   UNL     1       3.443   5.598  18.359  0.00  0.00    +0.000 A 
ATOM      6  C   UNL     1       4.123   6.686  17.771  0.00  0.00    +0.000 A 
ATOM      7  C   UNL     1       4.925   6.522  16.644  0.00  0.00    +0.000 A 
ATOM      8  C   UNL     1       5.060   5.263  16.081  0.00  0.00    +0.000 A 
ATOM      9  C   UNL     1       4.401   4.169  16.651  0.00  0.00    +0.000 A 
ATOM     10  C   UNL     1       3.585   4.299  17.801  0.00  0.00    +0.000 A 
ENDROOT
BRANCH   4  11
ATOM     11  O   UNL     1       2.500   7.031  20.038  0.00  0.00    +0.000 OA
ATOM     12  H   UNL     1       2.750   6.991  20.975  0.00  0.00    +0.000 HD
ENDBRANCH   4  11
BRANCH   1  13
ATOM     13  C   UNL     1       3.035   1.775  17.937  0.00  0.00    +0.000 C 
BRANCH  13  14
ATOM     14  N   UNL     1       4.149   1.080  18.567  0.00  0.00    +0.000 NA
ATOM     15  H   UNL     1       4.711   0.628  17.849  0.00  0.00    +0.000 HD
ATOM     16  H   UNL     1       3.783   0.336  19.160  0.00  0.00    +0.000 HD
ENDBRANCH  13  14
ENDBRANCH   1  13
TORSDOF 3
ENDMDL
MODEL 5
REMARK VINA RESULT:      -5.9      2.960      4.469
REMARK  Name = 
REMARK  3 active torsions:
REMARK  status: ('A' for Active; 'I' for Inactive)
REMARK    1  A    between atoms: N_1  and  C_2
REMARK    2  A    between atoms: C_2  and  C_3
REMARK    3  A    between atoms: C_6  and  O_7
REMARK                            x       y       z     vdW  Elec       q    Type
REMARK                         _______ _______ _______ _____ _____    ______ ____
ROOT
ATOM      1  C   UNL     1       6.461   5.277  18.481  0.00  0.00    +0.000 A 
ATOM      2  C   UNL     1       5.416   5.023  19.390  0.00  0.00    +0.000 A 
ATOM      3  C   UNL     1       4.198   4.507  18.960  0.00  0.00    +0.000 A 
ATOM      4  C   UNL     1       4.015   4.227  17.610  0.00  0.00    +0.000 A 
ATOM      5  C   UNL     1       5.040   4.433  16.668  0.00  0.00    +0.000 A 
ATOM      6  C   UNL     1       4.847   4.134  15.302  0.00  0.00    +0.000 A 
ATOM      7  C   UNL     1       5.857   4.326  14.363  0.00  0.00    +0.000 A 
ATOM      8  C   UNL     1       7.085   4.821  14.774  0.00  0.00    +0.000 A 
ATOM      9  C   UNL     1       7.298   5.131  16.122  0.00  0.00    +0.000 A 
ATOM     10  C   UNL     1       6.289   4.956  17.101  0.00  0.00    +0.000 A 
ENDROOT
BRANCH   4  11
ATOM     11  O   UNL     1       2.805   3.732  17.189  0.00  0.00    +0.000 OA
ATOM     12  H   UNL     1       2.961   2.929  16.667  0.00  0.00    +0.000 HD
ENDBRANCH   4  11
BRANCH   1  13
ATOM     13  C   UNL     1       7.733   5.883  19.036  0.00  0.00    +0.000 C 
BRANCH  13  14
ATOM     14  N   UNL     1       8.018   5.411  20.385  0.00  0.00    +0.000 NA
ATOM     15  H   UNL     1       7.273   4.786  20.686  0.00  0.00    +0.000 HD
ATOM     16  H   UNL     1       8.004   6.206  21.023  0.00  0.00    +0.000 HD
ENDBRANCH  13  14
ENDBRANCH   1  13
TORSDOF 3
ENDMDL
MODEL 6
REMARK VINA RESULT:      -5.9      2.847      3.712
REMARK  Name = 
REMARK  3 active torsions:
REMARK  status: ('A' for Active; 'I' for Inactive)
REMARK    1  A    between atoms: N_1  and  C_2
REMARK    2  A    between atoms: C_2  and  C_3
REMARK    3  A    between atoms: C_6  and  O_7
REMARK                            x       y       z     vdW  Elec       q    Type
REMARK                         _______ _______ _______ _____ _____    ______ ____
ROOT
ATOM      1  C   UNL     1       3.627   4.737  17.618  0.00  0.00    +0.000 A 
ATOM      2  C   UNL     1       3.907   6.117  17.601  0.00  0.00    +0.000 A 
ATOM      3  C   UNL     1       3.340   6.978  18.536  0.00  0.00    +0.000 A 
ATOM      4  C   UNL     1       2.492   6.463  19.509  0.00  0.00    +0.000 A 
ATOM      5  C   UNL     1       2.206   5.087  19.587  0.00  0.00    +0.000 A 
ATOM      6  C   UNL     1       1.353   4.573  20.587  0.00  0.00    +0.000 A 
ATOM      7  C   UNL     1       1.071   3.213  20.678  0.00  0.00    +0.000 A 
ATOM      8  C   UNL     1       1.640   2.336  19.769  0.00  0.00    +0.000 A 
ATOM      9  C   UNL     1       2.485   2.822  18.764  0.00  0.00    +0.000 A 
ATOM     10  C   UNL     1       2.786   4.201  18.638  0.00  0.00    +0.000 A 
ENDROOT
BRANCH   4  11
ATOM     11  O   UNL     1       1.923   7.319  20.420  0.00  0.00    +0.000 OA
ATOM     12  H   UNL     1       1.188   7.787  19.993  0.00  0.00    +0.000 HD
ENDBRANCH   4  11
BRANCH   1  13
ATOM     13  C   UNL     1       4.253   3.889  16.531  0.00  0.00    +0.000 C 
BRANCH  13  14
ATOM     14  N   UNL     1       5.683   3.704  16.740  0.00  0.00    +0.000 NA
ATOM     15  H   UNL     1       5.830   3.145  17.578  0.00  0.00    +0.000 HD
ATOM     16  H   UNL     1       6.111   4.612  16.918  0.00  0.00    +0.000 HD
ENDBRANCH  13  14
ENDBRANCH   1  13
TORSDOF 3
ENDMDL
MODEL 7
REMARK VINA RESULT:      -5.9      1.749      3.346
REMARK  Name = 
REMARK  3 active torsions:
REMARK  status: ('A' for Active; 'I' for Inactive)
REMARK    1  A    between atoms: N_1  and  C_2
REMARK    2  A    between atoms: C_2  and  C_3
REMARK    3  A    between atoms: C_6  and  O_7
REMARK                            x       y       z     vdW  Elec       q    Type
REMARK                         _______ _______ _______ _____ _____    ______ ____
ROOT
ATOM      1  C   UNL     1       2.482   5.770  19.059  0.00  0.00    +0.000 A 
ATOM      2  C   UNL     1       1.695   4.761  19.647  0.00  0.00    +0.000 A 
ATOM      3  C   UNL     1       1.764   3.445  19.203  0.00  0.00    +0.000 A 
ATOM      4  C   UNL     1       2.633   3.119  18.169  0.00  0.00    +0.000 A 
ATOM      5  C   UNL     1       3.464   4.086  17.570  0.00  0.00    +0.000 A 
ATOM      6  C   UNL     1       4.351   3.742  16.528  0.00  0.00    +0.000 A 
ATOM      7  C   UNL     1       5.183   4.688  15.936  0.00  0.00    +0.000 A 
ATOM      8  C   UNL     1       5.144   6.001  16.377  0.00  0.00    +0.000 A 
ATOM      9  C   UNL     1       4.267   6.368  17.404  0.00  0.00    +0.000 A 
ATOM     10  C   UNL     1       3.402   5.432  18.022  0.00  0.00    +0.000 A 
ENDROOT
BRANCH   4  11
ATOM     11  O   UNL     1       2.686   1.821  17.724  0.00  0.00    +0.000 OA
ATOM     12  H   UNL     1       1.929   1.661  17.138  0.00  0.00    +0.000 HD
ENDBRANCH   4  11
BRANCH   1  13
ATOM     13  C   UNL     1       2.303   7.181  19.578  0.00  0.00    +0.000 C 
BRANCH  13  14
ATOM     14  N   UNL     1       1.836   7.199  20.958  0.00  0.00    +0.000 NA
ATOM     15  H   UNL     1       1.636   8.159  21.232  0.00  0.00    +0.000 HD
ATOM     16  H   UNL     1       2.587   6.875  21.566  0.00  0.00    +0.000 HD
ENDBRANCH  13  14
ENDBRANCH   1  13
TORSDOF 3
ENDMDL
MODEL 8
REMARK VINA RESULT:      -5.8      2.886      3.731
REMARK  Name = 
REMARK  3 active torsions:
REMARK  status: ('A' for Active; 'I' for Inactive)
REMARK    1  A    between atoms: N_1  and  C_2
REMARK    2  A    between atoms: C_2  and  C_3
REMARK    3  A    between atoms: C_6  and  O_7
REMARK                            x       y       z     vdW  Elec       q    Type
REMARK                         _______ _______ _______ _____ _____    ______ ____
ROOT
ATOM      1  C   UNL     1       5.785   4.569  16.170  0.00  0.00    +0.000 A 
ATOM      2  C   UNL     1       7.160   4.690  16.446  0.00  0.00    +0.000 A 
ATOM      3  C   UNL     1       7.615   4.960  17.732  0.00  0.00    +0.000 A 
ATOM      4  C   UNL     1       6.695   5.102  18.765  0.00  0.00    +0.000 A 
ATOM      5  C   UNL     1       5.312   4.958  18.546  0.00  0.00    +0.000 A 
ATOM      6  C   UNL     1       4.387   5.093  19.603  0.00  0.00    +0.000 A 
ATOM      7  C   UNL     1       3.018   4.944  19.399  0.00  0.00    +0.000 A 
ATOM      8  C   UNL     1       2.546   4.656  18.129  0.00  0.00    +0.000 A 
ATOM      9  C   UNL     1       3.442   4.525  17.063  0.00  0.00    +0.000 A 
ATOM     10  C   UNL     1       4.840   4.677  17.234  0.00  0.00    +0.000 A 
ENDROOT
BRANCH   4  11
ATOM     11  O   UNL     1       7.149   5.383  20.030  0.00  0.00    +0.000 OA
ATOM     12  H   UNL     1       7.914   4.817  20.220  0.00  0.00    +0.000 HD
ENDBRANCH   4  11
BRANCH   1  13
ATOM     13  C   UNL     1       5.384   4.322  14.731  0.00  0.00    +0.000 C 
BRANCH  13  14
ATOM     14  N   UNL     1       6.366   3.511  14.024  0.00  0.00    +0.000 NA
ATOM     15  H   UNL     1       6.230   2.532  14.266  0.00  0.00    +0.000 HD
ATOM     16  H   UNL     1       7.299   3.763  14.349  0.00  0.00    +0.000 HD
ENDBRANCH  13  14
ENDBRANCH   1  13
TORSDOF 3
ENDMDL
MODEL 9
REMARK VINA RESULT:      -5.8      2.830      3.906
REMARK  Name = 
REMARK  3 active torsions:
REMARK  status: ('A' for Active; 'I' for Inactive)
REMARK    1  A    between atoms: N_1  and  C_2
REMARK    2  A    between atoms: C_2  and  C_3
REMARK    3  A    between atoms: C_6  and  O_7
REMARK                            x       y       z     vdW  Elec       q    Type
REMARK                         _______ _______ _______ _____ _____    ______ ____
ROOT
ATOM      1  C   UNL     1       3.432   3.218  17.907  0.00  0.00    +0.000 A 
ATOM      2  C   UNL     1       4.342   3.638  16.918  0.00  0.00    +0.000 A 
ATOM      3  C   UNL     1       4.658   4.983  16.756  0.00  0.00    +0.000 A 
ATOM      4  C   UNL     1       4.073   5.926  17.594  0.00  0.00    +0.000 A 
ATOM      5  C   UNL     1       3.182   5.552  18.617  0.00  0.00    +0.000 A 
ATOM      6  C   UNL     1       2.603   6.517  19.469  0.00  0.00    +0.000 A 
ATOM      7  C   UNL     1       1.727   6.157  20.490  0.00  0.00    +0.000 A 
ATOM      8  C   UNL     1       1.414   4.821  20.680  0.00  0.00    +0.000 A 
ATOM      9  C   UNL     1       1.970   3.847  19.844  0.00  0.00    +0.000 A 
ATOM     10  C   UNL     1       2.858   4.179  18.792  0.00  0.00    +0.000 A 
ENDROOT
BRANCH   4  11
ATOM     11  O   UNL     1       4.378   7.254  17.420  0.00  0.00    +0.000 OA
ATOM     12  H   UNL     1       4.475   7.668  18.292  0.00  0.00    +0.000 HD
ENDBRANCH   4  11
BRANCH   1  13
ATOM     13  C   UNL     1       3.115   1.739  17.975  0.00  0.00    +0.000 C 
BRANCH  13  14
ATOM     14  N   UNL     1       4.233   0.965  18.495  0.00  0.00    +0.000 NA
ATOM     15  H   UNL     1       4.900   0.793  17.746  0.00  0.00    +0.000 HD
ATOM     16  H   UNL     1       3.893   0.051  18.795  0.00  0.00    +0.000 HD
ENDBRANCH  13  14
ENDBRANCH   1  13
TORSDOF 3
ENDMDL
