MODEL 1
REMARK VINA RESULT:      -8.7      0.000      0.000
REMARK  Name = 
REMARK  4 active torsions:
REMARK  status: ('A' for Active; 'I' for Inactive)
REMARK    1  A    between atoms: C_1  and  C_2
REMARK    2  A    between atoms: C_6  and  C_7
REMARK    3  A    between atoms: C_13  and  C_14
REMARK    4  A    between atoms: N_16  and  C_17
REMARK                            x       y       z     vdW  Elec       q    Type
REMARK                         _______ _______ _______ _____ _____    ______ ____
ROOT
ATOM      1  C   UNL     1       4.095   4.466  18.739  0.00  0.00    +0.000 A 
ATOM      2  C   UNL     1       3.957   3.390  19.542  0.00  0.00    +0.000 A 
ATOM      3  C   UNL     1       2.930   3.396  20.572  0.00  0.00    +0.000 A 
ATOM      4  C   UNL     1       2.135   4.466  20.772  0.00  0.00    +0.000 A 
ATOM      5  C   UNL     1       2.286   5.618  19.947  0.00  0.00    +0.000 A 
ATOM      6  C   UNL     1       1.693   6.863  19.918  0.00  0.00    +0.000 A 
ATOM      7  C   UNL     1       2.255   7.607  18.832  0.00  0.00    +0.000 A 
ATOM      8  C   UNL     1       3.171   6.756  18.229  0.00  0.00    +0.000 A 
ATOM      9  N   UNL     1       3.238   5.568  18.937  0.00  0.00    +0.000 N 
ENDROOT
BRANCH   1  15
ATOM     10  C   UNL     1       5.470   3.968  13.961  0.00  0.00    +0.000 C 
ATOM     11  C   UNL     1       5.832   4.226  15.395  0.00  0.00    +0.000 A 
ATOM     12  C   UNL     1       7.160   4.448  15.774  0.00  0.00    +0.000 A 
ATOM     13  C   UNL     1       7.486   4.679  17.112  0.00  0.00    +0.000 A 
ATOM     14  C   UNL     1       6.485   4.693  18.084  0.00  0.00    +0.000 A 
ATOM     15  C   UNL     1       5.154   4.472  17.722  0.00  0.00    +0.000 A 
ATOM     16  C   UNL     1       4.832   4.240  16.375  0.00  0.00    +0.000 A 
ENDBRANCH   1  15
BRANCH   7  17
ATOM     17  C   UNL     1       1.903   8.980  18.450  0.00  0.00    +0.000 C 
ATOM     18  O   UNL     1       2.271   9.464  17.386  0.00  0.00    +0.000 OA
ATOM     19  N   UNL     1       1.133   9.678  19.361  0.00  0.00    +0.000 N 
ATOM     20  H   UNL     1       0.730   9.165  20.129  0.00  0.00    +0.000 HD
BRANCH  19  21
ATOM     21  C   UNL     1       0.642  11.026  19.087  0.00  0.00    +0.000 C 
ATOM     22  C   UNL     1      -0.892  11.073  18.845  0.00  0.00    +0.000 C 
ATOM     23  N   UNL     1      -1.570  12.077  19.711  0.00  0.00    +0.000 NA
ATOM     24  C   UNL     1      -1.349  11.709  21.125  0.00  0.00    +0.000 C 
ATOM     25  C   UNL     1       0.145  11.673  21.478  0.00  0.00    +0.000 C 
ATOM     26  C   UNL     1       0.982  12.010  20.229  0.00  0.00    +0.000 C 
ATOM     27  C   UNL     1       0.543  13.412  19.762  0.00  0.00    +0.000 C 
ATOM     28  C   UNL     1      -0.967  13.407  19.470  0.00  0.00    +0.000 C 
ENDBRANCH  19  21
ENDBRANCH   7  17
TORSDOF 3
ENDMDL
MODEL 2
REMARK VINA RESULT:      -8.5      1.450      1.877
REMARK  Name = 
REMARK  4 active torsions:
REMARK  status: ('A' for Active; 'I' for Inactive)
REMARK    1  A    between atoms: C_1  and  C_2
REMARK    2  A    between atoms: C_6  and  C_7
REMARK    3  A    between atoms: C_13  and  C_14
REMARK    4  A    between atoms: N_16  and  C_17
REMARK                            x       y       z     vdW  Elec       q    Type
REMARK                         _______ _______ _______ _____ _____    ______ ____
ROOT
ATOM      1  C   UNL     1       3.533   3.729  18.491  0.00  0.00    +0.000 A 
ATOM      2  C   UNL     1       3.195   2.423  18.478  0.00  0.00    +0.000 A 
ATOM      3  C   UNL     1       1.990   1.991  19.171  0.00  0.00    +0.000 A 
ATOM      4  C   UNL     1       1.221   2.858  19.859  0.00  0.00    +0.000 A 
ATOM      5  C   UNL     1       1.580   4.237  19.901  0.00  0.00    +0.000 A 
ATOM      6  C   UNL     1       1.061   5.345  20.535  0.00  0.00    +0.000 A 
ATOM      7  C   UNL     1       1.854   6.483  20.181  0.00  0.00    +0.000 A 
ATOM      8  C   UNL     1       2.829   6.005  19.317  0.00  0.00    +0.000 A 
ATOM      9  N   UNL     1       2.705   4.632  19.188  0.00  0.00    +0.000 N 
ENDROOT
BRANCH   1  15
ATOM     10  C   UNL     1       6.129   4.381  14.271  0.00  0.00    +0.000 C 
ATOM     11  C   UNL     1       6.040   4.474  15.767  0.00  0.00    +0.000 A 
ATOM     12  C   UNL     1       7.118   4.940  16.525  0.00  0.00    +0.000 A 
ATOM     13  C   UNL     1       7.026   5.016  17.916  0.00  0.00    +0.000 A 
ATOM     14  C   UNL     1       5.853   4.626  18.563  0.00  0.00    +0.000 A 
ATOM     15  C   UNL     1       4.766   4.157  17.820  0.00  0.00    +0.000 A 
ATOM     16  C   UNL     1       4.865   4.085  16.421  0.00  0.00    +0.000 A 
ENDBRANCH   1  15
BRANCH   7  17
ATOM     17  C   UNL     1       1.645   7.862  20.641  0.00  0.00    +0.000 C 
ATOM     18  O   UNL     1       1.783   8.174  21.817  0.00  0.00    +0.000 OA
ATOM     19  N   UNL     1       1.290   8.773  19.663  0.00  0.00    +0.000 N 
ATOM     20  H   UNL     1       1.360   8.482  18.700  0.00  0.00    +0.000 HD
BRANCH  19  21
ATOM     21  C   UNL     1       1.121  10.194  19.955  0.00  0.00    +0.000 C 
ATOM     22  C   UNL     1       1.386  11.099  18.720  0.00  0.00    +0.000 C 
ATOM     23  N   UNL     1       0.261  12.040  18.458  0.00  0.00    +0.000 NA
ATOM     24  C   UNL     1      -0.959  11.253  18.185  0.00  0.00    +0.000 C 
ATOM     25  C   UNL     1      -1.331  10.348  19.368  0.00  0.00    +0.000 C 
ATOM     26  C   UNL     1      -0.292  10.511  20.493  0.00  0.00    +0.000 C 
ATOM     27  C   UNL     1      -0.298  11.999  20.895  0.00  0.00    +0.000 C 
ATOM     28  C   UNL     1       0.031  12.864  19.665  0.00  0.00    +0.000 C 
ENDBRANCH  19  21
ENDBRANCH   7  17
TORSDOF 3
ENDMDL
MODEL 3
REMARK VINA RESULT:      -8.4      1.516      2.335
REMARK  Name = 
REMARK  4 active torsions:
REMARK  status: ('A' for Active; 'I' for Inactive)
REMARK    1  A    between atoms: C_1  and  C_2
REMARK    2  A    between atoms: C_6  and  C_7
REMARK    3  A    between atoms: C_13  and  C_14
REMARK    4  A    between atoms: N_16  and  C_17
REMARK                            x       y       z     vdW  Elec       q    Type
REMARK                         _______ _______ _______ _____ _____    ______ ____
ROOT
ATOM      1  C   UNL     1       3.630   4.037  18.362  0.00  0.00    +0.000 A 
ATOM      2  C   UNL     1       3.426   2.703  18.369  0.00  0.00    +0.000 A 
ATOM      3  C   UNL     1       2.333   2.153  19.156  0.00  0.00    +0.000 A 
ATOM      4  C   UNL     1       1.539   2.938  19.910  0.00  0.00    +0.000 A 
ATOM      5  C   UNL     1       1.759   4.346  19.931  0.00  0.00    +0.000 A 
ATOM      6  C   UNL     1       1.184   5.397  20.613  0.00  0.00    +0.000 A 
ATOM      7  C   UNL     1       1.826   6.609  20.202  0.00  0.00    +0.000 A 
ATOM      8  C   UNL     1       2.769   6.231  19.258  0.00  0.00    +0.000 A 
ATOM      9  N   UNL     1       2.775   4.853  19.131  0.00  0.00    +0.000 N 
ENDROOT
BRANCH   1  15
ATOM     10  C   UNL     1       7.793   6.796  18.210  0.00  0.00    +0.000 C 
ATOM     11  C   UNL     1       6.781   5.934  17.511  0.00  0.00    +0.000 A 
ATOM     12  C   UNL     1       6.884   5.669  16.141  0.00  0.00    +0.000 A 
ATOM     13  C   UNL     1       5.933   4.872  15.501  0.00  0.00    +0.000 A 
ATOM     14  C   UNL     1       4.870   4.331  16.225  0.00  0.00    +0.000 A 
ATOM     15  C   UNL     1       4.753   4.587  17.594  0.00  0.00    +0.000 A 
ATOM     16  C   UNL     1       5.713   5.388  18.232  0.00  0.00    +0.000 A 
ENDBRANCH   1  15
BRANCH   7  17
ATOM     17  C   UNL     1       1.517   7.960  20.687  0.00  0.00    +0.000 C 
ATOM     18  O   UNL     1       1.516   8.229  21.882  0.00  0.00    +0.000 OA
ATOM     19  N   UNL     1       1.235   8.898  19.710  0.00  0.00    +0.000 N 
ATOM     20  H   UNL     1       1.419   8.649  18.751  0.00  0.00    +0.000 HD
BRANCH  19  21
ATOM     21  C   UNL     1       0.983  10.300  20.034  0.00  0.00    +0.000 C 
ATOM     22  C   UNL     1       1.331  11.261  18.864  0.00  0.00    +0.000 C 
ATOM     23  N   UNL     1       0.200  12.170  18.526  0.00  0.00    +0.000 NA
ATOM     24  C   UNL     1      -0.955  11.351  18.105  0.00  0.00    +0.000 C 
ATOM     25  C   UNL     1      -1.405  10.388  19.213  0.00  0.00    +0.000 C 
ATOM     26  C   UNL     1      -0.488  10.544  20.441  0.00  0.00    +0.000 C 
ATOM     27  C   UNL     1      -0.592  12.015  20.892  0.00  0.00    +0.000 C 
ATOM     28  C   UNL     1      -0.179  12.938  19.732  0.00  0.00    +0.000 C 
ENDBRANCH  19  21
ENDBRANCH   7  17
TORSDOF 3
ENDMDL
MODEL 4
REMARK VINA RESULT:      -8.1      2.313      8.631
REMARK  Name = 
REMARK  4 active torsions:
REMARK  status: ('A' for Active; 'I' for Inactive)
REMARK    1  A    between atoms: C_1  and  C_2
REMARK    2  A    between atoms: C_6  and  C_7
REMARK    3  A    between atoms: C_13  and  C_14
REMARK    4  A    between atoms: N_16  and  C_17
REMARK                            x       y       z     vdW  Elec       q    Type
REMARK                         _______ _______ _______ _____ _____    ______ ____
ROOT
ATOM      1  C   UNL     1       0.194  11.505  21.263  0.00  0.00    +0.000 A 
ATOM      2  C   UNL     1      -0.593  11.757  22.330  0.00  0.00    +0.000 A 
ATOM      3  C   UNL     1      -0.972  10.662  23.210  0.00  0.00    +0.000 A 
ATOM      4  C   UNL     1      -0.589   9.393  22.966  0.00  0.00    +0.000 A 
ATOM      5  C   UNL     1       0.222   9.110  21.829  0.00  0.00    +0.000 A 
ATOM      6  C   UNL     1       0.730   7.953  21.276  0.00  0.00    +0.000 A 
ATOM      7  C   UNL     1       1.501   8.304  20.122  0.00  0.00    +0.000 A 
ATOM      8  C   UNL     1       1.438   9.687  20.035  0.00  0.00    +0.000 A 
ATOM      9  N   UNL     1       0.615  10.179  21.034  0.00  0.00    +0.000 N 
ENDROOT
BRANCH   1  15
ATOM     10  C   UNL     1       3.545  14.851  19.668  0.00  0.00    +0.000 C 
ATOM     11  C   UNL     1       2.176  14.242  19.578  0.00  0.00    +0.000 A 
ATOM     12  C   UNL     1       1.233  14.721  18.662  0.00  0.00    +0.000 A 
ATOM     13  C   UNL     1      -0.039  14.151  18.592  0.00  0.00    +0.000 A 
ATOM     14  C   UNL     1      -0.381  13.094  19.437  0.00  0.00    +0.000 A 
ATOM     15  C   UNL     1       0.549  12.605  20.357  0.00  0.00    +0.000 A 
ATOM     16  C   UNL     1       1.827  13.181  20.422  0.00  0.00    +0.000 A 
ENDBRANCH   1  15
BRANCH   7  17
ATOM     17  C   UNL     1       2.214   7.370  19.241  0.00  0.00    +0.000 C 
ATOM     18  O   UNL     1       2.815   7.758  18.246  0.00  0.00    +0.000 OA
ATOM     19  N   UNL     1       2.163   6.039  19.610  0.00  0.00    +0.000 N 
ATOM     20  H   UNL     1       1.797   5.816  20.523  0.00  0.00    +0.000 HD
BRANCH  19  21
ATOM     21  C   UNL     1       2.886   5.004  18.875  0.00  0.00    +0.000 C 
ATOM     22  C   UNL     1       3.618   4.000  19.808  0.00  0.00    +0.000 C 
ATOM     23  N   UNL     1       3.277   2.585  19.493  0.00  0.00    +0.000 NA
ATOM     24  C   UNL     1       1.824   2.395  19.682  0.00  0.00    +0.000 C 
ATOM     25  C   UNL     1       1.006   3.320  18.770  0.00  0.00    +0.000 C 
ATOM     26  C   UNL     1       1.954   4.202  17.938  0.00  0.00    +0.000 C 
ATOM     27  C   UNL     1       2.849   3.249  17.121  0.00  0.00    +0.000 C 
ATOM     28  C   UNL     1       3.609   2.313  18.077  0.00  0.00    +0.000 C 
ENDBRANCH  19  21
ENDBRANCH   7  17
TORSDOF 3
ENDMDL
MODEL 5
REMARK VINA RESULT:      -8.0      2.236      8.732
REMARK  Name = 
REMARK  4 active torsions:
REMARK  status: ('A' for Active; 'I' for Inactive)
REMARK    1  A    between atoms: C_1  and  C_2
REMARK    2  A    between atoms: C_6  and  C_7
REMARK    3  A    between atoms: C_13  and  C_14
REMARK    4  A    between atoms: N_16  and  C_17
REMARK                            x       y       z     vdW  Elec       q    Type
REMARK                         _______ _______ _______ _____ _____    ______ ____
ROOT
ATOM      1  C   UNL     1      -1.688  11.441  19.233  0.00  0.00    +0.000 A 
ATOM      2  C   UNL     1      -1.963  12.268  20.263  0.00  0.00    +0.000 A 
ATOM      3  C   UNL     1      -1.010  12.389  21.355  0.00  0.00    +0.000 A 
ATOM      4  C   UNL     1       0.128  11.667  21.384  0.00  0.00    +0.000 A 
ATOM      5  C   UNL     1       0.420  10.771  20.315  0.00  0.00    +0.000 A 
ATOM      6  C   UNL     1       1.436   9.873  20.065  0.00  0.00    +0.000 A 
ATOM      7  C   UNL     1       1.194   9.259  18.795  0.00  0.00    +0.000 A 
ATOM      8  C   UNL     1       0.028   9.836  18.315  0.00  0.00    +0.000 A 
ATOM      9  N   UNL     1      -0.480  10.712  19.259  0.00  0.00    +0.000 N 
ENDROOT
BRANCH   1  15
ATOM     10  C   UNL     1      -2.752  10.005  14.566  0.00  0.00    +0.000 C 
ATOM     11  C   UNL     1      -3.191  10.601  15.872  0.00  0.00    +0.000 A 
ATOM     12  C   UNL     1      -4.507  11.036  16.059  0.00  0.00    +0.000 A 
ATOM     13  C   UNL     1      -4.903  11.594  17.276  0.00  0.00    +0.000 A 
ATOM     14  C   UNL     1      -3.985  11.723  18.319  0.00  0.00    +0.000 A 
ATOM     15  C   UNL     1      -2.666  11.294  18.148  0.00  0.00    +0.000 A 
ATOM     16  C   UNL     1      -2.275  10.733  16.923  0.00  0.00    +0.000 A 
ENDBRANCH   1  15
BRANCH   7  17
ATOM     17  C   UNL     1       2.035   8.241  18.151  0.00  0.00    +0.000 C 
ATOM     18  O   UNL     1       2.583   8.449  17.075  0.00  0.00    +0.000 OA
ATOM     19  N   UNL     1       2.167   7.049  18.839  0.00  0.00    +0.000 N 
ATOM     20  H   UNL     1       1.830   7.012  19.788  0.00  0.00    +0.000 HD
BRANCH  19  21
ATOM     21  C   UNL     1       3.031   5.972  18.361  0.00  0.00    +0.000 C 
ATOM     22  C   UNL     1       4.005   5.451  19.453  0.00  0.00    +0.000 C 
ATOM     23  N   UNL     1       3.931   3.972  19.616  0.00  0.00    +0.000 NA
ATOM     24  C   UNL     1       2.559   3.611  20.029  0.00  0.00    +0.000 C 
ATOM     25  C   UNL     1       1.517   4.051  18.990  0.00  0.00    +0.000 C 
ATOM     26  C   UNL     1       2.218   4.773  17.825  0.00  0.00    +0.000 C 
ATOM     27  C   UNL     1       3.229   3.775  17.225  0.00  0.00    +0.000 C 
ATOM     28  C   UNL     1       4.218   3.328  18.316  0.00  0.00    +0.000 C 
ENDBRANCH  19  21
ENDBRANCH   7  17
TORSDOF 3
ENDMDL
MODEL 6
REMARK VINA RESULT:      -7.9      0.857      1.349
REMARK  Name = 
REMARK  4 active torsions:
REMARK  status: ('A' for Active; 'I' for Inactive)
REMARK    1  A    between atoms: C_1  and  C_2
REMARK    2  A    between atoms: C_6  and  C_7
REMARK    3  A    between atoms: C_13  and  C_14
REMARK    4  A    between atoms: N_16  and  C_17
REMARK                            x       y       z     vdW  Elec       q    Type
REMARK                         _______ _______ _______ _____ _____    ______ ____
ROOT
ATOM      1  C   UNL     1       4.027   4.131  19.005  0.00  0.00    +0.000 A 
ATOM      2  C   UNL     1       3.885   2.937  19.618  0.00  0.00    +0.000 A 
ATOM      3  C   UNL     1       2.847   2.770  20.623  0.00  0.00    +0.000 A 
ATOM      4  C   UNL     1       2.043   3.790  20.986  0.00  0.00    +0.000 A 
ATOM      5  C   UNL     1       2.198   5.062  20.364  0.00  0.00    +0.000 A 
ATOM      6  C   UNL     1       1.598   6.293  20.532  0.00  0.00    +0.000 A 
ATOM      7  C   UNL     1       2.168   7.207  19.590  0.00  0.00    +0.000 A 
ATOM      8  C   UNL     1       3.095   6.470  18.867  0.00  0.00    +0.000 A 
ATOM      9  N   UNL     1       3.161   5.182  19.371  0.00  0.00    +0.000 N 
ENDROOT
BRANCH   1  15
ATOM     10  C   UNL     1       5.521   4.106  14.237  0.00  0.00    +0.000 C 
ATOM     11  C   UNL     1       5.833   4.292  15.693  0.00  0.00    +0.000 A 
ATOM     12  C   UNL     1       7.128   4.609  16.117  0.00  0.00    +0.000 A 
ATOM     13  C   UNL     1       7.408   4.773  17.475  0.00  0.00    +0.000 A 
ATOM     14  C   UNL     1       6.395   4.624  18.423  0.00  0.00    +0.000 A 
ATOM     15  C   UNL     1       5.096   4.307  18.015  0.00  0.00    +0.000 A 
ATOM     16  C   UNL     1       4.821   4.144  16.649  0.00  0.00    +0.000 A 
ENDBRANCH   1  15
BRANCH   7  17
ATOM     17  C   UNL     1       1.813   8.623  19.434  0.00  0.00    +0.000 C 
ATOM     18  O   UNL     1       2.005   9.221  18.382  0.00  0.00    +0.000 OA
ATOM     19  N   UNL     1       1.249   9.226  20.543  0.00  0.00    +0.000 N 
ATOM     20  H   UNL     1       0.968   8.635  21.309  0.00  0.00    +0.000 HD
BRANCH  19  21
ATOM     21  C   UNL     1       0.775  10.608  20.515  0.00  0.00    +0.000 C 
ATOM     22  C   UNL     1       1.206  11.368  19.231  0.00  0.00    +0.000 C 
ATOM     23  N   UNL     1       0.053  12.008  18.539  0.00  0.00    +0.000 NA
ATOM     24  C   UNL     1      -0.901  10.954  18.137  0.00  0.00    +0.000 C 
ATOM     25  C   UNL     1      -1.421  10.164  19.347  0.00  0.00    +0.000 C 
ATOM     26  C   UNL     1      -0.763  10.694  20.635  0.00  0.00    +0.000 C 
ATOM     27  C   UNL     1      -1.124  12.190  20.737  0.00  0.00    +0.000 C 
ATOM     28  C   UNL     1      -0.626  12.925  19.481  0.00  0.00    +0.000 C 
ENDBRANCH  19  21
ENDBRANCH   7  17
TORSDOF 3
ENDMDL
MODEL 7
REMARK VINA RESULT:      -7.8      2.272      8.966
REMARK  Name = 
REMARK  4 active torsions:
REMARK  status: ('A' for Active; 'I' for Inactive)
REMARK    1  A    between atoms: C_1  and  C_2
REMARK    2  A    between atoms: C_6  and  C_7
REMARK    3  A    between atoms: C_13  and  C_14
REMARK    4  A    between atoms: N_16  and  C_17
REMARK                            x       y       z     vdW  Elec       q    Type
REMARK                         _______ _______ _______ _____ _____    ______ ____
ROOT
ATOM      1  C   UNL     1      -1.636  11.519  19.355  0.00  0.00    +0.000 A 
ATOM      2  C   UNL     1      -1.923  12.304  20.414  0.00  0.00    +0.000 A 
ATOM      3  C   UNL     1      -0.997  12.357  21.534  0.00  0.00    +0.000 A 
ATOM      4  C   UNL     1       0.126  11.612  21.559  0.00  0.00    +0.000 A 
ATOM      5  C   UNL     1       0.429  10.760  20.458  0.00  0.00    +0.000 A 
ATOM      6  C   UNL     1       1.435   9.854  20.193  0.00  0.00    +0.000 A 
ATOM      7  C   UNL     1       1.215   9.302  18.891  0.00  0.00    +0.000 A 
ATOM      8  C   UNL     1       0.073   9.924  18.408  0.00  0.00    +0.000 A 
ATOM      9  N   UNL     1      -0.444  10.766  19.378  0.00  0.00    +0.000 N 
ENDROOT
BRANCH   1  15
ATOM     10  C   UNL     1      -6.345  11.739  17.698  0.00  0.00    +0.000 C 
ATOM     11  C   UNL     1      -4.882  11.542  17.425  0.00  0.00    +0.000 A 
ATOM     12  C   UNL     1      -4.420  11.265  16.134  0.00  0.00    +0.000 A 
ATOM     13  C   UNL     1      -3.058  11.078  15.894  0.00  0.00    +0.000 A 
ATOM     14  C   UNL     1      -2.143  11.166  16.944  0.00  0.00    +0.000 A 
ATOM     15  C   UNL     1      -2.588  11.441  18.240  0.00  0.00    +0.000 A 
ATOM     16  C   UNL     1      -3.959  11.630  18.475  0.00  0.00    +0.000 A 
ENDBRANCH   1  15
BRANCH   7  17
ATOM     17  C   UNL     1       2.054   8.299  18.223  0.00  0.00    +0.000 C 
ATOM     18  O   UNL     1       2.695   8.567  17.214  0.00  0.00    +0.000 OA
ATOM     19  N   UNL     1       2.073   7.047  18.809  0.00  0.00    +0.000 N 
ATOM     20  H   UNL     1       1.660   6.947  19.723  0.00  0.00    +0.000 HD
BRANCH  19  21
ATOM     21  C   UNL     1       2.919   5.968  18.303  0.00  0.00    +0.000 C 
ATOM     22  C   UNL     1       3.999   5.518  19.324  0.00  0.00    +0.000 C 
ATOM     23  N   UNL     1       3.978   4.047  19.557  0.00  0.00    +0.000 NA
ATOM     24  C   UNL     1       2.657   3.675  20.107  0.00  0.00    +0.000 C 
ATOM     25  C   UNL     1       1.516   4.045  19.148  0.00  0.00    +0.000 C 
ATOM     26  C   UNL     1       2.092   4.728  17.894  0.00  0.00    +0.000 C 
ATOM     27  C   UNL     1       3.071   3.726  17.250  0.00  0.00    +0.000 C 
ATOM     28  C   UNL     1       4.165   3.351  18.265  0.00  0.00    +0.000 C 
ENDBRANCH  19  21
ENDBRANCH   7  17
TORSDOF 3
ENDMDL
MODEL 8
REMARK VINA RESULT:      -7.8      2.030      8.832
REMARK  Name = 
REMARK  4 active torsions:
REMARK  status: ('A' for Active; 'I' for Inactive)
REMARK    1  A    between atoms: C_1  and  C_2
REMARK    2  A    between atoms: C_6  and  C_7
REMARK    3  A    between atoms: C_13  and  C_14
REMARK    4  A    between atoms: N_16  and  C_17
REMARK                            x       y       z     vdW  Elec       q    Type
REMARK                         _______ _______ _______ _____ _____    ______ ____
ROOT
ATOM      1  C   UNL     1      -0.013  12.382  21.245  0.00  0.00    +0.000 A 
ATOM      2  C   UNL     1      -0.779  12.609  22.332  0.00  0.00    +0.000 A 
ATOM      3  C   UNL     1      -1.189  11.486  23.162  0.00  0.00    +0.000 A 
ATOM      4  C   UNL     1      -0.855  10.218  22.852  0.00  0.00    +0.000 A 
ATOM      5  C   UNL     1      -0.067   9.962  21.693  0.00  0.00    +0.000 A 
ATOM      6  C   UNL     1       0.392   8.817  21.078  0.00  0.00    +0.000 A 
ATOM      7  C   UNL     1       1.163   9.195  19.933  0.00  0.00    +0.000 A 
ATOM      8  C   UNL     1       1.151  10.582  19.915  0.00  0.00    +0.000 A 
ATOM      9  N   UNL     1       0.356  11.054  20.946  0.00  0.00    +0.000 N 
ENDROOT
BRANCH   1  15
ATOM     10  C   UNL     1       3.465  15.630  19.720  0.00  0.00    +0.000 C 
ATOM     11  C   UNL     1       2.062  15.101  19.645  0.00  0.00    +0.000 A 
ATOM     12  C   UNL     1       1.117  15.682  18.792  0.00  0.00    +0.000 A 
ATOM     13  C   UNL     1      -0.186  15.186  18.736  0.00  0.00    +0.000 A 
ATOM     14  C   UNL     1      -0.559  14.103  19.532  0.00  0.00    +0.000 A 
ATOM     15  C   UNL     1       0.373  13.511  20.390  0.00  0.00    +0.000 A 
ATOM     16  C   UNL     1       1.682  14.014  20.441  0.00  0.00    +0.000 A 
ENDBRANCH   1  15
BRANCH   7  17
ATOM     17  C   UNL     1       1.832   8.281  18.998  0.00  0.00    +0.000 C 
ATOM     18  O   UNL     1       2.010   8.581  17.824  0.00  0.00    +0.000 OA
ATOM     19  N   UNL     1       2.247   7.075  19.532  0.00  0.00    +0.000 N 
ATOM     20  H   UNL     1       2.219   6.968  20.534  0.00  0.00    +0.000 HD
BRANCH  19  21
ATOM     21  C   UNL     1       2.993   6.096  18.745  0.00  0.00    +0.000 C 
ATOM     22  C   UNL     1       4.151   5.436  19.542  0.00  0.00    +0.000 C 
ATOM     23  N   UNL     1       4.092   3.948  19.495  0.00  0.00    +0.000 NA
ATOM     24  C   UNL     1       2.820   3.506  20.102  0.00  0.00    +0.000 C 
ATOM     25  C   UNL     1       1.605   4.076  19.357  0.00  0.00    +0.000 C 
ATOM     26  C   UNL     1       2.079   4.975  18.200  0.00  0.00    +0.000 C 
ATOM     27  C   UNL     1       2.947   4.095  17.278  0.00  0.00    +0.000 C 
ATOM     28  C   UNL     1       4.120   3.509  18.082  0.00  0.00    +0.000 C 
ENDBRANCH  19  21
ENDBRANCH   7  17
TORSDOF 3
ENDMDL
MODEL 9
REMARK VINA RESULT:      -7.6      2.124      8.827
REMARK  Name = 
REMARK  4 active torsions:
REMARK  status: ('A' for Active; 'I' for Inactive)
REMARK    1  A    between atoms: C_1  and  C_2
REMARK    2  A    between atoms: C_6  and  C_7
REMARK    3  A    between atoms: C_13  and  C_14
REMARK    4  A    between atoms: N_16  and  C_17
REMARK                            x       y       z     vdW  Elec       q    Type
REMARK                         _______ _______ _______ _____ _____    ______ ____
ROOT
ATOM      1  C   UNL     1       0.304  12.560  21.059  0.00  0.00    +0.000 A 
ATOM      2  C   UNL     1      -0.490  12.856  22.109  0.00  0.00    +0.000 A 
ATOM      3  C   UNL     1      -1.040  11.776  22.914  0.00  0.00    +0.000 A 
ATOM      4  C   UNL     1      -0.807  10.483  22.616  0.00  0.00    +0.000 A 
ATOM      5  C   UNL     1       0.010  10.156  21.495  0.00  0.00    +0.000 A 
ATOM      6  C   UNL     1       0.394   8.973  20.899  0.00  0.00    +0.000 A 
ATOM      7  C   UNL     1       1.250   9.280  19.794  0.00  0.00    +0.000 A 
ATOM      8  C   UNL     1       1.363  10.663  19.780  0.00  0.00    +0.000 A 
ATOM      9  N   UNL     1       0.566  11.204  20.774  0.00  0.00    +0.000 N 
ENDROOT
BRANCH   1  15
ATOM     10  C   UNL     1      -0.509  16.675  18.343  0.00  0.00    +0.000 C 
ATOM     11  C   UNL     1       0.442  15.654  18.899  0.00  0.00    +0.000 A 
ATOM     12  C   UNL     1       1.810  15.716  18.618  0.00  0.00    +0.000 A 
ATOM     13  C   UNL     1       2.683  14.757  19.135  0.00  0.00    +0.000 A 
ATOM     14  C   UNL     1       2.195  13.726  19.939  0.00  0.00    +0.000 A 
ATOM     15  C   UNL     1       0.830  13.650  20.228  0.00  0.00    +0.000 A 
ATOM     16  C   UNL     1      -0.042  14.618  19.707  0.00  0.00    +0.000 A 
ENDBRANCH   1  15
BRANCH   7  17
ATOM     17  C   UNL     1       1.878   8.309  18.889  0.00  0.00    +0.000 C 
ATOM     18  O   UNL     1       2.116   8.582  17.718  0.00  0.00    +0.000 OA
ATOM     19  N   UNL     1       2.182   7.080  19.445  0.00  0.00    +0.000 N 
ATOM     20  H   UNL     1       2.114   6.986  20.446  0.00  0.00    +0.000 HD
BRANCH  19  21
ATOM     21  C   UNL     1       2.877   6.040  18.690  0.00  0.00    +0.000 C 
ATOM     22  C   UNL     1       4.097   5.454  19.453  0.00  0.00    +0.000 C 
ATOM     23  N   UNL     1       4.050   3.967  19.536  0.00  0.00    +0.000 NA
ATOM     24  C   UNL     1       2.829   3.574  20.271  0.00  0.00    +0.000 C 
ATOM     25  C   UNL     1       1.557   4.075  19.573  0.00  0.00    +0.000 C 
ATOM     26  C   UNL     1       1.937   4.874  18.312  0.00  0.00    +0.000 C 
ATOM     27  C   UNL     1       2.742   3.921  17.406  0.00  0.00    +0.000 C 
ATOM     28  C   UNL     1       3.977   3.410  18.168  0.00  0.00    +0.000 C 
ENDBRANCH  19  21
ENDBRANCH   7  17
TORSDOF 3
ENDMDL
