MODEL 1
REMARK VINA RESULT:      -6.3      0.000      0.000
REMARK  Name = 
REMARK  13 active torsions:
REMARK  status: ('A' for Active; 'I' for Inactive)
REMARK    1  A    between atoms: C_1  and  C_2
REMARK    2  A    between atoms: C_2  and  C_3
REMARK    3  A    between atoms: C_2  and  O_4
REMARK    4  A    between atoms: O_4  and  C_5
REMARK    5  A    between atoms: C_5  and  C_6
REMARK    6  A    between atoms: C_6  and  C_7
REMARK    7  A    between atoms: C_7  and  N_8
REMARK    8  A    between atoms: C_7  and  C_16
REMARK    9  A    between atoms: C_9  and  O_11
REMARK   10  A    between atoms: O_11  and  C_12
REMARK   11  A    between atoms: C_12  and  C_13
REMARK   12  A    between atoms: C_12  and  C_14
REMARK   13  A    between atoms: C_12  and  C_15
REMARK                            x       y       z     vdW  Elec       q    Type
REMARK                         _______ _______ _______ _____ _____    ______ ____
ROOT
ATOM      1  C   UNL     1       5.643   4.912  17.033  0.00  0.00    +0.000 C 
ENDROOT
BRANCH   1   2
ATOM      2  C   UNL     1       7.147   5.268  17.170  0.00  0.00    +0.000 C 
ATOM      3  N   UNL     1       7.513   6.550  16.873  0.00  0.00    +0.000 N 
ATOM      4  O   UNL     1       7.989   4.453  17.529  0.00  0.00    +0.000 OA
ATOM      5  H   UNL     1       6.885   7.145  16.330  0.00  0.00    +0.000 HD
ATOM      6  H   UNL     1       8.504   6.752  16.822  0.00  0.00    +0.000 HD
ENDBRANCH   1   2
BRANCH   1   7
ATOM      7  N   UNL     1       5.063   4.612  18.345  0.00  0.00    +0.000 N 
ATOM      8  C   UNL     1       3.758   4.845  18.665  0.00  0.00    +0.000 C 
ATOM      9  O   UNL     1       2.964   5.363  17.897  0.00  0.00    +0.000 OA
ATOM     10  H   UNL     1       5.658   4.251  19.074  0.00  0.00    +0.000 HD
BRANCH   8  11
ATOM     11  O   UNL     1       3.462   4.401  19.915  0.00  0.00    +0.000 OA
BRANCH  11  12
ATOM     12  C   UNL     1       2.480   3.334  20.057  0.00  0.00    +0.000 C 
ATOM     13  C   UNL     1       1.058   3.824  19.734  0.00  0.00    +0.000 C 
ATOM     14  C   UNL     1       2.853   2.245  19.035  0.00  0.00    +0.000 C 
ATOM     15  C   UNL     1       2.546   2.702  21.455  0.00  0.00    +0.000 C 
ENDBRANCH  11  12
ENDBRANCH   8  11
ENDBRANCH   1   7
BRANCH   1  16
ATOM     16  C   UNL     1       5.428   3.830  15.968  0.00  0.00    +0.000 C 
BRANCH  16  17
ATOM     17  C   UNL     1       6.044   4.161  14.613  0.00  0.00    +0.000 C 
BRANCH  17  18
ATOM     18  O   UNL     1       5.085   4.092  13.555  0.00  0.00    +0.000 OA
BRANCH  18  20
ATOM     19  C   UNL     1       4.431   3.232  11.394  0.00  0.00    +0.000 C 
ATOM     20  C   UNL     1       5.506   3.233  12.479  0.00  0.00    +0.000 C 
ATOM     21  C   UNL     1       6.837   3.685  11.878  0.00  0.00    +0.000 C 
ENDBRANCH  18  20
ENDBRANCH  17  18
ENDBRANCH  16  17
ENDBRANCH   1  16
TORSDOF 8
ENDMDL
MODEL 2
REMARK VINA RESULT:      -6.2      1.729      2.225
REMARK  Name = 
REMARK  13 active torsions:
REMARK  status: ('A' for Active; 'I' for Inactive)
REMARK    1  A    between atoms: C_1  and  C_2
REMARK    2  A    between atoms: C_2  and  C_3
REMARK    3  A    between atoms: C_2  and  O_4
REMARK    4  A    between atoms: O_4  and  C_5
REMARK    5  A    between atoms: C_5  and  C_6
REMARK    6  A    between atoms: C_6  and  C_7
REMARK    7  A    between atoms: C_7  and  N_8
REMARK    8  A    between atoms: C_7  and  C_16
REMARK    9  A    between atoms: C_9  and  O_11
REMARK   10  A    between atoms: O_11  and  C_12
REMARK   11  A    between atoms: C_12  and  C_13
REMARK   12  A    between atoms: C_12  and  C_14
REMARK   13  A    between atoms: C_12  and  C_15
REMARK                            x       y       z     vdW  Elec       q    Type
REMARK                         _______ _______ _______ _____ _____    ______ ____
ROOT
ATOM      1  C   UNL     1       5.814   5.858  18.372  0.00  0.00    +0.000 C 
ENDROOT
BRANCH   1   2
ATOM      2  C   UNL     1       7.315   5.498  18.535  0.00  0.00    +0.000 C 
ATOM      3  N   UNL     1       8.133   6.460  19.057  0.00  0.00    +0.000 N 
ATOM      4  O   UNL     1       7.771   4.406  18.218  0.00  0.00    +0.000 OA
ATOM      5  H   UNL     1       7.826   7.435  19.072  0.00  0.00    +0.000 HD
ATOM      6  H   UNL     1       9.130   6.287  19.035  0.00  0.00    +0.000 HD
ENDBRANCH   1   2
BRANCH   1   7
ATOM      7  N   UNL     1       4.969   4.722  18.751  0.00  0.00    +0.000 N 
ATOM      8  C   UNL     1       3.792   4.849  19.427  0.00  0.00    +0.000 C 
ATOM      9  O   UNL     1       3.355   5.921  19.813  0.00  0.00    +0.000 OA
ATOM     10  H   UNL     1       5.281   3.787  18.543  0.00  0.00    +0.000 HD
BRANCH   8  11
ATOM     11  O   UNL     1       3.169   3.650  19.579  0.00  0.00    +0.000 OA
BRANCH  11  12
ATOM     12  C   UNL     1       2.175   3.255  18.589  0.00  0.00    +0.000 C 
ATOM     13  C   UNL     1       2.685   2.107  17.701  0.00  0.00    +0.000 C 
ATOM     14  C   UNL     1       0.948   2.746  19.367  0.00  0.00    +0.000 C 
ATOM     15  C   UNL     1       1.725   4.456  17.744  0.00  0.00    +0.000 C 
ENDBRANCH  11  12
ENDBRANCH   8  11
ENDBRANCH   1   7
BRANCH   1  16
ATOM     16  C   UNL     1       5.534   6.437  16.980  0.00  0.00    +0.000 C 
BRANCH  16  17
ATOM     17  C   UNL     1       5.726   5.441  15.843  0.00  0.00    +0.000 C 
BRANCH  17  18
ATOM     18  O   UNL     1       6.887   5.735  15.061  0.00  0.00    +0.000 OA
BRANCH  18  20
ATOM     19  C   UNL     1       5.906   3.940  13.776  0.00  0.00    +0.000 C 
ATOM     20  C   UNL     1       7.188   4.702  14.103  0.00  0.00    +0.000 C 
ATOM     21  C   UNL     1       7.782   5.276  12.817  0.00  0.00    +0.000 C 
ENDBRANCH  18  20
ENDBRANCH  17  18
ENDBRANCH  16  17
ENDBRANCH   1  16
TORSDOF 8
ENDMDL
MODEL 3
REMARK VINA RESULT:      -6.2      1.183      1.498
REMARK  Name = 
REMARK  13 active torsions:
REMARK  status: ('A' for Active; 'I' for Inactive)
REMARK    1  A    between atoms: C_1  and  C_2
REMARK    2  A    between atoms: C_2  and  C_3
REMARK    3  A    between atoms: C_2  and  O_4
REMARK    4  A    between atoms: O_4  and  C_5
REMARK    5  A    between atoms: C_5  and  C_6
REMARK    6  A    between atoms: C_6  and  C_7
REMARK    7  A    between atoms: C_7  and  N_8
REMARK    8  A    between atoms: C_7  and  C_16
REMARK    9  A    between atoms: C_9  and  O_11
REMARK   10  A    between atoms: O_11  and  C_12
REMARK   11  A    between atoms: C_12  and  C_13
REMARK   12  A    between atoms: C_12  and  C_14
REMARK   13  A    between atoms: C_12  and  C_15
REMARK                            x       y       z     vdW  Elec       q    Type
REMARK                         _______ _______ _______ _____ _____    ______ ____
ROOT
ATOM      1  C   UNL     1       5.706   5.425  16.523  0.00  0.00    +0.000 C 
ENDROOT
BRANCH   1   2
ATOM      2  C   UNL     1       7.185   5.383  16.989  0.00  0.00    +0.000 C 
ATOM      3  N   UNL     1       7.724   6.548  17.458  0.00  0.00    +0.000 N 
ATOM      4  O   UNL     1       7.862   4.363  16.948  0.00  0.00    +0.000 OA
ATOM      5  H   UNL     1       7.268   7.438  17.250  0.00  0.00    +0.000 HD
ATOM      6  H   UNL     1       8.721   6.565  17.629  0.00  0.00    +0.000 HD
ENDBRANCH   1   2
BRANCH   1   7
ATOM      7  N   UNL     1       4.930   4.367  17.177  0.00  0.00    +0.000 N 
ATOM      8  C   UNL     1       4.403   4.481  18.429  0.00  0.00    +0.000 C 
ATOM      9  O   UNL     1       4.564   5.464  19.135  0.00  0.00    +0.000 OA
ATOM     10  H   UNL     1       4.806   3.486  16.704  0.00  0.00    +0.000 HD
BRANCH   8  11
ATOM     11  O   UNL     1       3.662   3.391  18.763  0.00  0.00    +0.000 OA
BRANCH  11  12
ATOM     12  C   UNL     1       2.215   3.535  18.842  0.00  0.00    +0.000 C 
ATOM     13  C   UNL     1       1.677   4.473  17.748  0.00  0.00    +0.000 C 
ATOM     14  C   UNL     1       1.614   2.137  18.607  0.00  0.00    +0.000 C 
ATOM     15  C   UNL     1       1.779   4.000  20.239  0.00  0.00    +0.000 C 
ENDBRANCH  11  12
ENDBRANCH   8  11
ENDBRANCH   1   7
BRANCH   1  16
ATOM     16  C   UNL     1       5.610   5.446  14.993  0.00  0.00    +0.000 C 
BRANCH  16  17
ATOM     17  C   UNL     1       5.484   4.065  14.359  0.00  0.00    +0.000 C 
BRANCH  17  18
ATOM     18  O   UNL     1       6.590   3.763  13.506  0.00  0.00    +0.000 OA
BRANCH  18  20
ATOM     19  C   UNL     1       6.897   2.333  11.583  0.00  0.00    +0.000 C 
ATOM     20  C   UNL     1       6.198   3.574  12.133  0.00  0.00    +0.000 C 
ATOM     21  C   UNL     1       4.685   3.410  11.992  0.00  0.00    +0.000 C 
ENDBRANCH  18  20
ENDBRANCH  17  18
ENDBRANCH  16  17
ENDBRANCH   1  16
TORSDOF 8
ENDMDL
MODEL 4
REMARK VINA RESULT:      -6.1      1.737      1.987
REMARK  Name = 
REMARK  13 active torsions:
REMARK  status: ('A' for Active; 'I' for Inactive)
REMARK    1  A    between atoms: C_1  and  C_2
REMARK    2  A    between atoms: C_2  and  C_3
REMARK    3  A    between atoms: C_2  and  O_4
REMARK    4  A    between atoms: O_4  and  C_5
REMARK    5  A    between atoms: C_5  and  C_6
REMARK    6  A    between atoms: C_6  and  C_7
REMARK    7  A    between atoms: C_7  and  N_8
REMARK    8  A    between atoms: C_7  and  C_16
REMARK    9  A    between atoms: C_9  and  O_11
REMARK   10  A    between atoms: O_11  and  C_12
REMARK   11  A    between atoms: C_12  and  C_13
REMARK   12  A    between atoms: C_12  and  C_14
REMARK   13  A    between atoms: C_12  and  C_15
REMARK                            x       y       z     vdW  Elec       q    Type
REMARK                         _______ _______ _______ _____ _____    ______ ____
ROOT
ATOM      1  C   UNL     1       5.574   6.157  18.045  0.00  0.00    +0.000 C 
ENDROOT
BRANCH   1   2
ATOM      2  C   UNL     1       7.107   5.977  18.210  0.00  0.00    +0.000 C 
ATOM      3  N   UNL     1       7.562   4.716  18.473  0.00  0.00    +0.000 N 
ATOM      4  O   UNL     1       7.896   6.910  18.112  0.00  0.00    +0.000 OA
ATOM      5  H   UNL     1       6.914   4.003  18.815  0.00  0.00    +0.000 HD
ATOM      6  H   UNL     1       8.537   4.615  18.721  0.00  0.00    +0.000 HD
ENDBRANCH   1   2
BRANCH   1   7
ATOM      7  N   UNL     1       4.859   5.000  18.593  0.00  0.00    +0.000 N 
ATOM      8  C   UNL     1       3.746   5.101  19.374  0.00  0.00    +0.000 C 
ATOM      9  O   UNL     1       3.267   6.168  19.721  0.00  0.00    +0.000 OA
ATOM     10  H   UNL     1       5.221   4.074  18.424  0.00  0.00    +0.000 HD
BRANCH   8  11
ATOM     11  O   UNL     1       3.235   3.878  19.678  0.00  0.00    +0.000 OA
BRANCH  11  12
ATOM     12  C   UNL     1       2.182   3.336  18.829  0.00  0.00    +0.000 C 
ATOM     13  C   UNL     1       1.859   4.277  17.655  0.00  0.00    +0.000 C 
ATOM     14  C   UNL     1       2.714   2.014  18.248  0.00  0.00    +0.000 C 
ATOM     15  C   UNL     1       0.922   3.013  19.645  0.00  0.00    +0.000 C 
ENDBRANCH  11  12
ENDBRANCH   8  11
ENDBRANCH   1   7
BRANCH   1  16
ATOM     16  C   UNL     1       5.213   6.516  16.599  0.00  0.00    +0.000 C 
BRANCH  16  17
ATOM     17  C   UNL     1       5.565   5.434  15.584  0.00  0.00    +0.000 C 
BRANCH  17  18
ATOM     18  O   UNL     1       6.696   5.794  14.786  0.00  0.00    +0.000 OA
BRANCH  18  20
ATOM     19  C   UNL     1       5.944   3.846  13.572  0.00  0.00    +0.000 C 
ATOM     20  C   UNL     1       7.142   4.719  13.938  0.00  0.00    +0.000 C 
ATOM     21  C   UNL     1       7.803   5.239  12.662  0.00  0.00    +0.000 C 
ENDBRANCH  18  20
ENDBRANCH  17  18
ENDBRANCH  16  17
ENDBRANCH   1  16
TORSDOF 8
ENDMDL
MODEL 5
REMARK VINA RESULT:      -6.1      1.035      1.441
REMARK  Name = 
REMARK  13 active torsions:
REMARK  status: ('A' for Active; 'I' for Inactive)
REMARK    1  A    between atoms: C_1  and  C_2
REMARK    2  A    between atoms: C_2  and  C_3
REMARK    3  A    between atoms: C_2  and  O_4
REMARK    4  A    between atoms: O_4  and  C_5
REMARK    5  A    between atoms: C_5  and  C_6
REMARK    6  A    between atoms: C_6  and  C_7
REMARK    7  A    between atoms: C_7  and  N_8
REMARK    8  A    between atoms: C_7  and  C_16
REMARK    9  A    between atoms: C_9  and  O_11
REMARK   10  A    between atoms: O_11  and  C_12
REMARK   11  A    between atoms: C_12  and  C_13
REMARK   12  A    between atoms: C_12  and  C_14
REMARK   13  A    between atoms: C_12  and  C_15
REMARK                            x       y       z     vdW  Elec       q    Type
REMARK                         _______ _______ _______ _____ _____    ______ ____
ROOT
ATOM      1  C   UNL     1       5.769   4.328  16.954  0.00  0.00    +0.000 C 
ENDROOT
BRANCH   1   2
ATOM      2  C   UNL     1       7.135   4.785  17.531  0.00  0.00    +0.000 C 
ATOM      3  N   UNL     1       7.127   5.860  18.373  0.00  0.00    +0.000 N 
ATOM      4  O   UNL     1       8.188   4.222  17.258  0.00  0.00    +0.000 OA
ATOM      5  H   UNL     1       6.318   6.485  18.393  0.00  0.00    +0.000 HD
ATOM      6  H   UNL     1       8.022   6.251  18.639  0.00  0.00    +0.000 HD
ENDBRANCH   1   2
BRANCH   1   7
ATOM      7  N   UNL     1       5.001   3.597  17.966  0.00  0.00    +0.000 N 
ATOM      8  C   UNL     1       3.640   3.611  18.038  0.00  0.00    +0.000 C 
ATOM      9  O   UNL     1       2.938   4.268  17.287  0.00  0.00    +0.000 OA
ATOM     10  H   UNL     1       5.495   3.083  18.680  0.00  0.00    +0.000 HD
BRANCH   8  11
ATOM     11  O   UNL     1       3.181   2.785  19.016  0.00  0.00    +0.000 OA
BRANCH  11  12
ATOM     12  C   UNL     1       2.382   3.361  20.089  0.00  0.00    +0.000 C 
ATOM     13  C   UNL     1       2.660   2.671  21.436  0.00  0.00    +0.000 C 
ATOM     14  C   UNL     1       2.799   4.837  20.215  0.00  0.00    +0.000 C 
ATOM     15  C   UNL     1       0.885   3.328  19.747  0.00  0.00    +0.000 C 
ENDBRANCH  11  12
ENDBRANCH   8  11
ENDBRANCH   1   7
BRANCH   1  16
ATOM     16  C   UNL     1       5.951   3.591  15.622  0.00  0.00    +0.000 C 
BRANCH  16  17
ATOM     17  C   UNL     1       5.549   4.407  14.399  0.00  0.00    +0.000 C 
BRANCH  17  18
ATOM     18  O   UNL     1       6.407   4.161  13.283  0.00  0.00    +0.000 OA
BRANCH  18  20
ATOM     19  C   UNL     1       4.687   3.427  11.754  0.00  0.00    +0.000 C 
ATOM     20  C   UNL     1       5.972   3.044  12.484  0.00  0.00    +0.000 C 
ATOM     21  C   UNL     1       7.032   2.626  11.466  0.00  0.00    +0.000 C 
ENDBRANCH  18  20
ENDBRANCH  17  18
ENDBRANCH  16  17
ENDBRANCH   1  16
TORSDOF 8
ENDMDL
MODEL 6
REMARK VINA RESULT:      -6.1      1.222      1.394
REMARK  Name = 
REMARK  13 active torsions:
REMARK  status: ('A' for Active; 'I' for Inactive)
REMARK    1  A    between atoms: C_1  and  C_2
REMARK    2  A    between atoms: C_2  and  C_3
REMARK    3  A    between atoms: C_2  and  O_4
REMARK    4  A    between atoms: O_4  and  C_5
REMARK    5  A    between atoms: C_5  and  C_6
REMARK    6  A    between atoms: C_6  and  C_7
REMARK    7  A    between atoms: C_7  and  N_8
REMARK    8  A    between atoms: C_7  and  C_16
REMARK    9  A    between atoms: C_9  and  O_11
REMARK   10  A    between atoms: O_11  and  C_12
REMARK   11  A    between atoms: C_12  and  C_13
REMARK   12  A    between atoms: C_12  and  C_14
REMARK   13  A    between atoms: C_12  and  C_15
REMARK                            x       y       z     vdW  Elec       q    Type
REMARK                         _______ _______ _______ _____ _____    ______ ____
ROOT
ATOM      1  C   UNL     1       5.791   4.470  17.408  0.00  0.00    +0.000 C 
ENDROOT
BRANCH   1   2
ATOM      2  C   UNL     1       7.083   4.721  18.229  0.00  0.00    +0.000 C 
ATOM      3  N   UNL     1       8.252   4.238  17.714  0.00  0.00    +0.000 N 
ATOM      4  O   UNL     1       7.082   5.325  19.295  0.00  0.00    +0.000 OA
ATOM      5  H   UNL     1       8.228   3.521  16.985  0.00  0.00    +0.000 HD
ATOM      6  H   UNL     1       9.072   4.271  18.306  0.00  0.00    +0.000 HD
ENDBRANCH   1   2
BRANCH   1   7
ATOM      7  N   UNL     1       4.819   3.708  18.199  0.00  0.00    +0.000 N 
ATOM      8  C   UNL     1       3.471   3.904  18.131  0.00  0.00    +0.000 C 
ATOM      9  O   UNL     1       2.954   4.760  17.432  0.00  0.00    +0.000 OA
ATOM     10  H   UNL     1       5.152   3.028  18.863  0.00  0.00    +0.000 HD
BRANCH   8  11
ATOM     11  O   UNL     1       2.796   3.012  18.903  0.00  0.00    +0.000 OA
BRANCH  11  12
ATOM     12  C   UNL     1       2.180   3.489  20.135  0.00  0.00    +0.000 C 
ATOM     13  C   UNL     1       0.655   3.286  20.124  0.00  0.00    +0.000 C 
ATOM     14  C   UNL     1       2.764   2.645  21.282  0.00  0.00    +0.000 C 
ATOM     15  C   UNL     1       2.544   4.956  20.406  0.00  0.00    +0.000 C 
ENDBRANCH  11  12
ENDBRANCH   8  11
ENDBRANCH   1   7
BRANCH   1  16
ATOM     16  C   UNL     1       6.117   3.872  16.034  0.00  0.00    +0.000 C 
BRANCH  16  17
ATOM     17  C   UNL     1       5.927   4.843  14.874  0.00  0.00    +0.000 C 
BRANCH  17  18
ATOM     18  O   UNL     1       5.240   4.239  13.775  0.00  0.00    +0.000 OA
BRANCH  18  20
ATOM     19  C   UNL     1       5.301   2.879  11.779  0.00  0.00    +0.000 C 
ATOM     20  C   UNL     1       6.125   3.522  12.893  0.00  0.00    +0.000 C 
ATOM     21  C   UNL     1       7.182   4.440  12.280  0.00  0.00    +0.000 C 
ENDBRANCH  18  20
ENDBRANCH  17  18
ENDBRANCH  16  17
ENDBRANCH   1  16
TORSDOF 8
ENDMDL
MODEL 7
REMARK VINA RESULT:      -6.1      0.638      1.127
REMARK  Name = 
REMARK  13 active torsions:
REMARK  status: ('A' for Active; 'I' for Inactive)
REMARK    1  A    between atoms: C_1  and  C_2
REMARK    2  A    between atoms: C_2  and  C_3
REMARK    3  A    between atoms: C_2  and  O_4
REMARK    4  A    between atoms: O_4  and  C_5
REMARK    5  A    between atoms: C_5  and  C_6
REMARK    6  A    between atoms: C_6  and  C_7
REMARK    7  A    between atoms: C_7  and  N_8
REMARK    8  A    between atoms: C_7  and  C_16
REMARK    9  A    between atoms: C_9  and  O_11
REMARK   10  A    between atoms: O_11  and  C_12
REMARK   11  A    between atoms: C_12  and  C_13
REMARK   12  A    between atoms: C_12  and  C_14
REMARK   13  A    between atoms: C_12  and  C_15
REMARK                            x       y       z     vdW  Elec       q    Type
REMARK                         _______ _______ _______ _____ _____    ______ ____
ROOT
ATOM      1  C   UNL     1       5.801   5.081  17.565  0.00  0.00    +0.000 C 
ENDROOT
BRANCH   1   2
ATOM      2  C   UNL     1       7.310   5.277  17.866  0.00  0.00    +0.000 C 
ATOM      3  N   UNL     1       7.730   6.545  18.152  0.00  0.00    +0.000 N 
ATOM      4  O   UNL     1       8.112   4.350  17.855  0.00  0.00    +0.000 OA
ATOM      5  H   UNL     1       7.140   7.342  17.906  0.00  0.00    +0.000 HD
ATOM      6  H   UNL     1       8.728   6.705  18.208  0.00  0.00    +0.000 HD
ENDBRANCH   1   2
BRANCH   1   7
ATOM      7  N   UNL     1       5.070   4.752  18.792  0.00  0.00    +0.000 N 
ATOM      8  C   UNL     1       3.802   5.181  19.054  0.00  0.00    +0.000 C 
ATOM      9  O   UNL     1       3.176   5.912  18.304  0.00  0.00    +0.000 OA
ATOM     10  H   UNL     1       5.531   4.214  19.508  0.00  0.00    +0.000 HD
BRANCH   8  11
ATOM     11  O   UNL     1       3.330   4.666  20.220  0.00  0.00    +0.000 OA
BRANCH  11  12
ATOM     12  C   UNL     1       2.340   3.599  20.157  0.00  0.00    +0.000 C 
ATOM     13  C   UNL     1       2.531   2.721  18.908  0.00  0.00    +0.000 C 
ATOM     14  C   UNL     1       2.556   2.715  21.398  0.00  0.00    +0.000 C 
ATOM     15  C   UNL     1       0.912   4.161  20.228  0.00  0.00    +0.000 C 
ENDBRANCH  11  12
ENDBRANCH   8  11
ENDBRANCH   1   7
BRANCH   1  16
ATOM     16  C   UNL     1       5.592   4.101  16.404  0.00  0.00    +0.000 C 
BRANCH  16  17
ATOM     17  C   UNL     1       6.116   4.605  15.064  0.00  0.00    +0.000 C 
BRANCH  17  18
ATOM     18  O   UNL     1       5.260   4.237  13.980  0.00  0.00    +0.000 OA
BRANCH  18  20
ATOM     19  C   UNL     1       4.972   3.203  11.816  0.00  0.00    +0.000 C 
ATOM     20  C   UNL     1       5.954   3.524  12.940  0.00  0.00    +0.000 C 
ATOM     21  C   UNL     1       7.123   4.333  12.379  0.00  0.00    +0.000 C 
ENDBRANCH  18  20
ENDBRANCH  17  18
ENDBRANCH  16  17
ENDBRANCH   1  16
TORSDOF 8
ENDMDL
MODEL 8
REMARK VINA RESULT:      -6.1      1.666      2.392
REMARK  Name = 
REMARK  13 active torsions:
REMARK  status: ('A' for Active; 'I' for Inactive)
REMARK    1  A    between atoms: C_1  and  C_2
REMARK    2  A    between atoms: C_2  and  C_3
REMARK    3  A    between atoms: C_2  and  O_4
REMARK    4  A    between atoms: O_4  and  C_5
REMARK    5  A    between atoms: C_5  and  C_6
REMARK    6  A    between atoms: C_6  and  C_7
REMARK    7  A    between atoms: C_7  and  N_8
REMARK    8  A    between atoms: C_7  and  C_16
REMARK    9  A    between atoms: C_9  and  O_11
REMARK   10  A    between atoms: O_11  and  C_12
REMARK   11  A    between atoms: C_12  and  C_13
REMARK   12  A    between atoms: C_12  and  C_14
REMARK   13  A    between atoms: C_12  and  C_15
REMARK                            x       y       z     vdW  Elec       q    Type
REMARK                         _______ _______ _______ _____ _____    ______ ____
ROOT
ATOM      1  C   UNL     1       5.093   6.188  18.101  0.00  0.00    +0.000 C 
ENDROOT
BRANCH   1   2
ATOM      2  C   UNL     1       6.345   5.415  18.594  0.00  0.00    +0.000 C 
ATOM      3  N   UNL     1       7.564   5.886  18.196  0.00  0.00    +0.000 N 
ATOM      4  O   UNL     1       6.270   4.424  19.310  0.00  0.00    +0.000 OA
ATOM      5  H   UNL     1       7.626   6.529  17.404  0.00  0.00    +0.000 HD
ATOM      6  H   UNL     1       8.373   5.311  18.393  0.00  0.00    +0.000 HD
ENDBRANCH   1   2
BRANCH   1   7
ATOM      7  N   UNL     1       3.922   5.305  18.070  0.00  0.00    +0.000 N 
ATOM      8  C   UNL     1       2.843   5.454  18.890  0.00  0.00    +0.000 C 
ATOM      9  O   UNL     1       2.771   6.314  19.752  0.00  0.00    +0.000 OA
ATOM     10  H   UNL     1       3.919   4.517  17.443  0.00  0.00    +0.000 HD
BRANCH   8  11
ATOM     11  O   UNL     1       1.865   4.555  18.599  0.00  0.00    +0.000 OA
BRANCH  11  12
ATOM     12  C   UNL     1       1.780   3.341  19.400  0.00  0.00    +0.000 C 
ATOM     13  C   UNL     1       3.172   2.764  19.708  0.00  0.00    +0.000 C 
ATOM     14  C   UNL     1       1.120   3.732  20.735  0.00  0.00    +0.000 C 
ATOM     15  C   UNL     1       0.881   2.293  18.726  0.00  0.00    +0.000 C 
ENDBRANCH  11  12
ENDBRANCH   8  11
ENDBRANCH   1   7
BRANCH   1  16
ATOM     16  C   UNL     1       5.381   6.926  16.789  0.00  0.00    +0.000 C 
BRANCH  16  17
ATOM     17  C   UNL     1       5.313   6.040  15.550  0.00  0.00    +0.000 C 
BRANCH  17  18
ATOM     18  O   UNL     1       6.612   5.677  15.076  0.00  0.00    +0.000 OA
BRANCH  18  20
ATOM     19  C   UNL     1       5.759   3.486  15.634  0.00  0.00    +0.000 C 
ATOM     20  C   UNL     1       6.711   4.280  14.741  0.00  0.00    +0.000 C 
ATOM     21  C   UNL     1       6.369   4.021  13.274  0.00  0.00    +0.000 C 
ENDBRANCH  18  20
ENDBRANCH  17  18
ENDBRANCH  16  17
ENDBRANCH   1  16
TORSDOF 8
ENDMDL
MODEL 9
REMARK VINA RESULT:      -6.1      2.549      6.279
REMARK  Name = 
REMARK  13 active torsions:
REMARK  status: ('A' for Active; 'I' for Inactive)
REMARK    1  A    between atoms: C_1  and  C_2
REMARK    2  A    between atoms: C_2  and  C_3
REMARK    3  A    between atoms: C_2  and  O_4
REMARK    4  A    between atoms: O_4  and  C_5
REMARK    5  A    between atoms: C_5  and  C_6
REMARK    6  A    between atoms: C_6  and  C_7
REMARK    7  A    between atoms: C_7  and  N_8
REMARK    8  A    between atoms: C_7  and  C_16
REMARK    9  A    between atoms: C_9  and  O_11
REMARK   10  A    between atoms: O_11  and  C_12
REMARK   11  A    between atoms: C_12  and  C_13
REMARK   12  A    between atoms: C_12  and  C_14
REMARK   13  A    between atoms: C_12  and  C_15
REMARK                            x       y       z     vdW  Elec       q    Type
REMARK                         _______ _______ _______ _____ _____    ______ ____
ROOT
ATOM      1  C   UNL     1       3.497   3.345  19.449  0.00  0.00    +0.000 C 
ENDROOT
BRANCH   1   2
ATOM      2  C   UNL     1       4.323   2.040  19.592  0.00  0.00    +0.000 C 
ATOM      3  N   UNL     1       4.197   1.111  18.599  0.00  0.00    +0.000 N 
ATOM      4  O   UNL     1       5.064   1.827  20.545  0.00  0.00    +0.000 OA
ATOM      5  H   UNL     1       3.403   1.157  17.958  0.00  0.00    +0.000 HD
ATOM      6  H   UNL     1       4.618   0.203  18.753  0.00  0.00    +0.000 HD
ENDBRANCH   1   2
BRANCH   1   7
ATOM      7  N   UNL     1       4.327   4.422  18.900  0.00  0.00    +0.000 N 
ATOM      8  C   UNL     1       4.598   4.564  17.571  0.00  0.00    +0.000 C 
ATOM      9  O   UNL     1       4.203   3.782  16.721  0.00  0.00    +0.000 OA
ATOM     10  H   UNL     1       4.763   5.076  19.531  0.00  0.00    +0.000 HD
BRANCH   8  11
ATOM     11  O   UNL     1       5.321   5.688  17.324  0.00  0.00    +0.000 OA
BRANCH  11  12
ATOM     12  C   UNL     1       6.704   5.541  16.892  0.00  0.00    +0.000 C 
ATOM     13  C   UNL     1       6.797   5.167  15.402  0.00  0.00    +0.000 C 
ATOM     14  C   UNL     1       7.379   6.912  17.081  0.00  0.00    +0.000 C 
ATOM     15  C   UNL     1       7.455   4.528  17.768  0.00  0.00    +0.000 C 
ENDBRANCH  11  12
ENDBRANCH   8  11
ENDBRANCH   1   7
BRANCH   1  16
ATOM     16  C   UNL     1       2.776   3.689  20.758  0.00  0.00    +0.000 C 
BRANCH  16  17
ATOM     17  C   UNL     1       1.598   4.640  20.587  0.00  0.00    +0.000 C 
BRANCH  17  18
ATOM     18  O   UNL     1       1.774   5.519  19.473  0.00  0.00    +0.000 OA
BRANCH  18  20
ATOM     19  C   UNL     1       2.491   7.655  18.603  0.00  0.00    +0.000 C 
ATOM     20  C   UNL     1       2.316   6.797  19.854  0.00  0.00    +0.000 C 
ATOM     21  C   UNL     1       1.411   7.524  20.848  0.00  0.00    +0.000 C 
ENDBRANCH  18  20
ENDBRANCH  17  18
ENDBRANCH  16  17
ENDBRANCH   1  16
TORSDOF 8
ENDMDL
