MODEL 1
REMARK VINA RESULT:      -6.4      0.000      0.000
REMARK  Name = 
REMARK  11 active torsions:
REMARK  status: ('A' for Active; 'I' for Inactive)
REMARK    1  A    between atoms: C_1  and  C_2
REMARK    2  A    between atoms: C_2  and  O_3
REMARK    3  A    between atoms: O_3  and  C_4
REMARK    4  A    between atoms: C_6  and  N_7
REMARK    5  A    between atoms: N_7  and  C_8
REMARK    6  A    between atoms: C_9  and  C_11
REMARK    7  A    between atoms: C_15  and  C_16
REMARK    8  A    between atoms: C_18  and  C_19
REMARK    9  A    between atoms: C_18  and  C_21
REMARK   10  A    between atoms: C_19  and  C_20
REMARK   11  A    between atoms: C_21  and  C_22
REMARK                            x       y       z     vdW  Elec       q    Type
REMARK                         _______ _______ _______ _____ _____    ______ ____
ROOT
ATOM      1  C   UNL     1       6.933   5.213  15.655  0.00  0.00    +0.000 C 
ATOM      2  C   UNL     1       7.387   4.128  16.660  0.00  0.00    +0.000 C 
ATOM      3  C   UNL     1       6.519   4.802  17.737  0.00  0.00    +0.000 C 
ATOM      4  C   UNL     1       6.602   6.148  16.886  0.00  0.00    +0.000 C 
ENDROOT
BRANCH   3   5
ATOM      5  N   UNL     1       5.160   4.182  17.990  0.00  0.00    +0.000 N 
ATOM      6  C   UNL     1       4.629   3.153  17.103  0.00  0.00    +0.000 C 
ATOM      7  C   UNL     1       4.428   4.619  19.116  0.00  0.00    +0.000 C 
ATOM      8  O   UNL     1       4.857   5.493  19.881  0.00  0.00    +0.000 OA
BRANCH   7   9
ATOM      9  C   UNL     1       3.044   4.091  19.391  0.00  0.00    +0.000 A 
ATOM     10  C   UNL     1       2.099   4.150  18.391  0.00  0.00    +0.000 A 
ATOM     11  C   UNL     1       0.882   3.593  18.698  0.00  0.00    +0.000 A 
ATOM     12  N   UNL     1       0.607   3.017  19.883  0.00  0.00    +0.000 NA
ATOM     13  C   UNL     1       1.586   3.028  20.803  0.00  0.00    +0.000 A 
ATOM     14  C   UNL     1       1.355   2.340  22.110  0.00  0.00    +0.000 C 
ATOM     15  N   UNL     1       2.800   3.559  20.608  0.00  0.00    +0.000 NA
ENDBRANCH   7   9
ENDBRANCH   3   5
BRANCH   4  16
ATOM     16  C   UNL     1       7.733   7.031  17.477  0.00  0.00    +0.000 C 
ATOM     17  C   UNL     1       7.421   8.517  17.567  0.00  0.00    +0.000 C 
ENDBRANCH   4  16
BRANCH   4  18
ATOM     18  C   UNL     1       5.277   6.916  16.664  0.00  0.00    +0.000 C 
ATOM     19  C   UNL     1       4.807   6.938  15.216  0.00  0.00    +0.000 C 
ENDBRANCH   4  18
BRANCH   1  20
ATOM     20  O   UNL     1       7.903   5.551  14.634  0.00  0.00    +0.000 OA
BRANCH  20  22
ATOM     21  C   UNL     1       6.442   4.013  13.403  0.00  0.00    +0.000 C 
ATOM     22  C   UNL     1       7.497   5.094  13.330  0.00  0.00    +0.000 C 
ENDBRANCH  20  22
ENDBRANCH   1  20
TORSDOF 6
ENDMDL
MODEL 2
REMARK VINA RESULT:      -6.2      1.607      3.399
REMARK  Name = 
REMARK  11 active torsions:
REMARK  status: ('A' for Active; 'I' for Inactive)
REMARK    1  A    between atoms: C_1  and  C_2
REMARK    2  A    between atoms: C_2  and  O_3
REMARK    3  A    between atoms: O_3  and  C_4
REMARK    4  A    between atoms: C_6  and  N_7
REMARK    5  A    between atoms: N_7  and  C_8
REMARK    6  A    between atoms: C_9  and  C_11
REMARK    7  A    between atoms: C_15  and  C_16
REMARK    8  A    between atoms: C_18  and  C_19
REMARK    9  A    between atoms: C_18  and  C_21
REMARK   10  A    between atoms: C_19  and  C_20
REMARK   11  A    between atoms: C_21  and  C_22
REMARK                            x       y       z     vdW  Elec       q    Type
REMARK                         _______ _______ _______ _____ _____    ______ ____
ROOT
ATOM      1  C   UNL     1       6.457   7.105  17.221  0.00  0.00    +0.000 C 
ATOM      2  C   UNL     1       5.191   7.422  16.390  0.00  0.00    +0.000 C 
ATOM      3  C   UNL     1       4.837   5.925  16.410  0.00  0.00    +0.000 C 
ATOM      4  C   UNL     1       6.377   5.618  16.689  0.00  0.00    +0.000 C 
ENDROOT
BRANCH   3   5
ATOM      5  N   UNL     1       3.810   5.491  17.435  0.00  0.00    +0.000 N 
ATOM      6  C   UNL     1       3.257   6.443  18.392  0.00  0.00    +0.000 C 
ATOM      7  C   UNL     1       3.394   4.141  17.431  0.00  0.00    +0.000 C 
ATOM      8  O   UNL     1       3.850   3.314  16.630  0.00  0.00    +0.000 OA
BRANCH   7   9
ATOM      9  C   UNL     1       2.423   3.628  18.462  0.00  0.00    +0.000 A 
ATOM     10  C   UNL     1       1.126   3.365  18.082  0.00  0.00    +0.000 A 
ATOM     11  C   UNL     1       0.320   2.841  19.063  0.00  0.00    +0.000 A 
ATOM     12  N   UNL     1       0.744   2.588  20.315  0.00  0.00    +0.000 NA
ATOM     13  C   UNL     1       2.020   2.899  20.597  0.00  0.00    +0.000 A 
ATOM     14  C   UNL     1       2.559   2.571  21.953  0.00  0.00    +0.000 C 
ATOM     15  N   UNL     1       2.880   3.426  19.717  0.00  0.00    +0.000 NA
ENDBRANCH   7   9
ENDBRANCH   3   5
BRANCH   4  16
ATOM     16  C   UNL     1       7.058   5.272  15.338  0.00  0.00    +0.000 C 
ATOM     17  C   UNL     1       6.544   4.017  14.651  0.00  0.00    +0.000 C 
ENDBRANCH   4  16
BRANCH   4  18
ATOM     18  C   UNL     1       6.694   4.605  17.813  0.00  0.00    +0.000 C 
ATOM     19  C   UNL     1       8.161   4.563  18.217  0.00  0.00    +0.000 C 
ENDBRANCH   4  18
BRANCH   1  20
ATOM     20  O   UNL     1       7.587   7.979  16.980  0.00  0.00    +0.000 OA
BRANCH  20  22
ATOM     21  C   UNL     1       8.633   9.789  18.262  0.00  0.00    +0.000 C 
ATOM     22  C   UNL     1       8.274   8.322  18.199  0.00  0.00    +0.000 C 
ENDBRANCH  20  22
ENDBRANCH   1  20
TORSDOF 6
ENDMDL
MODEL 3
REMARK VINA RESULT:      -5.9      2.611      6.625
REMARK  Name = 
REMARK  11 active torsions:
REMARK  status: ('A' for Active; 'I' for Inactive)
REMARK    1  A    between atoms: C_1  and  C_2
REMARK    2  A    between atoms: C_2  and  O_3
REMARK    3  A    between atoms: O_3  and  C_4
REMARK    4  A    between atoms: C_6  and  N_7
REMARK    5  A    between atoms: N_7  and  C_8
REMARK    6  A    between atoms: C_9  and  C_11
REMARK    7  A    between atoms: C_15  and  C_16
REMARK    8  A    between atoms: C_18  and  C_19
REMARK    9  A    between atoms: C_18  and  C_21
REMARK   10  A    between atoms: C_19  and  C_20
REMARK   11  A    between atoms: C_21  and  C_22
REMARK                            x       y       z     vdW  Elec       q    Type
REMARK                         _______ _______ _______ _____ _____    ______ ____
ROOT
ATOM      1  C   UNL     1       3.271   6.330  18.682  0.00  0.00    +0.000 C 
ATOM      2  C   UNL     1       4.805   6.454  18.845  0.00  0.00    +0.000 C 
ATOM      3  C   UNL     1       4.967   5.142  18.058  0.00  0.00    +0.000 C 
ATOM      4  C   UNL     1       3.467   4.777  18.462  0.00  0.00    +0.000 C 
ENDROOT
BRANCH   3   5
ATOM      5  N   UNL     1       5.314   5.277  16.590  0.00  0.00    +0.000 N 
ATOM      6  C   UNL     1       5.152   6.550  15.895  0.00  0.00    +0.000 C 
ATOM      7  C   UNL     1       5.812   4.140  15.916  0.00  0.00    +0.000 C 
ATOM      8  O   UNL     1       5.956   3.049  16.484  0.00  0.00    +0.000 OA
BRANCH   7   9
ATOM      9  C   UNL     1       6.117   4.188  14.442  0.00  0.00    +0.000 A 
ATOM     10  C   UNL     1       7.290   4.777  14.025  0.00  0.00    +0.000 A 
ATOM     11  C   UNL     1       7.527   4.725  12.673  0.00  0.00    +0.000 A 
ATOM     12  N   UNL     1       6.690   4.141  11.795  0.00  0.00    +0.000 NA
ATOM     13  C   UNL     1       5.560   3.613  12.295  0.00  0.00    +0.000 A 
ATOM     14  C   UNL     1       4.632   2.890  11.371  0.00  0.00    +0.000 C 
ATOM     15  N   UNL     1       5.231   3.625  13.593  0.00  0.00    +0.000 NA
ENDBRANCH   7   9
ENDBRANCH   3   5
BRANCH   4  16
ATOM     16  C   UNL     1       3.508   3.847  19.703  0.00  0.00    +0.000 C 
ATOM     17  C   UNL     1       4.002   2.432  19.443  0.00  0.00    +0.000 C 
ENDBRANCH   4  16
BRANCH   4  18
ATOM     18  C   UNL     1       2.549   4.253  17.333  0.00  0.00    +0.000 C 
ATOM     19  C   UNL     1       1.179   3.793  17.809  0.00  0.00    +0.000 C 
ENDBRANCH   4  18
BRANCH   1  20
ATOM     20  O   UNL     1       2.490   6.890  19.765  0.00  0.00    +0.000 OA
BRANCH  20  22
ATOM     21  C   UNL     1       1.961   8.396  17.903  0.00  0.00    +0.000 C 
ATOM     22  C   UNL     1       1.839   8.118  19.384  0.00  0.00    +0.000 C 
ENDBRANCH  20  22
ENDBRANCH   1  20
TORSDOF 6
ENDMDL
MODEL 4
REMARK VINA RESULT:      -5.9      2.623      6.854
REMARK  Name = 
REMARK  11 active torsions:
REMARK  status: ('A' for Active; 'I' for Inactive)
REMARK    1  A    between atoms: C_1  and  C_2
REMARK    2  A    between atoms: C_2  and  O_3
REMARK    3  A    between atoms: O_3  and  C_4
REMARK    4  A    between atoms: C_6  and  N_7
REMARK    5  A    between atoms: N_7  and  C_8
REMARK    6  A    between atoms: C_9  and  C_11
REMARK    7  A    between atoms: C_15  and  C_16
REMARK    8  A    between atoms: C_18  and  C_19
REMARK    9  A    between atoms: C_18  and  C_21
REMARK   10  A    between atoms: C_19  and  C_20
REMARK   11  A    between atoms: C_21  and  C_22
REMARK                            x       y       z     vdW  Elec       q    Type
REMARK                         _______ _______ _______ _____ _____    ______ ____
ROOT
ATOM      1  C   UNL     1       2.802   6.136  18.300  0.00  0.00    +0.000 C 
ATOM      2  C   UNL     1       4.144   6.892  18.447  0.00  0.00    +0.000 C 
ATOM      3  C   UNL     1       4.874   5.641  17.928  0.00  0.00    +0.000 C 
ATOM      4  C   UNL     1       3.611   4.780  18.383  0.00  0.00    +0.000 C 
ENDROOT
BRANCH   3   5
ATOM      5  N   UNL     1       5.262   5.648  16.464  0.00  0.00    +0.000 N 
ATOM      6  C   UNL     1       4.772   6.686  15.564  0.00  0.00    +0.000 C 
ATOM      7  C   UNL     1       6.121   4.629  15.998  0.00  0.00    +0.000 C 
ATOM      8  O   UNL     1       6.548   3.736  16.743  0.00  0.00    +0.000 OA
BRANCH   7   9
ATOM      9  C   UNL     1       6.496   4.539  14.542  0.00  0.00    +0.000 A 
ATOM     10  C   UNL     1       7.537   5.310  14.075  0.00  0.00    +0.000 A 
ATOM     11  C   UNL     1       7.859   5.127  12.753  0.00  0.00    +0.000 A 
ATOM     12  N   UNL     1       7.221   4.256  11.947  0.00  0.00    +0.000 NA
ATOM     13  C   UNL     1       6.204   3.565  12.489  0.00  0.00    +0.000 A 
ATOM     14  C   UNL     1       5.509   2.536  11.656  0.00  0.00    +0.000 C 
ATOM     15  N   UNL     1       5.803   3.683  13.761  0.00  0.00    +0.000 NA
ENDBRANCH   7   9
ENDBRANCH   3   5
BRANCH   4  16
ATOM     16  C   UNL     1       3.910   4.175  19.781  0.00  0.00    +0.000 C 
ATOM     17  C   UNL     1       2.689   3.763  20.588  0.00  0.00    +0.000 C 
ENDBRANCH   4  16
BRANCH   4  18
ATOM     18  C   UNL     1       3.071   3.744  17.370  0.00  0.00    +0.000 C 
ATOM     19  C   UNL     1       3.464   2.307  17.680  0.00  0.00    +0.000 C 
ENDBRANCH   4  18
BRANCH   1  20
ATOM     20  O   UNL     1       1.776   6.513  19.249  0.00  0.00    +0.000 OA
BRANCH  20  22
ATOM     21  C   UNL     1       1.111   8.037  21.052  0.00  0.00    +0.000 C 
ATOM     22  C   UNL     1       2.209   7.576  20.120  0.00  0.00    +0.000 C 
ENDBRANCH  20  22
ENDBRANCH   1  20
TORSDOF 6
ENDMDL
MODEL 5
REMARK VINA RESULT:      -5.9      4.752      6.029
REMARK  Name = 
REMARK  11 active torsions:
REMARK  status: ('A' for Active; 'I' for Inactive)
REMARK    1  A    between atoms: C_1  and  C_2
REMARK    2  A    between atoms: C_2  and  O_3
REMARK    3  A    between atoms: O_3  and  C_4
REMARK    4  A    between atoms: C_6  and  N_7
REMARK    5  A    between atoms: N_7  and  C_8
REMARK    6  A    between atoms: C_9  and  C_11
REMARK    7  A    between atoms: C_15  and  C_16
REMARK    8  A    between atoms: C_18  and  C_19
REMARK    9  A    between atoms: C_18  and  C_21
REMARK   10  A    between atoms: C_19  and  C_20
REMARK   11  A    between atoms: C_21  and  C_22
REMARK                            x       y       z     vdW  Elec       q    Type
REMARK                         _______ _______ _______ _____ _____    ______ ____
ROOT
ATOM      1  C   UNL     1       2.866   5.011  17.697  0.00  0.00    +0.000 C 
ATOM      2  C   UNL     1       2.064   5.091  19.018  0.00  0.00    +0.000 C 
ATOM      3  C   UNL     1       2.873   6.342  19.400  0.00  0.00    +0.000 C 
ATOM      4  C   UNL     1       4.009   5.850  18.394  0.00  0.00    +0.000 C 
ENDROOT
BRANCH   3   5
ATOM      5  N   UNL     1       2.205   7.678  19.148  0.00  0.00    +0.000 N 
ATOM      6  C   UNL     1       2.338   8.352  17.861  0.00  0.00    +0.000 C 
ATOM      7  C   UNL     1       1.438   8.246  20.190  0.00  0.00    +0.000 C 
ATOM      8  O   UNL     1       1.312   7.694  21.291  0.00  0.00    +0.000 OA
BRANCH   7   9
ATOM      9  C   UNL     1       0.799   9.601  20.029  0.00  0.00    +0.000 A 
ATOM     10  C   UNL     1       1.268  10.651  20.786  0.00  0.00    +0.000 A 
ATOM     11  C   UNL     1       0.678  11.866  20.537  0.00  0.00    +0.000 A 
ATOM     12  N   UNL     1      -0.290  12.047  19.619  0.00  0.00    +0.000 NA
ATOM     13  C   UNL     1      -0.697  10.957  18.946  0.00  0.00    +0.000 A 
ATOM     14  C   UNL     1      -1.720  11.118  17.867  0.00  0.00    +0.000 C 
ATOM     15  N   UNL     1      -0.197   9.728  19.126  0.00  0.00    +0.000 NA
ENDBRANCH   7   9
ENDBRANCH   3   5
BRANCH   4  16
ATOM     16  C   UNL     1       5.093   5.099  19.212  0.00  0.00    +0.000 C 
ATOM     17  C   UNL     1       6.511   5.626  19.053  0.00  0.00    +0.000 C 
ENDBRANCH   4  16
BRANCH   4  18
ATOM     18  C   UNL     1       4.592   6.909  17.429  0.00  0.00    +0.000 C 
ATOM     19  C   UNL     1       5.107   6.336  16.116  0.00  0.00    +0.000 C 
ENDBRANCH   4  18
BRANCH   1  20
ATOM     20  O   UNL     1       3.062   3.674  17.176  0.00  0.00    +0.000 OA
BRANCH  20  22
ATOM     21  C   UNL     1       3.436   1.631  18.482  0.00  0.00    +0.000 C 
ATOM     22  C   UNL     1       2.447   2.673  18.011  0.00  0.00    +0.000 C 
ENDBRANCH  20  22
ENDBRANCH   1  20
TORSDOF 6
ENDMDL
MODEL 6
REMARK VINA RESULT:      -5.9      4.380      5.865
REMARK  Name = 
REMARK  11 active torsions:
REMARK  status: ('A' for Active; 'I' for Inactive)
REMARK    1  A    between atoms: C_1  and  C_2
REMARK    2  A    between atoms: C_2  and  O_3
REMARK    3  A    between atoms: O_3  and  C_4
REMARK    4  A    between atoms: C_6  and  N_7
REMARK    5  A    between atoms: N_7  and  C_8
REMARK    6  A    between atoms: C_9  and  C_11
REMARK    7  A    between atoms: C_15  and  C_16
REMARK    8  A    between atoms: C_18  and  C_19
REMARK    9  A    between atoms: C_18  and  C_21
REMARK   10  A    between atoms: C_19  and  C_20
REMARK   11  A    between atoms: C_21  and  C_22
REMARK                            x       y       z     vdW  Elec       q    Type
REMARK                         _______ _______ _______ _____ _____    ______ ____
ROOT
ATOM      1  C   UNL     1       4.621   5.190  19.196  0.00  0.00    +0.000 C 
ATOM      2  C   UNL     1       4.531   6.349  18.175  0.00  0.00    +0.000 C 
ATOM      3  C   UNL     1       2.999   6.216  18.201  0.00  0.00    +0.000 C 
ATOM      4  C   UNL     1       3.190   4.719  18.716  0.00  0.00    +0.000 C 
ENDROOT
BRANCH   3   5
ATOM      5  N   UNL     1       2.253   7.199  19.080  0.00  0.00    +0.000 N 
ATOM      6  C   UNL     1       1.931   6.872  20.465  0.00  0.00    +0.000 C 
ATOM      7  C   UNL     1       1.889   8.446  18.525  0.00  0.00    +0.000 C 
ATOM      8  O   UNL     1       2.149   8.745  17.351  0.00  0.00    +0.000 OA
BRANCH   7   9
ATOM      9  C   UNL     1       1.091   9.444  19.322  0.00  0.00    +0.000 A 
ATOM     10  C   UNL     1       0.487  10.491  18.663  0.00  0.00    +0.000 A 
ATOM     11  C   UNL     1      -0.273  11.322  19.449  0.00  0.00    +0.000 A 
ATOM     12  N   UNL     1      -0.438  11.145  20.774  0.00  0.00    +0.000 NA
ATOM     13  C   UNL     1       0.210  10.108  21.331  0.00  0.00    +0.000 A 
ATOM     14  C   UNL     1       0.004   9.827  22.785  0.00  0.00    +0.000 C 
ATOM     15  N   UNL     1       0.986   9.251  20.655  0.00  0.00    +0.000 NA
ENDBRANCH   7   9
ENDBRANCH   3   5
BRANCH   4  16
ATOM     16  C   UNL     1       3.089   3.766  17.495  0.00  0.00    +0.000 C 
ATOM     17  C   UNL     1       3.519   2.330  17.751  0.00  0.00    +0.000 C 
ENDBRANCH   4  16
BRANCH   4  18
ATOM     18  C   UNL     1       2.317   4.276  19.913  0.00  0.00    +0.000 C 
ATOM     19  C   UNL     1       1.020   3.586  19.515  0.00  0.00    +0.000 C 
ENDBRANCH   4  18
BRANCH   1  20
ATOM     20  O   UNL     1       5.808   4.368  19.091  0.00  0.00    +0.000 OA
BRANCH  20  22
ATOM     21  C   UNL     1       7.870   5.696  19.087  0.00  0.00    +0.000 C 
ATOM     22  C   UNL     1       6.819   4.981  18.268  0.00  0.00    +0.000 C 
ENDBRANCH  20  22
ENDBRANCH   1  20
TORSDOF 6
ENDMDL
MODEL 7
REMARK VINA RESULT:      -5.8      4.674      6.075
REMARK  Name = 
REMARK  11 active torsions:
REMARK  status: ('A' for Active; 'I' for Inactive)
REMARK    1  A    between atoms: C_1  and  C_2
REMARK    2  A    between atoms: C_2  and  O_3
REMARK    3  A    between atoms: O_3  and  C_4
REMARK    4  A    between atoms: C_6  and  N_7
REMARK    5  A    between atoms: N_7  and  C_8
REMARK    6  A    between atoms: C_9  and  C_11
REMARK    7  A    between atoms: C_15  and  C_16
REMARK    8  A    between atoms: C_18  and  C_19
REMARK    9  A    between atoms: C_18  and  C_21
REMARK   10  A    between atoms: C_19  and  C_20
REMARK   11  A    between atoms: C_21  and  C_22
REMARK                            x       y       z     vdW  Elec       q    Type
REMARK                         _______ _______ _______ _____ _____    ______ ____
ROOT
ATOM      1  C   UNL     1       3.033   4.956  17.613  0.00  0.00    +0.000 C 
ATOM      2  C   UNL     1       2.119   5.047  18.858  0.00  0.00    +0.000 C 
ATOM      3  C   UNL     1       2.855   6.334  19.269  0.00  0.00    +0.000 C 
ATOM      4  C   UNL     1       4.087   5.851  18.378  0.00  0.00    +0.000 C 
ENDROOT
BRANCH   3   5
ATOM      5  N   UNL     1       2.171   7.639  18.921  0.00  0.00    +0.000 N 
ATOM      6  C   UNL     1       2.125   8.118  17.543  0.00  0.00    +0.000 C 
ATOM      7  C   UNL     1       1.568   8.375  19.965  0.00  0.00    +0.000 C 
ATOM      8  O   UNL     1       1.596   7.991  21.142  0.00  0.00    +0.000 OA
BRANCH   7   9
ATOM      9  C   UNL     1       0.927   9.712  19.700  0.00  0.00    +0.000 A 
ATOM     10  C   UNL     1      -0.379   9.911  20.088  0.00  0.00    +0.000 A 
ATOM     11  C   UNL     1      -0.872  11.174  19.869  0.00  0.00    +0.000 A 
ATOM     12  N   UNL     1      -0.150  12.168  19.318  0.00  0.00    +0.000 NA
ATOM     13  C   UNL     1       1.108  11.870  18.951  0.00  0.00    +0.000 A 
ATOM     14  C   UNL     1       1.974  12.957  18.400  0.00  0.00    +0.000 C 
ATOM     15  N   UNL     1       1.675  10.667  19.108  0.00  0.00    +0.000 NA
ENDBRANCH   7   9
ENDBRANCH   3   5
BRANCH   4  16
ATOM     16  C   UNL     1       5.119   5.158  19.307  0.00  0.00    +0.000 C 
ATOM     17  C   UNL     1       6.571   5.544  19.070  0.00  0.00    +0.000 C 
ENDBRANCH   4  16
BRANCH   4  18
ATOM     18  C   UNL     1       4.718   6.901  17.434  0.00  0.00    +0.000 C 
ATOM     19  C   UNL     1       5.126   6.349  16.075  0.00  0.00    +0.000 C 
ENDBRANCH   4  18
BRANCH   1  20
ATOM     20  O   UNL     1       3.312   3.612  17.152  0.00  0.00    +0.000 OA
BRANCH  20  22
ATOM     21  C   UNL     1       3.469   1.567  18.497  0.00  0.00    +0.000 C 
ATOM     22  C   UNL     1       2.571   2.621  17.890  0.00  0.00    +0.000 C 
ENDBRANCH  20  22
ENDBRANCH   1  20
TORSDOF 6
ENDMDL
MODEL 8
REMARK VINA RESULT:      -5.8      4.677      6.081
REMARK  Name = 
REMARK  11 active torsions:
REMARK  status: ('A' for Active; 'I' for Inactive)
REMARK    1  A    between atoms: C_1  and  C_2
REMARK    2  A    between atoms: C_2  and  O_3
REMARK    3  A    between atoms: O_3  and  C_4
REMARK    4  A    between atoms: C_6  and  N_7
REMARK    5  A    between atoms: N_7  and  C_8
REMARK    6  A    between atoms: C_9  and  C_11
REMARK    7  A    between atoms: C_15  and  C_16
REMARK    8  A    between atoms: C_18  and  C_19
REMARK    9  A    between atoms: C_18  and  C_21
REMARK   10  A    between atoms: C_19  and  C_20
REMARK   11  A    between atoms: C_21  and  C_22
REMARK                            x       y       z     vdW  Elec       q    Type
REMARK                         _______ _______ _______ _____ _____    ______ ____
ROOT
ATOM      1  C   UNL     1       4.170   5.493  18.619  0.00  0.00    +0.000 C 
ATOM      2  C   UNL     1       3.784   6.660  17.679  0.00  0.00    +0.000 C 
ATOM      3  C   UNL     1       2.349   6.591  18.229  0.00  0.00    +0.000 C 
ATOM      4  C   UNL     1       2.644   5.085  18.662  0.00  0.00    +0.000 C 
ENDROOT
BRANCH   3   5
ATOM      5  N   UNL     1       1.990   7.600  19.299  0.00  0.00    +0.000 N 
ATOM      6  C   UNL     1       2.161   7.286  20.714  0.00  0.00    +0.000 C 
ATOM      7  C   UNL     1       1.496   8.859  18.890  0.00  0.00    +0.000 C 
ATOM      8  O   UNL     1       1.340   9.147  17.696  0.00  0.00    +0.000 OA
BRANCH   7   9
ATOM      9  C   UNL     1       1.060   9.885  19.903  0.00  0.00    +0.000 A 
ATOM     10  C   UNL     1       1.197  11.221  19.597  0.00  0.00    +0.000 A 
ATOM     11  C   UNL     1       0.720  12.094  20.544  0.00  0.00    +0.000 A 
ATOM     12  N   UNL     1       0.149  11.698  21.697  0.00  0.00    +0.000 NA
ATOM     13  C   UNL     1       0.081  10.374  21.916  0.00  0.00    +0.000 A 
ATOM     14  C   UNL     1      -0.607   9.882  23.149  0.00  0.00    +0.000 C 
ATOM     15  N   UNL     1       0.530   9.444  21.064  0.00  0.00    +0.000 NA
ENDBRANCH   7   9
ENDBRANCH   3   5
BRANCH   4  16
ATOM     16  C   UNL     1       2.092   4.143  17.559  0.00  0.00    +0.000 C 
ATOM     17  C   UNL     1       2.526   2.689  17.666  0.00  0.00    +0.000 C 
ENDBRANCH   4  16
BRANCH   4  18
ATOM     18  C   UNL     1       2.216   4.673  20.090  0.00  0.00    +0.000 C 
ATOM     19  C   UNL     1       0.833   4.040  20.166  0.00  0.00    +0.000 C 
ENDBRANCH   4  18
BRANCH   1  20
ATOM     20  O   UNL     1       5.215   4.623  18.122  0.00  0.00    +0.000 OA
BRANCH  20  22
ATOM     21  C   UNL     1       5.739   3.878  15.845  0.00  0.00    +0.000 C 
ATOM     22  C   UNL     1       5.686   5.030  16.822  0.00  0.00    +0.000 C 
ENDBRANCH  20  22
ENDBRANCH   1  20
TORSDOF 6
ENDMDL
MODEL 9
REMARK VINA RESULT:      -5.8      4.936      6.774
REMARK  Name = 
REMARK  11 active torsions:
REMARK  status: ('A' for Active; 'I' for Inactive)
REMARK    1  A    between atoms: C_1  and  C_2
REMARK    2  A    between atoms: C_2  and  O_3
REMARK    3  A    between atoms: O_3  and  C_4
REMARK    4  A    between atoms: C_6  and  N_7
REMARK    5  A    between atoms: N_7  and  C_8
REMARK    6  A    between atoms: C_9  and  C_11
REMARK    7  A    between atoms: C_15  and  C_16
REMARK    8  A    between atoms: C_18  and  C_19
REMARK    9  A    between atoms: C_18  and  C_21
REMARK   10  A    between atoms: C_19  and  C_20
REMARK   11  A    between atoms: C_21  and  C_22
REMARK                            x       y       z     vdW  Elec       q    Type
REMARK                         _______ _______ _______ _____ _____    ______ ____
ROOT
ATOM      1  C   UNL     1       3.965   5.665  19.325  0.00  0.00    +0.000 C 
ATOM      2  C   UNL     1       3.937   6.728  18.201  0.00  0.00    +0.000 C 
ATOM      3  C   UNL     1       2.407   6.801  18.347  0.00  0.00    +0.000 C 
ATOM      4  C   UNL     1       2.453   5.345  18.996  0.00  0.00    +0.000 C 
ENDROOT
BRANCH   3   5
ATOM      5  N   UNL     1       1.864   7.950  19.170  0.00  0.00    +0.000 N 
ATOM      6  C   UNL     1       1.745   7.842  20.621  0.00  0.00    +0.000 C 
ATOM      7  C   UNL     1       1.488   9.133  18.497  0.00  0.00    +0.000 C 
ATOM      8  O   UNL     1       1.578   9.247  17.267  0.00  0.00    +0.000 OA
BRANCH   7   9
ATOM      9  C   UNL     1       0.881  10.290  19.247  0.00  0.00    +0.000 A 
ATOM     10  C   UNL     1      -0.440  10.217  19.626  0.00  0.00    +0.000 A 
ATOM     11  C   UNL     1      -0.903  11.282  20.360  0.00  0.00    +0.000 A 
ATOM     12  N   UNL     1      -0.137  12.335  20.704  0.00  0.00    +0.000 NA
ATOM     13  C   UNL     1       1.134  12.326  20.268  0.00  0.00    +0.000 A 
ATOM     14  C   UNL     1       2.045  13.437  20.682  0.00  0.00    +0.000 C 
ATOM     15  N   UNL     1       1.675  11.344  19.536  0.00  0.00    +0.000 NA
ENDBRANCH   7   9
ENDBRANCH   3   5
BRANCH   4  16
ATOM     16  C   UNL     1       2.135   4.306  17.888  0.00  0.00    +0.000 C 
ATOM     17  C   UNL     1       1.292   3.119  18.329  0.00  0.00    +0.000 C 
ENDBRANCH   4  16
BRANCH   4  18
ATOM     18  C   UNL     1       1.632   5.132  20.290  0.00  0.00    +0.000 C 
ATOM     19  C   UNL     1       2.267   4.162  21.276  0.00  0.00    +0.000 C 
ENDBRANCH   4  18
BRANCH   1  20
ATOM     20  O   UNL     1       5.029   4.688  19.222  0.00  0.00    +0.000 OA
BRANCH  20  22
ATOM     21  C   UNL     1       7.165   4.861  18.030  0.00  0.00    +0.000 C 
ATOM     22  C   UNL     1       6.331   5.305  19.210  0.00  0.00    +0.000 C 
ENDBRANCH  20  22
ENDBRANCH   1  20
TORSDOF 6
ENDMDL
