MODEL 1
REMARK VINA RESULT:      -9.2      0.000      0.000
REMARK  Name = 
REMARK  5 active torsions:
REMARK  status: ('A' for Active; 'I' for Inactive)
REMARK    1  A    between atoms: C_2  and  C_19
REMARK    2  A    between atoms: N_3  and  C_4
REMARK    3  A    between atoms: C_7  and  S_8
REMARK    4  A    between atoms: S_8  and  N_11
REMARK    5  A    between atoms: N_23  and  C_24
REMARK                            x       y       z     vdW  Elec       q    Type
REMARK                         _______ _______ _______ _____ _____    ______ ____
ROOT
ATOM      1  O   UNL     1       1.779   4.735  17.874  0.00  0.00    +0.000 OA
ATOM      2  C   UNL     1       2.846   4.937  18.447  0.00  0.00    +0.000 C 
ATOM      3  N   UNL     1       3.234   6.127  19.044  0.00  0.00    +0.000 N 
ATOM      4  H   UNL     1       4.186   6.201  19.385  0.00  0.00    +0.000 HD
ENDROOT
BRANCH   3   5
ATOM      5  C   UNL     1       2.466   7.305  19.153  0.00  0.00    +0.000 A 
ATOM      6  C   UNL     1       1.734   7.635  20.295  0.00  0.00    +0.000 A 
ATOM      7  C   UNL     1       1.037   8.845  20.371  0.00  0.00    +0.000 A 
ATOM      8  C   UNL     1       1.080   9.737  19.299  0.00  0.00    +0.000 A 
ATOM      9  C   UNL     1       1.756   9.397  18.126  0.00  0.00    +0.000 A 
ATOM     10  C   UNL     1       2.465   8.190  18.064  0.00  0.00    +0.000 A 
BRANCH   8  11
ATOM     11  S   UNL     1       0.253  11.317  19.446  0.00  0.00    +0.000 S 
ATOM     12  O   UNL     1       0.240  11.664  20.856  0.00  0.00    +0.000 OA
ATOM     13  O   UNL     1       0.840  12.202  18.464  0.00  0.00    +0.000 OA
BRANCH  11  14
ATOM     14  N   UNL     1      -1.359  10.962  18.958  0.00  0.00    +0.000 NA
ATOM     15  C   UNL     1      -2.308  12.101  19.078  0.00  0.00    +0.000 C 
ATOM     16  C   UNL     1      -3.739  11.689  18.747  0.00  0.00    +0.000 C 
ATOM     17  C   UNL     1      -3.811  11.011  17.386  0.00  0.00    +0.000 C 
ATOM     18  C   UNL     1      -2.906   9.789  17.393  0.00  0.00    +0.000 C 
ATOM     19  C   UNL     1      -1.465  10.175  17.701  0.00  0.00    +0.000 C 
ENDBRANCH  11  14
ENDBRANCH   8  11
ENDBRANCH   3   5
BRANCH   2  20
ATOM     20  C   UNL     1       3.864   3.804  18.526  0.00  0.00    +0.000 C 
ATOM     21  C   UNL     1       5.172   4.237  19.171  0.00  0.00    +0.000 C 
ATOM     22  C   UNL     1       6.045   4.595  17.993  0.00  0.00    +0.000 C 
ATOM     23  O   UNL     1       7.076   5.241  18.093  0.00  0.00    +0.000 OA
ATOM     24  N   UNL     1       5.418   4.119  16.830  0.00  0.00    +0.000 N 
ATOM     25  C   UNL     1       4.262   3.312  17.155  0.00  0.00    +0.000 C 
BRANCH  24  26
ATOM     26  C   UNL     1       5.920   4.240  15.514  0.00  0.00    +0.000 A 
ATOM     27  C   UNL     1       5.363   3.505  14.458  0.00  0.00    +0.000 A 
ATOM     28  C   UNL     1       5.858   3.632  13.158  0.00  0.00    +0.000 A 
ATOM     29  C   UNL     1       6.935   4.470  12.913  0.00  0.00    +0.000 A 
ATOM     30  F   UNL     1       7.420   4.580  11.669  0.00  0.00    +0.000 F 
ATOM     31  C   UNL     1       7.519   5.193  13.944  0.00  0.00    +0.000 A 
ATOM     32  C   UNL     1       7.004   5.090  15.238  0.00  0.00    +0.000 A 
ENDBRANCH  24  26
ENDBRANCH   2  20
TORSDOF 5
ENDMDL
MODEL 2
REMARK VINA RESULT:      -9.2      0.335      1.269
REMARK  Name = 
REMARK  5 active torsions:
REMARK  status: ('A' for Active; 'I' for Inactive)
REMARK    1  A    between atoms: C_2  and  C_19
REMARK    2  A    between atoms: N_3  and  C_4
REMARK    3  A    between atoms: C_7  and  S_8
REMARK    4  A    between atoms: S_8  and  N_11
REMARK    5  A    between atoms: N_23  and  C_24
REMARK                            x       y       z     vdW  Elec       q    Type
REMARK                         _______ _______ _______ _____ _____    ______ ____
ROOT
ATOM      1  O   UNL     1       1.422   5.001  17.717  0.00  0.00    +0.000 OA
ATOM      2  C   UNL     1       2.489   5.057  18.322  0.00  0.00    +0.000 C 
ATOM      3  N   UNL     1       3.005   6.177  18.956  0.00  0.00    +0.000 N 
ATOM      4  H   UNL     1       3.949   6.125  19.324  0.00  0.00    +0.000 HD
ENDROOT
BRANCH   3   5
ATOM      5  C   UNL     1       2.386   7.440  19.074  0.00  0.00    +0.000 A 
ATOM      6  C   UNL     1       2.387   8.387  18.048  0.00  0.00    +0.000 A 
ATOM      7  C   UNL     1       1.708   9.600  18.198  0.00  0.00    +0.000 A 
ATOM      8  C   UNL     1       1.013   9.863  19.378  0.00  0.00    +0.000 A 
ATOM      9  C   UNL     1       1.051   8.954  20.437  0.00  0.00    +0.000 A 
ATOM     10  C   UNL     1       1.721   7.734  20.273  0.00  0.00    +0.000 A 
BRANCH   8  11
ATOM     11  S   UNL     1       0.078  11.383  19.519  0.00  0.00    +0.000 S 
ATOM     12  O   UNL     1      -0.036  11.685  20.935  0.00  0.00    +0.000 OA
ATOM     13  O   UNL     1       0.660  12.333  18.597  0.00  0.00    +0.000 OA
BRANCH  11  14
ATOM     14  N   UNL     1      -1.478  10.942  18.929  0.00  0.00    +0.000 NA
ATOM     15  C   UNL     1      -2.503  12.016  19.021  0.00  0.00    +0.000 C 
ATOM     16  C   UNL     1      -3.883  11.525  18.597  0.00  0.00    +0.000 C 
ATOM     17  C   UNL     1      -3.835  10.883  17.219  0.00  0.00    +0.000 C 
ATOM     18  C   UNL     1      -2.856   9.720  17.248  0.00  0.00    +0.000 C 
ATOM     19  C   UNL     1      -1.462  10.186  17.649  0.00  0.00    +0.000 C 
ENDBRANCH  11  14
ENDBRANCH   8  11
ENDBRANCH   3   5
BRANCH   2  20
ATOM     20  C   UNL     1       3.356   3.804  18.401  0.00  0.00    +0.000 C 
ATOM     21  C   UNL     1       4.615   4.016  19.229  0.00  0.00    +0.000 C 
ATOM     22  C   UNL     1       5.661   4.363  18.198  0.00  0.00    +0.000 C 
ATOM     23  O   UNL     1       6.738   4.865  18.478  0.00  0.00    +0.000 OA
ATOM     24  N   UNL     1       5.132   4.070  16.930  0.00  0.00    +0.000 N 
ATOM     25  C   UNL     1       3.863   3.387  17.041  0.00  0.00    +0.000 C 
BRANCH  24  26
ATOM     26  C   UNL     1       5.804   4.242  15.697  0.00  0.00    +0.000 A 
ATOM     27  C   UNL     1       6.903   5.105  15.588  0.00  0.00    +0.000 A 
ATOM     28  C   UNL     1       7.567   5.268  14.369  0.00  0.00    +0.000 A 
ATOM     29  C   UNL     1       7.113   4.593  13.246  0.00  0.00    +0.000 A 
ATOM     30  F   UNL     1       7.740   4.761  12.074  0.00  0.00    +0.000 F 
ATOM     31  C   UNL     1       6.013   3.750  13.322  0.00  0.00    +0.000 A 
ATOM     32  C   UNL     1       5.369   3.563  14.547  0.00  0.00    +0.000 A 
ENDBRANCH  24  26
ENDBRANCH   2  20
TORSDOF 5
ENDMDL
MODEL 3
REMARK VINA RESULT:      -9.2      0.327      1.284
REMARK  Name = 
REMARK  5 active torsions:
REMARK  status: ('A' for Active; 'I' for Inactive)
REMARK    1  A    between atoms: C_2  and  C_19
REMARK    2  A    between atoms: N_3  and  C_4
REMARK    3  A    between atoms: C_7  and  S_8
REMARK    4  A    between atoms: S_8  and  N_11
REMARK    5  A    between atoms: N_23  and  C_24
REMARK                            x       y       z     vdW  Elec       q    Type
REMARK                         _______ _______ _______ _____ _____    ______ ____
ROOT
ATOM      1  O   UNL     1       1.717   4.834  17.824  0.00  0.00    +0.000 OA
ATOM      2  C   UNL     1       2.797   5.018  18.379  0.00  0.00    +0.000 C 
ATOM      3  N   UNL     1       3.230   6.212  18.935  0.00  0.00    +0.000 N 
ATOM      4  H   UNL     1       4.188   6.265  19.264  0.00  0.00    +0.000 HD
ENDROOT
BRANCH   3   5
ATOM      5  C   UNL     1       2.501   7.418  19.017  0.00  0.00    +0.000 A 
ATOM      6  C   UNL     1       1.774   7.793  20.148  0.00  0.00    +0.000 A 
ATOM      7  C   UNL     1       1.118   9.027  20.195  0.00  0.00    +0.000 A 
ATOM      8  C   UNL     1       1.199   9.897  19.108  0.00  0.00    +0.000 A 
ATOM      9  C   UNL     1       1.871   9.513  17.946  0.00  0.00    +0.000 A 
ATOM     10  C   UNL     1       2.539   8.281  17.912  0.00  0.00    +0.000 A 
BRANCH   8  11
ATOM     11  S   UNL     1       0.425  11.507  19.220  0.00  0.00    +0.000 S 
ATOM     12  O   UNL     1       0.124  11.740  20.621  0.00  0.00    +0.000 OA
ATOM     13  O   UNL     1       1.245  12.431  18.467  0.00  0.00    +0.000 OA
BRANCH  11  14
ATOM     14  N   UNL     1      -1.058  11.288  18.373  0.00  0.00    +0.000 NA
ATOM     15  C   UNL     1      -1.158  10.010  17.619  0.00  0.00    +0.000 C 
ATOM     16  C   UNL     1      -2.439   9.932  16.796  0.00  0.00    +0.000 C 
ATOM     17  C   UNL     1      -3.662  10.194  17.663  0.00  0.00    +0.000 C 
ATOM     18  C   UNL     1      -3.535  11.570  18.297  0.00  0.00    +0.000 C 
ATOM     19  C   UNL     1      -2.271  11.669  19.143  0.00  0.00    +0.000 C 
ENDBRANCH  11  14
ENDBRANCH   8  11
ENDBRANCH   3   5
BRANCH   2  20
ATOM     20  C   UNL     1       3.778   3.855  18.482  0.00  0.00    +0.000 C 
ATOM     21  C   UNL     1       5.085   4.251  19.153  0.00  0.00    +0.000 C 
ATOM     22  C   UNL     1       5.993   4.579  17.992  0.00  0.00    +0.000 C 
ATOM     23  O   UNL     1       7.041   5.193  18.112  0.00  0.00    +0.000 OA
ATOM     24  N   UNL     1       5.375   4.119  16.818  0.00  0.00    +0.000 N 
ATOM     25  C   UNL     1       4.190   3.348  17.120  0.00  0.00    +0.000 C 
BRANCH  24  26
ATOM     26  C   UNL     1       5.908   4.221  15.511  0.00  0.00    +0.000 A 
ATOM     27  C   UNL     1       7.027   5.025  15.249  0.00  0.00    +0.000 A 
ATOM     28  C   UNL     1       7.553   5.118  13.958  0.00  0.00    +0.000 A 
ATOM     29  C   UNL     1       6.942   4.436  12.917  0.00  0.00    +0.000 A 
ATOM     30  F   UNL     1       7.438   4.539  11.677  0.00  0.00    +0.000 F 
ATOM     31  C   UNL     1       5.820   3.652  13.146  0.00  0.00    +0.000 A 
ATOM     32  C   UNL     1       5.313   3.533  14.442  0.00  0.00    +0.000 A 
ENDBRANCH  24  26
ENDBRANCH   2  20
TORSDOF 5
ENDMDL
MODEL 4
REMARK VINA RESULT:      -8.8      1.947      2.768
REMARK  Name = 
REMARK  5 active torsions:
REMARK  status: ('A' for Active; 'I' for Inactive)
REMARK    1  A    between atoms: C_2  and  C_19
REMARK    2  A    between atoms: N_3  and  C_4
REMARK    3  A    between atoms: C_7  and  S_8
REMARK    4  A    between atoms: S_8  and  N_11
REMARK    5  A    between atoms: N_23  and  C_24
REMARK                            x       y       z     vdW  Elec       q    Type
REMARK                         _______ _______ _______ _____ _____    ______ ____
ROOT
ATOM      1  O   UNL     1       1.905   4.786  17.704  0.00  0.00    +0.000 OA
ATOM      2  C   UNL     1       2.919   4.981  18.367  0.00  0.00    +0.000 C 
ATOM      3  N   UNL     1       3.228   6.144  19.056  0.00  0.00    +0.000 N 
ATOM      4  H   UNL     1       4.149   6.222  19.472  0.00  0.00    +0.000 HD
ENDROOT
BRANCH   3   5
ATOM      5  C   UNL     1       2.421   7.296  19.170  0.00  0.00    +0.000 A 
ATOM      6  C   UNL     1       1.777   7.661  20.354  0.00  0.00    +0.000 A 
ATOM      7  C   UNL     1       1.037   8.845  20.426  0.00  0.00    +0.000 A 
ATOM      8  C   UNL     1       0.948   9.676  19.309  0.00  0.00    +0.000 A 
ATOM      9  C   UNL     1       1.533   9.297  18.100  0.00  0.00    +0.000 A 
ATOM     10  C   UNL     1       2.287   8.117  18.040  0.00  0.00    +0.000 A 
BRANCH   8  11
ATOM     11  S   UNL     1       0.068  11.229  19.445  0.00  0.00    +0.000 S 
ATOM     12  O   UNL     1      -0.710  11.387  18.229  0.00  0.00    +0.000 OA
ATOM     13  O   UNL     1      -0.564  11.252  20.745  0.00  0.00    +0.000 OA
BRANCH  11  14
ATOM     14  N   UNL     1       1.332  12.397  19.438  0.00  0.00    +0.000 NA
ATOM     15  C   UNL     1       1.216  13.430  18.374  0.00  0.00    +0.000 C 
ATOM     16  C   UNL     1       2.425  14.359  18.346  0.00  0.00    +0.000 C 
ATOM     17  C   UNL     1       2.682  14.963  19.719  0.00  0.00    +0.000 C 
ATOM     18  C   UNL     1       2.911  13.841  20.719  0.00  0.00    +0.000 C 
ATOM     19  C   UNL     1       1.708  12.908  20.782  0.00  0.00    +0.000 C 
ENDBRANCH  11  14
ENDBRANCH   8  11
ENDBRANCH   3   5
BRANCH   2  20
ATOM     20  C   UNL     1       3.960   3.870  18.462  0.00  0.00    +0.000 C 
ATOM     21  C   UNL     1       5.266   4.344  19.082  0.00  0.00    +0.000 C 
ATOM     22  C   UNL     1       6.120   4.690  17.886  0.00  0.00    +0.000 C 
ATOM     23  O   UNL     1       7.139   5.357  17.959  0.00  0.00    +0.000 OA
ATOM     24  N   UNL     1       5.489   4.174  16.742  0.00  0.00    +0.000 N 
ATOM     25  C   UNL     1       4.353   3.353  17.099  0.00  0.00    +0.000 C 
BRANCH  24  26
ATOM     26  C   UNL     1       5.975   4.273  15.417  0.00  0.00    +0.000 A 
ATOM     27  C   UNL     1       5.371   3.560  14.372  0.00  0.00    +0.000 A 
ATOM     28  C   UNL     1       5.851   3.665  13.064  0.00  0.00    +0.000 A 
ATOM     29  C   UNL     1       6.957   4.458  12.801  0.00  0.00    +0.000 A 
ATOM     30  F   UNL     1       7.427   4.546  11.549  0.00  0.00    +0.000 F 
ATOM     31  C   UNL     1       7.587   5.157  13.821  0.00  0.00    +0.000 A 
ATOM     32  C   UNL     1       7.088   5.077  15.124  0.00  0.00    +0.000 A 
ENDBRANCH  24  26
ENDBRANCH   2  20
TORSDOF 5
ENDMDL
MODEL 5
REMARK VINA RESULT:      -8.7      6.856      8.835
REMARK  Name = 
REMARK  5 active torsions:
REMARK  status: ('A' for Active; 'I' for Inactive)
REMARK    1  A    between atoms: C_2  and  C_19
REMARK    2  A    between atoms: N_3  and  C_4
REMARK    3  A    between atoms: C_7  and  S_8
REMARK    4  A    between atoms: S_8  and  N_11
REMARK    5  A    between atoms: N_23  and  C_24
REMARK                            x       y       z     vdW  Elec       q    Type
REMARK                         _______ _______ _______ _____ _____    ______ ____
ROOT
ATOM      1  O   UNL     1       8.003   6.604  18.956  0.00  0.00    +0.000 OA
ATOM      2  C   UNL     1       7.542   7.016  17.895  0.00  0.00    +0.000 C 
ATOM      3  N   UNL     1       7.610   8.321  17.433  0.00  0.00    +0.000 N 
ATOM      4  H   UNL     1       7.091   8.558  16.594  0.00  0.00    +0.000 HD
ENDROOT
BRANCH   3   5
ATOM      5  C   UNL     1       8.262   9.405  18.059  0.00  0.00    +0.000 A 
ATOM      6  C   UNL     1       9.012   9.270  19.228  0.00  0.00    +0.000 A 
ATOM      7  C   UNL     1       9.685  10.368  19.774  0.00  0.00    +0.000 A 
ATOM      8  C   UNL     1       9.615  11.609  19.139  0.00  0.00    +0.000 A 
ATOM      9  C   UNL     1       8.820  11.776  18.004  0.00  0.00    +0.000 A 
ATOM     10  C   UNL     1       8.162  10.667  17.454  0.00  0.00    +0.000 A 
BRANCH   8  11
ATOM     11  S   UNL     1      10.551  12.982  19.803  0.00  0.00    +0.000 S 
ATOM     12  O   UNL     1       9.895  13.392  21.032  0.00  0.00    +0.000 OA
ATOM     13  O   UNL     1      11.945  12.597  19.792  0.00  0.00    +0.000 OA
BRANCH  11  14
ATOM     14  N   UNL     1      10.322  14.217  18.626  0.00  0.00    +0.000 NA
ATOM     15  C   UNL     1       9.484  15.359  19.081  0.00  0.00    +0.000 C 
ATOM     16  C   UNL     1       9.220  16.356  17.957  0.00  0.00    +0.000 C 
ATOM     17  C   UNL     1      10.521  16.809  17.312  0.00  0.00    +0.000 C 
ATOM     18  C   UNL     1      11.253  15.593  16.767  0.00  0.00    +0.000 C 
ATOM     19  C   UNL     1      11.549  14.589  17.873  0.00  0.00    +0.000 C 
ENDBRANCH  11  14
ENDBRANCH   8  11
ENDBRANCH   3   5
BRANCH   2  20
ATOM     20  C   UNL     1       6.817   6.035  16.979  0.00  0.00    +0.000 C 
ATOM     21  C   UNL     1       5.608   6.658  16.296  0.00  0.00    +0.000 C 
ATOM     22  C   UNL     1       4.458   6.271  17.194  0.00  0.00    +0.000 C 
ATOM     23  O   UNL     1       3.359   6.800  17.141  0.00  0.00    +0.000 OA
ATOM     24  N   UNL     1       4.918   5.291  18.088  0.00  0.00    +0.000 N 
ATOM     25  C   UNL     1       6.256   4.862  17.746  0.00  0.00    +0.000 C 
BRANCH  24  26
ATOM     26  C   UNL     1       4.143   4.656  19.086  0.00  0.00    +0.000 A 
ATOM     27  C   UNL     1       4.278   3.285  19.342  0.00  0.00    +0.000 A 
ATOM     28  C   UNL     1       3.515   2.662  20.333  0.00  0.00    +0.000 A 
ATOM     29  C   UNL     1       2.588   3.403  21.050  0.00  0.00    +0.000 A 
ATOM     30  F   UNL     1       1.845   2.803  21.990  0.00  0.00    +0.000 F 
ATOM     31  C   UNL     1       2.418   4.758  20.802  0.00  0.00    +0.000 A 
ATOM     32  C   UNL     1       3.204   5.387  19.833  0.00  0.00    +0.000 A 
ENDBRANCH  24  26
ENDBRANCH   2  20
TORSDOF 5
ENDMDL
MODEL 6
REMARK VINA RESULT:      -8.7      4.481     10.861
REMARK  Name = 
REMARK  5 active torsions:
REMARK  status: ('A' for Active; 'I' for Inactive)
REMARK    1  A    between atoms: C_2  and  C_19
REMARK    2  A    between atoms: N_3  and  C_4
REMARK    3  A    between atoms: C_7  and  S_8
REMARK    4  A    between atoms: S_8  and  N_11
REMARK    5  A    between atoms: N_23  and  C_24
REMARK                            x       y       z     vdW  Elec       q    Type
REMARK                         _______ _______ _______ _____ _____    ______ ____
ROOT
ATOM      1  O   UNL     1      -1.215  10.088  18.296  0.00  0.00    +0.000 OA
ATOM      2  C   UNL     1      -0.343  10.889  18.621  0.00  0.00    +0.000 C 
ATOM      3  N   UNL     1       0.957  10.571  18.983  0.00  0.00    +0.000 N 
ATOM      4  H   UNL     1       1.548  11.314  19.340  0.00  0.00    +0.000 HD
ENDROOT
BRANCH   3   5
ATOM      5  C   UNL     1       1.538   9.285  18.998  0.00  0.00    +0.000 A 
ATOM      6  C   UNL     1       1.458   8.425  20.095  0.00  0.00    +0.000 A 
ATOM      7  C   UNL     1       2.002   7.139  20.033  0.00  0.00    +0.000 A 
ATOM      8  C   UNL     1       2.623   6.705  18.862  0.00  0.00    +0.000 A 
ATOM      9  C   UNL     1       2.766   7.572  17.777  0.00  0.00    +0.000 A 
ATOM     10  C   UNL     1       2.204   8.854  17.841  0.00  0.00    +0.000 A 
BRANCH   8  11
ATOM     11  S   UNL     1       3.238   5.026  18.771  0.00  0.00    +0.000 S 
ATOM     12  O   UNL     1       3.292   4.517  20.129  0.00  0.00    +0.000 OA
ATOM     13  O   UNL     1       2.478   4.345  17.746  0.00  0.00    +0.000 OA
BRANCH  11  14
ATOM     14  N   UNL     1       4.850   5.231  18.201  0.00  0.00    +0.000 NA
ATOM     15  C   UNL     1       5.885   5.264  19.269  0.00  0.00    +0.000 C 
ATOM     16  C   UNL     1       7.271   5.568  18.710  0.00  0.00    +0.000 C 
ATOM     17  C   UNL     1       7.628   4.610  17.583  0.00  0.00    +0.000 C 
ATOM     18  C   UNL     1       6.586   4.731  16.482  0.00  0.00    +0.000 C 
ATOM     19  C   UNL     1       5.192   4.412  17.009  0.00  0.00    +0.000 C 
ENDBRANCH  11  14
ENDBRANCH   8  11
ENDBRANCH   3   5
BRANCH   2  20
ATOM     20  C   UNL     1      -0.683  12.376  18.644  0.00  0.00    +0.000 C 
ATOM     21  C   UNL     1       0.281  13.182  19.503  0.00  0.00    +0.000 C 
ATOM     22  C   UNL     1      -0.419  13.263  20.838  0.00  0.00    +0.000 C 
ATOM     23  O   UNL     1       0.141  13.595  21.870  0.00  0.00    +0.000 OA
ATOM     24  N   UNL     1      -1.744  12.835  20.657  0.00  0.00    +0.000 N 
ATOM     25  C   UNL     1      -2.040  12.631  19.256  0.00  0.00    +0.000 C 
BRANCH  24  26
ATOM     26  C   UNL     1      -2.736  12.773  21.665  0.00  0.00    +0.000 A 
ATOM     27  C   UNL     1      -2.436  12.282  22.943  0.00  0.00    +0.000 A 
ATOM     28  C   UNL     1      -3.417  12.229  23.937  0.00  0.00    +0.000 A 
ATOM     29  C   UNL     1      -4.710  12.635  23.646  0.00  0.00    +0.000 A 
ATOM     30  F   UNL     1      -5.655  12.569  24.594  0.00  0.00    +0.000 F 
ATOM     31  C   UNL     1      -5.039  13.104  22.382  0.00  0.00    +0.000 A 
ATOM     32  C   UNL     1      -4.051  13.188  21.398  0.00  0.00    +0.000 A 
ENDBRANCH  24  26
ENDBRANCH   2  20
TORSDOF 5
ENDMDL
MODEL 7
REMARK VINA RESULT:      -8.7      4.397     10.401
REMARK  Name = 
REMARK  5 active torsions:
REMARK  status: ('A' for Active; 'I' for Inactive)
REMARK    1  A    between atoms: C_2  and  C_19
REMARK    2  A    between atoms: N_3  and  C_4
REMARK    3  A    between atoms: C_7  and  S_8
REMARK    4  A    between atoms: S_8  and  N_11
REMARK    5  A    between atoms: N_23  and  C_24
REMARK                            x       y       z     vdW  Elec       q    Type
REMARK                         _______ _______ _______ _____ _____    ______ ____
ROOT
ATOM      1  O   UNL     1       2.965  12.168  18.015  0.00  0.00    +0.000 OA
ATOM      2  C   UNL     1       1.847  12.211  18.520  0.00  0.00    +0.000 C 
ATOM      3  N   UNL     1       1.094  11.117  18.918  0.00  0.00    +0.000 N 
ATOM      4  H   UNL     1       0.138  11.279  19.216  0.00  0.00    +0.000 HD
ENDROOT
BRANCH   3   5
ATOM      5  C   UNL     1       1.485   9.762  18.870  0.00  0.00    +0.000 A 
ATOM      6  C   UNL     1       1.962   9.147  17.711  0.00  0.00    +0.000 A 
ATOM      7  C   UNL     1       2.390   7.816  17.735  0.00  0.00    +0.000 A 
ATOM      8  C   UNL     1       2.351   7.097  18.930  0.00  0.00    +0.000 A 
ATOM      9  C   UNL     1       1.819   7.677  20.084  0.00  0.00    +0.000 A 
ATOM     10  C   UNL     1       1.407   9.016  20.056  0.00  0.00    +0.000 A 
BRANCH   8  11
ATOM     11  S   UNL     1       2.982   5.423  18.962  0.00  0.00    +0.000 S 
ATOM     12  O   UNL     1       3.110   5.041  20.357  0.00  0.00    +0.000 OA
ATOM     13  O   UNL     1       2.181   4.644  18.044  0.00  0.00    +0.000 OA
BRANCH  11  14
ATOM     14  N   UNL     1       4.561   5.587  18.296  0.00  0.00    +0.000 NA
ATOM     15  C   UNL     1       5.667   5.262  19.236  0.00  0.00    +0.000 C 
ATOM     16  C   UNL     1       7.036   5.543  18.624  0.00  0.00    +0.000 C 
ATOM     17  C   UNL     1       7.188   4.845  17.281  0.00  0.00    +0.000 C 
ATOM     18  C   UNL     1       6.092   5.327  16.345  0.00  0.00    +0.000 C 
ATOM     19  C   UNL     1       4.712   5.040  16.922  0.00  0.00    +0.000 C 
ENDBRANCH  11  14
ENDBRANCH   8  11
ENDBRANCH   3   5
BRANCH   2  20
ATOM     20  C   UNL     1       1.191  13.571  18.740  0.00  0.00    +0.000 C 
ATOM     21  C   UNL     1       1.939  14.422  19.754  0.00  0.00    +0.000 C 
ATOM     22  C   UNL     1       1.212  14.150  21.049  0.00  0.00    +0.000 C 
ATOM     23  O   UNL     1       1.667  14.431  22.146  0.00  0.00    +0.000 OA
ATOM     24  N   UNL     1       0.016  13.482  20.740  0.00  0.00    +0.000 N 
ATOM     25  C   UNL     1      -0.201  13.435  19.311  0.00  0.00    +0.000 C 
BRANCH  24  26
ATOM     26  C   UNL     1      -0.958  13.059  21.675  0.00  0.00    +0.000 A 
ATOM     27  C   UNL     1      -0.857  11.812  22.307  0.00  0.00    +0.000 A 
ATOM     28  C   UNL     1      -1.818  11.401  23.235  0.00  0.00    +0.000 A 
ATOM     29  C   UNL     1      -2.903  12.221  23.508  0.00  0.00    +0.000 A 
ATOM     30  F   UNL     1      -3.832  11.820  24.385  0.00  0.00    +0.000 F 
ATOM     31  C   UNL     1      -3.038  13.451  22.879  0.00  0.00    +0.000 A 
ATOM     32  C   UNL     1      -2.060  13.876  21.976  0.00  0.00    +0.000 A 
ENDBRANCH  24  26
ENDBRANCH   2  20
TORSDOF 5
ENDMDL
MODEL 8
REMARK VINA RESULT:      -8.7      0.619      1.053
REMARK  Name = 
REMARK  5 active torsions:
REMARK  status: ('A' for Active; 'I' for Inactive)
REMARK    1  A    between atoms: C_2  and  C_19
REMARK    2  A    between atoms: N_3  and  C_4
REMARK    3  A    between atoms: C_7  and  S_8
REMARK    4  A    between atoms: S_8  and  N_11
REMARK    5  A    between atoms: N_23  and  C_24
REMARK                            x       y       z     vdW  Elec       q    Type
REMARK                         _______ _______ _______ _____ _____    ______ ____
ROOT
ATOM      1  O   UNL     1       1.720   4.826  18.622  0.00  0.00    +0.000 OA
ATOM      2  C   UNL     1       2.797   5.178  19.098  0.00  0.00    +0.000 C 
ATOM      3  N   UNL     1       3.119   6.459  19.516  0.00  0.00    +0.000 N 
ATOM      4  H   UNL     1       4.079   6.646  19.785  0.00  0.00    +0.000 HD
ENDROOT
BRANCH   3   5
ATOM      5  C   UNL     1       2.266   7.584  19.525  0.00  0.00    +0.000 A 
ATOM      6  C   UNL     1       1.548   7.986  20.652  0.00  0.00    +0.000 A 
ATOM      7  C   UNL     1       0.763   9.143  20.622  0.00  0.00    +0.000 A 
ATOM      8  C   UNL     1       0.703   9.909  19.457  0.00  0.00    +0.000 A 
ATOM      9  C   UNL     1       1.365   9.488  18.302  0.00  0.00    +0.000 A 
ATOM     10  C   UNL     1       2.163   8.337  18.346  0.00  0.00    +0.000 A 
BRANCH   8  11
ATOM     11  S   UNL     1      -0.238  11.431  19.461  0.00  0.00    +0.000 S 
ATOM     12  O   UNL     1      -0.454  11.796  20.850  0.00  0.00    +0.000 OA
ATOM     13  O   UNL     1       0.409  12.339  18.541  0.00  0.00    +0.000 OA
BRANCH  11  14
ATOM     14  N   UNL     1      -1.748  10.959  18.782  0.00  0.00    +0.000 NA
ATOM     15  C   UNL     1      -2.825  11.979  18.896  0.00  0.00    +0.000 C 
ATOM     16  C   UNL     1      -4.163  11.455  18.386  0.00  0.00    +0.000 C 
ATOM     17  C   UNL     1      -4.032  10.903  16.974  0.00  0.00    +0.000 C 
ATOM     18  C   UNL     1      -3.001   9.785  16.973  0.00  0.00    +0.000 C 
ATOM     19  C   UNL     1      -1.647  10.286  17.460  0.00  0.00    +0.000 C 
ENDBRANCH  11  14
ENDBRANCH   8  11
ENDBRANCH   3   5
BRANCH   2  20
ATOM     20  C   UNL     1       3.905   4.141  19.254  0.00  0.00    +0.000 C 
ATOM     21  C   UNL     1       5.187   4.736  19.815  0.00  0.00    +0.000 C 
ATOM     22  C   UNL     1       6.002   5.044  18.583  0.00  0.00    +0.000 C 
ATOM     23  O   UNL     1       6.979   5.775  18.589  0.00  0.00    +0.000 OA
ATOM     24  N   UNL     1       5.389   4.409  17.490  0.00  0.00    +0.000 N 
ATOM     25  C   UNL     1       4.310   3.550  17.925  0.00  0.00    +0.000 C 
BRANCH  24  26
ATOM     26  C   UNL     1       5.850   4.440  16.153  0.00  0.00    +0.000 A 
ATOM     27  C   UNL     1       7.090   5.010  15.830  0.00  0.00    +0.000 A 
ATOM     28  C   UNL     1       7.545   5.033  14.509  0.00  0.00    +0.000 A 
ATOM     29  C   UNL     1       6.745   4.518  13.500  0.00  0.00    +0.000 A 
ATOM     30  F   UNL     1       7.174   4.554  12.231  0.00  0.00    +0.000 F 
ATOM     31  C   UNL     1       5.504   3.969  13.789  0.00  0.00    +0.000 A 
ATOM     32  C   UNL     1       5.064   3.916  15.114  0.00  0.00    +0.000 A 
ENDBRANCH  24  26
ENDBRANCH   2  20
TORSDOF 5
ENDMDL
MODEL 9
REMARK VINA RESULT:      -8.7      4.358     10.536
REMARK  Name = 
REMARK  5 active torsions:
REMARK  status: ('A' for Active; 'I' for Inactive)
REMARK    1  A    between atoms: C_2  and  C_19
REMARK    2  A    between atoms: N_3  and  C_4
REMARK    3  A    between atoms: C_7  and  S_8
REMARK    4  A    between atoms: S_8  and  N_11
REMARK    5  A    between atoms: N_23  and  C_24
REMARK                            x       y       z     vdW  Elec       q    Type
REMARK                         _______ _______ _______ _____ _____    ______ ____
ROOT
ATOM      1  O   UNL     1       2.657  12.334  18.270  0.00  0.00    +0.000 OA
ATOM      2  C   UNL     1       1.459  12.219  18.515  0.00  0.00    +0.000 C 
ATOM      3  N   UNL     1       0.795  11.033  18.785  0.00  0.00    +0.000 N 
ATOM      4  H   UNL     1      -0.216  11.057  18.859  0.00  0.00    +0.000 HD
ENDROOT
BRANCH   3   5
ATOM      5  C   UNL     1       1.371   9.748  18.882  0.00  0.00    +0.000 A 
ATOM      6  C   UNL     1       1.312   8.972  20.041  0.00  0.00    +0.000 A 
ATOM      7  C   UNL     1       1.849   7.681  20.063  0.00  0.00    +0.000 A 
ATOM      8  C   UNL     1       2.440   7.158  18.913  0.00  0.00    +0.000 A 
ATOM      9  C   UNL     1       2.562   7.942  17.764  0.00  0.00    +0.000 A 
ATOM     10  C   UNL     1       2.007   9.228  17.745  0.00  0.00    +0.000 A 
BRANCH   8  11
ATOM     11  S   UNL     1       3.046   5.473  18.932  0.00  0.00    +0.000 S 
ATOM     12  O   UNL     1       3.118   5.062  20.323  0.00  0.00    +0.000 OA
ATOM     13  O   UNL     1       2.266   4.726  17.971  0.00  0.00    +0.000 OA
BRANCH  11  14
ATOM     14  N   UNL     1       4.649   5.627  18.325  0.00  0.00    +0.000 NA
ATOM     15  C   UNL     1       5.716   5.250  19.291  0.00  0.00    +0.000 C 
ATOM     16  C   UNL     1       7.110   5.523  18.735  0.00  0.00    +0.000 C 
ATOM     17  C   UNL     1       7.295   4.864  17.377  0.00  0.00    +0.000 C 
ATOM     18  C   UNL     1       6.241   5.398  16.419  0.00  0.00    +0.000 C 
ATOM     19  C   UNL     1       4.837   5.120  16.940  0.00  0.00    +0.000 C 
ENDBRANCH  11  14
ENDBRANCH   8  11
ENDBRANCH   3   5
BRANCH   2  20
ATOM     20  C   UNL     1       0.588  13.472  18.528  0.00  0.00    +0.000 C 
ATOM     21  C   UNL     1       1.184  14.589  19.372  0.00  0.00    +0.000 C 
ATOM     22  C   UNL     1       0.508  14.418  20.711  0.00  0.00    +0.000 C 
ATOM     23  O   UNL     1       0.908  14.946  21.736  0.00  0.00    +0.000 OA
ATOM     24  N   UNL     1      -0.562  13.524  20.544  0.00  0.00    +0.000 N 
ATOM     25  C   UNL     1      -0.764  13.209  19.147  0.00  0.00    +0.000 C 
BRANCH  24  26
ATOM     26  C   UNL     1      -1.455  13.108  21.558  0.00  0.00    +0.000 A 
ATOM     27  C   UNL     1      -2.636  13.819  21.816  0.00  0.00    +0.000 A 
ATOM     28  C   UNL     1      -3.519  13.401  22.815  0.00  0.00    +0.000 A 
ATOM     29  C   UNL     1      -3.208  12.290  23.584  0.00  0.00    +0.000 A 
ATOM     30  F   UNL     1      -4.047  11.899  24.553  0.00  0.00    +0.000 F 
ATOM     31  C   UNL     1      -2.035  11.581  23.364  0.00  0.00    +0.000 A 
ATOM     32  C   UNL     1      -1.168  11.980  22.344  0.00  0.00    +0.000 A 
ENDBRANCH  24  26
ENDBRANCH   2  20
TORSDOF 5
ENDMDL
