MODEL 1
REMARK VINA RESULT:      -7.9      0.000      0.000
REMARK  Name = 
REMARK  5 active torsions:
REMARK  status: ('A' for Active; 'I' for Inactive)
REMARK    1  A    between atoms: C_1  and  O_2
REMARK    2  A    between atoms: O_2  and  C_3
REMARK    3  A    between atoms: C_7  and  C_8
REMARK    4  A    between atoms: C_8  and  N_9
REMARK    5  A    between atoms: C_17  and  O_18
REMARK                            x       y       z     vdW  Elec       q    Type
REMARK                         _______ _______ _______ _____ _____    ______ ____
ROOT
ATOM      1  N   UNL     1       3.915   3.876  19.828  0.00  0.00    +0.000 NA
ATOM      2  C   UNL     1       2.939   4.722  19.050  0.00  0.00    +0.000 C 
ATOM      3  C   UNL     1       2.245   3.898  17.933  0.00  0.00    +0.000 C 
ATOM      4  C   UNL     1       1.535   2.691  18.580  0.00  0.00    +0.000 C 
ATOM      5  C   UNL     1       0.423   3.215  19.506  0.00  0.00    +0.000 C 
ATOM      6  C   UNL     1       1.049   4.112  20.600  0.00  0.00    +0.000 C 
ATOM      7  C   UNL     1       1.817   5.283  19.966  0.00  0.00    +0.000 C 
ATOM      8  C   UNL     1       2.053   3.298  21.421  0.00  0.00    +0.000 C 
ATOM      9  C   UNL     1       3.184   2.749  20.493  0.00  0.00    +0.000 C 
ATOM     10  C   UNL     1       2.529   1.846  19.417  0.00  0.00    +0.000 C 
ENDROOT
BRANCH   9  11
ATOM     11  O   UNL     1       4.062   1.990  21.282  0.00  0.00    +0.000 OA
ATOM     12  H   UNL     1       4.003   1.050  20.959  0.00  0.00    +0.000 HD
ENDBRANCH   9  11
BRANCH   1  13
ATOM     13  C   UNL     1       5.067   3.471  18.952  0.00  0.00    +0.000 C 
BRANCH  13  18
ATOM     14  C   UNL     1       6.773   5.614  16.259  0.00  0.00    +0.000 A 
ATOM     15  C   UNL     1       7.513   6.521  17.048  0.00  0.00    +0.000 A 
ATOM     16  C   UNL     1       7.427   6.461  18.442  0.00  0.00    +0.000 A 
ATOM     17  C   UNL     1       6.617   5.495  19.057  0.00  0.00    +0.000 A 
ATOM     18  C   UNL     1       5.878   4.577  18.283  0.00  0.00    +0.000 A 
ATOM     19  C   UNL     1       5.965   4.656  16.879  0.00  0.00    +0.000 A 
BRANCH  14  21
ATOM     20  C   UNL     1       6.620   4.537  14.054  0.00  0.00    +0.000 C 
ATOM     21  O   UNL     1       6.820   5.611  14.898  0.00  0.00    +0.000 OA
ENDBRANCH  14  21
ENDBRANCH  13  18
ENDBRANCH   1  13
TORSDOF 4
ENDMDL
MODEL 2
REMARK VINA RESULT:      -7.9      1.240      2.309
REMARK  Name = 
REMARK  5 active torsions:
REMARK  status: ('A' for Active; 'I' for Inactive)
REMARK    1  A    between atoms: C_1  and  O_2
REMARK    2  A    between atoms: O_2  and  C_3
REMARK    3  A    between atoms: C_7  and  C_8
REMARK    4  A    between atoms: C_8  and  N_9
REMARK    5  A    between atoms: C_17  and  O_18
REMARK                            x       y       z     vdW  Elec       q    Type
REMARK                         _______ _______ _______ _____ _____    ______ ____
ROOT
ATOM      1  N   UNL     1       3.851   3.790  18.345  0.00  0.00    +0.000 NA
ATOM      2  C   UNL     1       2.757   4.824  18.259  0.00  0.00    +0.000 C 
ATOM      3  C   UNL     1       1.403   4.179  17.854  0.00  0.00    +0.000 C 
ATOM      4  C   UNL     1       1.051   3.087  18.884  0.00  0.00    +0.000 C 
ATOM      5  C   UNL     1       0.836   3.754  20.254  0.00  0.00    +0.000 C 
ATOM      6  C   UNL     1       2.133   4.483  20.677  0.00  0.00    +0.000 C 
ATOM      7  C   UNL     1       2.533   5.530  19.624  0.00  0.00    +0.000 C 
ATOM      8  C   UNL     1       3.281   3.475  20.778  0.00  0.00    +0.000 C 
ATOM      9  C   UNL     1       3.506   2.780  19.396  0.00  0.00    +0.000 C 
ATOM     10  C   UNL     1       2.196   2.049  19.006  0.00  0.00    +0.000 C 
ENDROOT
BRANCH   9  11
ATOM     11  O   UNL     1       4.546   1.848  19.544  0.00  0.00    +0.000 OA
ATOM     12  H   UNL     1       4.820   1.573  18.627  0.00  0.00    +0.000 HD
ENDBRANCH   9  11
BRANCH   1  13
ATOM     13  C   UNL     1       4.146   3.230  16.982  0.00  0.00    +0.000 C 
BRANCH  13  18
ATOM     14  C   UNL     1       7.003   5.583  15.954  0.00  0.00    +0.000 A 
ATOM     15  C   UNL     1       7.192   5.222  14.602  0.00  0.00    +0.000 A 
ATOM     16  C   UNL     1       6.425   4.197  14.042  0.00  0.00    +0.000 A 
ATOM     17  C   UNL     1       5.461   3.534  14.816  0.00  0.00    +0.000 A 
ATOM     18  C   UNL     1       5.255   3.889  16.165  0.00  0.00    +0.000 A 
ATOM     19  C   UNL     1       6.042   4.916  16.720  0.00  0.00    +0.000 A 
BRANCH  14  21
ATOM     20  C   UNL     1       7.346   7.307  17.672  0.00  0.00    +0.000 C 
ATOM     21  O   UNL     1       7.709   6.579  16.557  0.00  0.00    +0.000 OA
ENDBRANCH  14  21
ENDBRANCH  13  18
ENDBRANCH   1  13
TORSDOF 4
ENDMDL
MODEL 3
REMARK VINA RESULT:      -7.8      1.317      1.741
REMARK  Name = 
REMARK  5 active torsions:
REMARK  status: ('A' for Active; 'I' for Inactive)
REMARK    1  A    between atoms: C_1  and  O_2
REMARK    2  A    between atoms: O_2  and  C_3
REMARK    3  A    between atoms: C_7  and  C_8
REMARK    4  A    between atoms: C_8  and  N_9
REMARK    5  A    between atoms: C_17  and  O_18
REMARK                            x       y       z     vdW  Elec       q    Type
REMARK                         _______ _______ _______ _____ _____    ______ ____
ROOT
ATOM      1  N   UNL     1       3.682   3.677  18.596  0.00  0.00    +0.000 NA
ATOM      2  C   UNL     1       2.616   4.687  18.936  0.00  0.00    +0.000 C 
ATOM      3  C   UNL     1       1.210   4.189  18.506  0.00  0.00    +0.000 C 
ATOM      4  C   UNL     1       0.932   2.839  19.197  0.00  0.00    +0.000 C 
ATOM      5  C   UNL     1       0.878   3.068  20.718  0.00  0.00    +0.000 C 
ATOM      6  C   UNL     1       2.233   3.641  21.197  0.00  0.00    +0.000 C 
ATOM      7  C   UNL     1       2.554   4.955  20.465  0.00  0.00    +0.000 C 
ATOM      8  C   UNL     1       3.355   2.652  20.872  0.00  0.00    +0.000 C 
ATOM      9  C   UNL     1       3.417   2.399  19.330  0.00  0.00    +0.000 C 
ATOM     10  C   UNL     1       2.052   1.814  18.883  0.00  0.00    +0.000 C 
ENDROOT
BRANCH   9  11
ATOM     11  O   UNL     1       4.438   1.468  19.084  0.00  0.00    +0.000 OA
ATOM     12  H   UNL     1       5.238   1.777  19.590  0.00  0.00    +0.000 HD
ENDBRANCH   9  11
BRANCH   1  13
ATOM     13  C   UNL     1       3.820   3.549  17.104  0.00  0.00    +0.000 C 
BRANCH  13  18
ATOM     14  C   UNL     1       6.510   4.379  14.491  0.00  0.00    +0.000 A 
ATOM     15  C   UNL     1       7.472   5.045  15.280  0.00  0.00    +0.000 A 
ATOM     16  C   UNL     1       7.231   5.257  16.640  0.00  0.00    +0.000 A 
ATOM     17  C   UNL     1       6.041   4.799  17.224  0.00  0.00    +0.000 A 
ATOM     18  C   UNL     1       5.073   4.125  16.451  0.00  0.00    +0.000 A 
ATOM     19  C   UNL     1       5.324   3.927  15.080  0.00  0.00    +0.000 A 
BRANCH  14  21
ATOM     20  C   UNL     1       5.904   3.339  12.347  0.00  0.00    +0.000 C 
ATOM     21  O   UNL     1       6.687   4.131  13.163  0.00  0.00    +0.000 OA
ENDBRANCH  14  21
ENDBRANCH  13  18
ENDBRANCH   1  13
TORSDOF 4
ENDMDL
MODEL 4
REMARK VINA RESULT:      -7.7      3.323      5.514
REMARK  Name = 
REMARK  5 active torsions:
REMARK  status: ('A' for Active; 'I' for Inactive)
REMARK    1  A    between atoms: C_1  and  O_2
REMARK    2  A    between atoms: O_2  and  C_3
REMARK    3  A    between atoms: C_7  and  C_8
REMARK    4  A    between atoms: C_8  and  N_9
REMARK    5  A    between atoms: C_17  and  O_18
REMARK                            x       y       z     vdW  Elec       q    Type
REMARK                         _______ _______ _______ _____ _____    ______ ____
ROOT
ATOM      1  N   UNL     1       2.276   4.859  18.983  0.00  0.00    +0.000 NA
ATOM      2  C   UNL     1       3.432   4.442  18.110  0.00  0.00    +0.000 C 
ATOM      3  C   UNL     1       4.560   3.780  18.947  0.00  0.00    +0.000 C 
ATOM      4  C   UNL     1       3.970   2.569  19.698  0.00  0.00    +0.000 C 
ATOM      5  C   UNL     1       3.510   1.526  18.664  0.00  0.00    +0.000 C 
ATOM      6  C   UNL     1       2.437   2.156  17.745  0.00  0.00    +0.000 C 
ATOM      7  C   UNL     1       2.992   3.405  17.041  0.00  0.00    +0.000 C 
ATOM      8  C   UNL     1       1.236   2.601  18.585  0.00  0.00    +0.000 C 
ATOM      9  C   UNL     1       1.688   3.653  19.649  0.00  0.00    +0.000 C 
ATOM     10  C   UNL     1       2.752   2.991  20.560  0.00  0.00    +0.000 C 
ENDROOT
BRANCH   9  11
ATOM     11  O   UNL     1       0.563   4.010  20.410  0.00  0.00    +0.000 OA
ATOM     12  H   UNL     1       0.313   4.935  20.139  0.00  0.00    +0.000 HD
ENDBRANCH   9  11
BRANCH   1  13
ATOM     13  C   UNL     1       2.695   5.968  19.907  0.00  0.00    +0.000 C 
BRANCH  13  18
ATOM     14  C   UNL     1       0.896   9.334  20.347  0.00  0.00    +0.000 A 
ATOM     15  C   UNL     1       1.028   9.893  19.058  0.00  0.00    +0.000 A 
ATOM     16  C   UNL     1       1.728   9.201  18.067  0.00  0.00    +0.000 A 
ATOM     17  C   UNL     1       2.290   7.946  18.347  0.00  0.00    +0.000 A 
ATOM     18  C   UNL     1       2.161   7.370  19.627  0.00  0.00    +0.000 A 
ATOM     19  C   UNL     1       1.462   8.084  20.620  0.00  0.00    +0.000 A 
BRANCH  14  21
ATOM     20  C   UNL     1       0.099   9.532  22.664  0.00  0.00    +0.000 C 
ATOM     21  O   UNL     1       0.219   9.951  21.354  0.00  0.00    +0.000 OA
ENDBRANCH  14  21
ENDBRANCH  13  18
ENDBRANCH   1  13
TORSDOF 4
ENDMDL
MODEL 5
REMARK VINA RESULT:      -7.6      1.632      2.056
REMARK  Name = 
REMARK  5 active torsions:
REMARK  status: ('A' for Active; 'I' for Inactive)
REMARK    1  A    between atoms: C_1  and  O_2
REMARK    2  A    between atoms: O_2  and  C_3
REMARK    3  A    between atoms: C_7  and  C_8
REMARK    4  A    between atoms: C_8  and  N_9
REMARK    5  A    between atoms: C_17  and  O_18
REMARK                            x       y       z     vdW  Elec       q    Type
REMARK                         _______ _______ _______ _____ _____    ______ ____
ROOT
ATOM      1  N   UNL     1       3.713   4.336  19.295  0.00  0.00    +0.000 NA
ATOM      2  C   UNL     1       2.344   4.940  19.110  0.00  0.00    +0.000 C 
ATOM      3  C   UNL     1       1.597   4.287  17.916  0.00  0.00    +0.000 C 
ATOM      4  C   UNL     1       1.501   2.768  18.166  0.00  0.00    +0.000 C 
ATOM      5  C   UNL     1       0.637   2.531  19.417  0.00  0.00    +0.000 C 
ATOM      6  C   UNL     1       1.294   3.228  20.632  0.00  0.00    +0.000 C 
ATOM      7  C   UNL     1       1.457   4.734  20.368  0.00  0.00    +0.000 C 
ATOM      8  C   UNL     1       2.692   2.651  20.863  0.00  0.00    +0.000 C 
ATOM      9  C   UNL     1       3.581   2.874  19.597  0.00  0.00    +0.000 C 
ATOM     10  C   UNL     1       2.905   2.155  18.402  0.00  0.00    +0.000 C 
ENDROOT
BRANCH   9  11
ATOM     11  O   UNL     1       4.840   2.306  19.845  0.00  0.00    +0.000 OA
ATOM     12  H   UNL     1       5.484   3.060  19.935  0.00  0.00    +0.000 HD
ENDBRANCH   9  11
BRANCH   1  13
ATOM     13  C   UNL     1       4.595   4.677  18.127  0.00  0.00    +0.000 C 
BRANCH  13  18
ATOM     14  C   UNL     1       7.355   7.338  17.887  0.00  0.00    +0.000 A 
ATOM     15  C   UNL     1       8.311   6.835  18.796  0.00  0.00    +0.000 A 
ATOM     16  C   UNL     1       8.044   5.663  19.508  0.00  0.00    +0.000 A 
ATOM     17  C   UNL     1       6.834   4.980  19.314  0.00  0.00    +0.000 A 
ATOM     18  C   UNL     1       5.872   5.466  18.404  0.00  0.00    +0.000 A 
ATOM     19  C   UNL     1       6.150   6.654  17.701  0.00  0.00    +0.000 A 
BRANCH  14  21
ATOM     20  C   UNL     1       8.145   9.645  17.572  0.00  0.00    +0.000 C 
ATOM     21  O   UNL     1       7.557   8.468  17.154  0.00  0.00    +0.000 OA
ENDBRANCH  14  21
ENDBRANCH  13  18
ENDBRANCH   1  13
TORSDOF 4
ENDMDL
MODEL 6
REMARK VINA RESULT:      -7.5      1.568      2.930
REMARK  Name = 
REMARK  5 active torsions:
REMARK  status: ('A' for Active; 'I' for Inactive)
REMARK    1  A    between atoms: C_1  and  O_2
REMARK    2  A    between atoms: O_2  and  C_3
REMARK    3  A    between atoms: C_7  and  C_8
REMARK    4  A    between atoms: C_8  and  N_9
REMARK    5  A    between atoms: C_17  and  O_18
REMARK                            x       y       z     vdW  Elec       q    Type
REMARK                         _______ _______ _______ _____ _____    ______ ____
ROOT
ATOM      1  N   UNL     1       3.561   3.421  18.496  0.00  0.00    +0.000 NA
ATOM      2  C   UNL     1       3.247   2.246  19.387  0.00  0.00    +0.000 C 
ATOM      3  C   UNL     1       3.244   2.660  20.884  0.00  0.00    +0.000 C 
ATOM      4  C   UNL     1       2.215   3.792  21.080  0.00  0.00    +0.000 C 
ATOM      5  C   UNL     1       0.813   3.240  20.766  0.00  0.00    +0.000 C 
ATOM      6  C   UNL     1       0.777   2.737  19.303  0.00  0.00    +0.000 C 
ATOM      7  C   UNL     1       1.846   1.655  19.077  0.00  0.00    +0.000 C 
ATOM      8  C   UNL     1       1.092   3.895  18.352  0.00  0.00    +0.000 C 
ATOM      9  C   UNL     1       2.510   4.475  18.665  0.00  0.00    +0.000 C 
ATOM     10  C   UNL     1       2.511   4.981  20.130  0.00  0.00    +0.000 C 
ENDROOT
BRANCH   9  11
ATOM     11  O   UNL     1       2.742   5.548  17.790  0.00  0.00    +0.000 OA
ATOM     12  H   UNL     1       2.567   5.212  16.869  0.00  0.00    +0.000 HD
ENDBRANCH   9  11
BRANCH   1  13
ATOM     13  C   UNL     1       4.976   3.878  18.715  0.00  0.00    +0.000 C 
BRANCH  13  18
ATOM     14  C   UNL     1       7.199   6.052  16.459  0.00  0.00    +0.000 A 
ATOM     15  C   UNL     1       7.077   5.388  15.219  0.00  0.00    +0.000 A 
ATOM     16  C   UNL     1       6.311   4.222  15.127  0.00  0.00    +0.000 A 
ATOM     17  C   UNL     1       5.654   3.719  16.260  0.00  0.00    +0.000 A 
ATOM     18  C   UNL     1       5.760   4.375  17.503  0.00  0.00    +0.000 A 
ATOM     19  C   UNL     1       6.544   5.542  17.585  0.00  0.00    +0.000 A 
BRANCH  14  21
ATOM     20  C   UNL     1       7.725   8.189  17.554  0.00  0.00    +0.000 C 
ATOM     21  O   UNL     1       7.920   7.196  16.615  0.00  0.00    +0.000 OA
ENDBRANCH  14  21
ENDBRANCH  13  18
ENDBRANCH   1  13
TORSDOF 4
ENDMDL
MODEL 7
REMARK VINA RESULT:      -7.4      1.289      2.241
REMARK  Name = 
REMARK  5 active torsions:
REMARK  status: ('A' for Active; 'I' for Inactive)
REMARK    1  A    between atoms: C_1  and  O_2
REMARK    2  A    between atoms: O_2  and  C_3
REMARK    3  A    between atoms: C_7  and  C_8
REMARK    4  A    between atoms: C_8  and  N_9
REMARK    5  A    between atoms: C_17  and  O_18
REMARK                            x       y       z     vdW  Elec       q    Type
REMARK                         _______ _______ _______ _____ _____    ______ ____
ROOT
ATOM      1  N   UNL     1       3.775   3.642  18.766  0.00  0.00    +0.000 NA
ATOM      2  C   UNL     1       3.343   2.364  19.438  0.00  0.00    +0.000 C 
ATOM      3  C   UNL     1       3.044   2.594  20.945  0.00  0.00    +0.000 C 
ATOM      4  C   UNL     1       1.956   3.679  21.071  0.00  0.00    +0.000 C 
ATOM      5  C   UNL     1       0.659   3.151  20.433  0.00  0.00    +0.000 C 
ATOM      6  C   UNL     1       0.917   2.829  18.942  0.00  0.00    +0.000 C 
ATOM      7  C   UNL     1       2.047   1.796  18.800  0.00  0.00    +0.000 C 
ATOM      8  C   UNL     1       1.362   4.097  18.211  0.00  0.00    +0.000 C 
ATOM      9  C   UNL     1       2.674   4.654  18.853  0.00  0.00    +0.000 C 
ATOM     10  C   UNL     1       2.381   4.979  20.340  0.00  0.00    +0.000 C 
ENDROOT
BRANCH   9  11
ATOM     11  O   UNL     1       3.028   5.827  18.169  0.00  0.00    +0.000 OA
ATOM     12  H   UNL     1       3.898   5.649  17.720  0.00  0.00    +0.000 HD
ENDBRANCH   9  11
BRANCH   1  13
ATOM     13  C   UNL     1       5.107   4.088  19.303  0.00  0.00    +0.000 C 
BRANCH  13  18
ATOM     14  C   UNL     1       6.776   5.641  16.211  0.00  0.00    +0.000 A 
ATOM     15  C   UNL     1       7.669   6.559  16.804  0.00  0.00    +0.000 A 
ATOM     16  C   UNL     1       7.699   6.700  18.194  0.00  0.00    +0.000 A 
ATOM     17  C   UNL     1       6.854   5.923  19.001  0.00  0.00    +0.000 A 
ATOM     18  C   UNL     1       5.962   4.996  18.423  0.00  0.00    +0.000 A 
ATOM     19  C   UNL     1       5.934   4.872  17.021  0.00  0.00    +0.000 A 
BRANCH  14  21
ATOM     20  C   UNL     1       6.425   4.269  14.201  0.00  0.00    +0.000 C 
ATOM     21  O   UNL     1       6.702   5.447  14.865  0.00  0.00    +0.000 OA
ENDBRANCH  14  21
ENDBRANCH  13  18
ENDBRANCH   1  13
TORSDOF 4
ENDMDL
MODEL 8
REMARK VINA RESULT:      -7.4      1.376      2.347
REMARK  Name = 
REMARK  5 active torsions:
REMARK  status: ('A' for Active; 'I' for Inactive)
REMARK    1  A    between atoms: C_1  and  O_2
REMARK    2  A    between atoms: O_2  and  C_3
REMARK    3  A    between atoms: C_7  and  C_8
REMARK    4  A    between atoms: C_8  and  N_9
REMARK    5  A    between atoms: C_17  and  O_18
REMARK                            x       y       z     vdW  Elec       q    Type
REMARK                         _______ _______ _______ _____ _____    ______ ____
ROOT
ATOM      1  N   UNL     1       3.434   4.362  18.916  0.00  0.00    +0.000 NA
ATOM      2  C   UNL     1       2.181   4.931  19.532  0.00  0.00    +0.000 C 
ATOM      3  C   UNL     1       0.926   4.123  19.104  0.00  0.00    +0.000 C 
ATOM      4  C   UNL     1       1.124   2.650  19.516  0.00  0.00    +0.000 C 
ATOM      5  C   UNL     1       1.201   2.576  21.051  0.00  0.00    +0.000 C 
ATOM      6  C   UNL     1       2.393   3.430  21.545  0.00  0.00    +0.000 C 
ATOM      7  C   UNL     1       2.241   4.889  21.083  0.00  0.00    +0.000 C 
ATOM      8  C   UNL     1       3.695   2.894  20.945  0.00  0.00    +0.000 C 
ATOM      9  C   UNL     1       3.629   2.952  19.384  0.00  0.00    +0.000 C 
ATOM     10  C   UNL     1       2.436   2.079  18.919  0.00  0.00    +0.000 C 
ENDROOT
BRANCH   9  11
ATOM     11  O   UNL     1       4.829   2.427  18.879  0.00  0.00    +0.000 OA
ATOM     12  H   UNL     1       5.268   1.939  19.628  0.00  0.00    +0.000 HD
ENDBRANCH   9  11
BRANCH   1  13
ATOM     13  C   UNL     1       3.412   4.551  17.424  0.00  0.00    +0.000 C 
BRANCH  13  18
ATOM     14  C   UNL     1       6.879   5.778  16.314  0.00  0.00    +0.000 A 
ATOM     15  C   UNL     1       7.156   4.904  15.240  0.00  0.00    +0.000 A 
ATOM     16  C   UNL     1       6.242   3.901  14.906  0.00  0.00    +0.000 A 
ATOM     17  C   UNL     1       5.046   3.768  15.627  0.00  0.00    +0.000 A 
ATOM     18  C   UNL     1       4.751   4.638  16.697  0.00  0.00    +0.000 A 
ATOM     19  C   UNL     1       5.686   5.638  17.030  0.00  0.00    +0.000 A 
BRANCH  14  21
ATOM     20  C   UNL     1       7.529   7.708  17.690  0.00  0.00    +0.000 C 
ATOM     21  O   UNL     1       7.721   6.782  16.685  0.00  0.00    +0.000 OA
ENDBRANCH  14  21
ENDBRANCH  13  18
ENDBRANCH   1  13
TORSDOF 4
ENDMDL
MODEL 9
REMARK VINA RESULT:      -7.4      3.198      5.456
REMARK  Name = 
REMARK  5 active torsions:
REMARK  status: ('A' for Active; 'I' for Inactive)
REMARK    1  A    between atoms: C_1  and  O_2
REMARK    2  A    between atoms: O_2  and  C_3
REMARK    3  A    between atoms: C_7  and  C_8
REMARK    4  A    between atoms: C_8  and  N_9
REMARK    5  A    between atoms: C_17  and  O_18
REMARK                            x       y       z     vdW  Elec       q    Type
REMARK                         _______ _______ _______ _____ _____    ______ ____
ROOT
ATOM      1  N   UNL     1       3.031   5.198  19.324  0.00  0.00    +0.000 NA
ATOM      2  C   UNL     1       1.671   4.587  19.097  0.00  0.00    +0.000 C 
ATOM      3  C   UNL     1       1.495   4.138  17.621  0.00  0.00    +0.000 C 
ATOM      4  C   UNL     1       2.615   3.136  17.274  0.00  0.00    +0.000 C 
ATOM      5  C   UNL     1       2.438   1.881  18.148  0.00  0.00    +0.000 C 
ATOM      6  C   UNL     1       2.527   2.281  19.640  0.00  0.00    +0.000 C 
ATOM      7  C   UNL     1       1.458   3.331  19.984  0.00  0.00    +0.000 C 
ATOM      8  C   UNL     1       3.893   2.910  19.925  0.00  0.00    +0.000 C 
ATOM      9  C   UNL     1       4.093   4.181  19.037  0.00  0.00    +0.000 C 
ATOM     10  C   UNL     1       4.012   3.748  17.551  0.00  0.00    +0.000 C 
ENDROOT
BRANCH   9  11
ATOM     11  O   UNL     1       5.366   4.706  19.312  0.00  0.00    +0.000 OA
ATOM     12  H   UNL     1       5.785   4.921  18.435  0.00  0.00    +0.000 HD
ENDBRANCH   9  11
BRANCH   1  13
ATOM     13  C   UNL     1       3.154   6.491  18.568  0.00  0.00    +0.000 C 
BRANCH  13  18
ATOM     14  C   UNL     1       1.055   8.803  20.805  0.00  0.00    +0.000 A 
ATOM     15  C   UNL     1       0.631   9.781  19.879  0.00  0.00    +0.000 A 
ATOM     16  C   UNL     1       1.055   9.711  18.550  0.00  0.00    +0.000 A 
ATOM     17  C   UNL     1       1.892   8.665  18.131  0.00  0.00    +0.000 A 
ATOM     18  C   UNL     1       2.318   7.677  19.041  0.00  0.00    +0.000 A 
ATOM     19  C   UNL     1       1.891   7.766  20.381  0.00  0.00    +0.000 A 
BRANCH  14  21
ATOM     20  C   UNL     1      -0.429   9.437  22.659  0.00  0.00    +0.000 C 
ATOM     21  O   UNL     1       0.671   8.807  22.111  0.00  0.00    +0.000 OA
ENDBRANCH  14  21
ENDBRANCH  13  18
ENDBRANCH   1  13
TORSDOF 4
ENDMDL
