MODEL 1
REMARK VINA RESULT:      -7.4      0.000      0.000
REMARK  Name = 
REMARK  6 active torsions:
REMARK  status: ('A' for Active; 'I' for Inactive)
REMARK    1  A    between atoms: C_1  and  O_2
REMARK    2  A    between atoms: O_2  and  C_3
REMARK    3  A    between atoms: C_6  and  N_7
REMARK    4  A    between atoms: C_12  and  N_13
REMARK    5  A    between atoms: C_14  and  C_16
REMARK    6  A    between atoms: C_19  and  C_20
REMARK                            x       y       z     vdW  Elec       q    Type
REMARK                         _______ _______ _______ _____ _____    ______ ____
ROOT
ATOM      1  N   UNL     1       2.758   7.219  18.547  0.00  0.00    +0.000 N 
ATOM      2  N   UNL     1       2.429   6.965  19.830  0.00  0.00    +0.000 NA
ATOM      3  C   UNL     1       1.677   8.018  20.164  0.00  0.00    +0.000 A 
ATOM      4  C   UNL     1       1.043   8.281  21.380  0.00  0.00    +0.000 A 
ATOM      5  C   UNL     1       0.293   9.473  21.401  0.00  0.00    +0.000 A 
ATOM      6  C   UNL     1       0.156  10.360  20.295  0.00  0.00    +0.000 A 
ATOM      7  C   UNL     1       0.820  10.108  19.066  0.00  0.00    +0.000 A 
ATOM      8  C   UNL     1       1.585   8.917  19.021  0.00  0.00    +0.000 A 
ATOM      9  N   UNL     1       2.318   8.395  18.023  0.00  0.00    +0.000 NA
ENDROOT
BRANCH   1  13
ATOM     10  C   UNL     1       5.027   4.362  16.374  0.00  0.00    +0.000 A 
ATOM     11  C   UNL     1       5.249   5.738  16.207  0.00  0.00    +0.000 A 
ATOM     12  C   UNL     1       4.481   6.688  16.889  0.00  0.00    +0.000 A 
ATOM     13  C   UNL     1       3.486   6.268  17.781  0.00  0.00    +0.000 A 
ATOM     14  C   UNL     1       3.247   4.901  17.946  0.00  0.00    +0.000 A 
ATOM     15  C   UNL     1       4.010   3.950  17.250  0.00  0.00    +0.000 A 
ATOM     16 CL   UNL     1       3.642   2.305  17.630  0.00  0.00    +0.000 Cl
BRANCH  10  18
ATOM     17  C   UNL     1       6.263   3.979  14.360  0.00  0.00    +0.000 C 
ATOM     18  O   UNL     1       5.933   3.599  15.687  0.00  0.00    +0.000 OA
ENDBRANCH  10  18
ENDBRANCH   1  13
BRANCH   6  19
ATOM     19  N   UNL     1      -0.652  11.529  20.372  0.00  0.00    +0.000 N 
ATOM     20  C   UNL     1      -0.398  12.682  21.111  0.00  0.00    +0.000 C 
ATOM     21  O   UNL     1       0.572  12.872  21.835  0.00  0.00    +0.000 OA
ATOM     22  H   UNL     1      -1.511  11.504  19.833  0.00  0.00    +0.000 HD
BRANCH  20  23
ATOM     23  C   UNL     1      -1.392  13.796  21.018  0.00  0.00    +0.000 A 
ATOM     24  C   UNL     1      -0.973  15.036  20.497  0.00  0.00    +0.000 A 
ATOM     25  C   UNL     1      -1.874  16.102  20.368  0.00  0.00    +0.000 A 
ATOM     26  C   UNL     1      -3.208  15.940  20.758  0.00  0.00    +0.000 A 
ATOM     27  C   UNL     1      -3.628  14.716  21.278  0.00  0.00    +0.000 A 
ATOM     28  C   UNL     1      -2.723  13.662  21.408  0.00  0.00    +0.000 A 
ATOM     29  F   UNL     1      -3.178  12.508  21.918  0.00  0.00    +0.000 F 
BRANCH  26  30
ATOM     30  C   UNL     1      -4.141  17.024  20.626  0.00  0.00    +0.000 C 
ATOM     31  N   UNL     1      -4.891  17.898  20.507  0.00  0.00    +0.000 NA
ENDBRANCH  26  30
ENDBRANCH  20  23
ENDBRANCH   6  19
TORSDOF 5
ENDMDL
MODEL 2
REMARK VINA RESULT:      -7.4      4.238     11.206
REMARK  Name = 
REMARK  6 active torsions:
REMARK  status: ('A' for Active; 'I' for Inactive)
REMARK    1  A    between atoms: C_1  and  O_2
REMARK    2  A    between atoms: O_2  and  C_3
REMARK    3  A    between atoms: C_6  and  N_7
REMARK    4  A    between atoms: C_12  and  N_13
REMARK    5  A    between atoms: C_14  and  C_16
REMARK    6  A    between atoms: C_19  and  C_20
REMARK                            x       y       z     vdW  Elec       q    Type
REMARK                         _______ _______ _______ _____ _____    ______ ____
ROOT
ATOM      1  N   UNL     1       0.115  10.585  21.296  0.00  0.00    +0.000 N 
ATOM      2  N   UNL     1       0.228   9.443  22.003  0.00  0.00    +0.000 NA
ATOM      3  C   UNL     1       0.857   8.622  21.156  0.00  0.00    +0.000 A 
ATOM      4  C   UNL     1       1.255   7.300  21.361  0.00  0.00    +0.000 A 
ATOM      5  C   UNL     1       1.930   6.717  20.271  0.00  0.00    +0.000 A 
ATOM      6  C   UNL     1       2.213   7.387  19.046  0.00  0.00    +0.000 A 
ATOM      7  C   UNL     1       1.788   8.722  18.825  0.00  0.00    +0.000 A 
ATOM      8  C   UNL     1       1.102   9.330  19.905  0.00  0.00    +0.000 A 
ATOM      9  N   UNL     1       0.581  10.564  20.018  0.00  0.00    +0.000 NA
ENDROOT
BRANCH   1  13
ATOM     10  C   UNL     1      -1.580  14.104  22.962  0.00  0.00    +0.000 A 
ATOM     11  C   UNL     1      -0.426  14.166  22.166  0.00  0.00    +0.000 A 
ATOM     12  C   UNL     1       0.164  13.009  21.645  0.00  0.00    +0.000 A 
ATOM     13  C   UNL     1      -0.420  11.760  21.892  0.00  0.00    +0.000 A 
ATOM     14  C   UNL     1      -1.563  11.684  22.694  0.00  0.00    +0.000 A 
ATOM     15  C   UNL     1      -2.144  12.845  23.227  0.00  0.00    +0.000 A 
ATOM     16 CL   UNL     1      -3.596  12.583  24.126  0.00  0.00    +0.000 Cl
BRANCH  10  18
ATOM     17  C   UNL     1      -1.561  16.468  22.586  0.00  0.00    +0.000 C 
ATOM     18  O   UNL     1      -2.047  15.345  23.305  0.00  0.00    +0.000 OA
ENDBRANCH  10  18
ENDBRANCH   1  13
BRANCH   6  19
ATOM     19  N   UNL     1       2.936   6.751  17.999  0.00  0.00    +0.000 N 
ATOM     20  C   UNL     1       4.102   5.999  18.115  0.00  0.00    +0.000 C 
ATOM     21  O   UNL     1       4.709   5.771  19.155  0.00  0.00    +0.000 OA
ATOM     22  H   UNL     1       2.557   6.875  17.066  0.00  0.00    +0.000 HD
BRANCH  20  23
ATOM     23  C   UNL     1       4.675   5.410  16.865  0.00  0.00    +0.000 A 
ATOM     24  C   UNL     1       5.135   6.278  15.856  0.00  0.00    +0.000 A 
ATOM     25  C   UNL     1       5.702   5.773  14.677  0.00  0.00    +0.000 A 
ATOM     26  C   UNL     1       5.816   4.391  14.494  0.00  0.00    +0.000 A 
ATOM     27  C   UNL     1       5.359   3.526  15.488  0.00  0.00    +0.000 A 
ATOM     28  C   UNL     1       4.792   4.038  16.656  0.00  0.00    +0.000 A 
ATOM     29  F   UNL     1       4.364   3.162  17.578  0.00  0.00    +0.000 F 
BRANCH  26  30
ATOM     30  C   UNL     1       6.399   3.862  13.293  0.00  0.00    +0.000 C 
ATOM     31  N   UNL     1       6.878   3.445  12.325  0.00  0.00    +0.000 NA
ENDBRANCH  26  30
ENDBRANCH  20  23
ENDBRANCH   6  19
TORSDOF 5
ENDMDL
MODEL 3
REMARK VINA RESULT:      -7.3      2.675      3.282
REMARK  Name = 
REMARK  6 active torsions:
REMARK  status: ('A' for Active; 'I' for Inactive)
REMARK    1  A    between atoms: C_1  and  O_2
REMARK    2  A    between atoms: O_2  and  C_3
REMARK    3  A    between atoms: C_6  and  N_7
REMARK    4  A    between atoms: C_12  and  N_13
REMARK    5  A    between atoms: C_14  and  C_16
REMARK    6  A    between atoms: C_19  and  C_20
REMARK                            x       y       z     vdW  Elec       q    Type
REMARK                         _______ _______ _______ _____ _____    ______ ____
ROOT
ATOM      1  N   UNL     1       2.069   7.145  19.760  0.00  0.00    +0.000 N 
ATOM      2  N   UNL     1       2.191   8.031  18.751  0.00  0.00    +0.000 NA
ATOM      3  C   UNL     1       1.497   9.087  19.188  0.00  0.00    +0.000 A 
ATOM      4  C   UNL     1       1.294  10.315  18.556  0.00  0.00    +0.000 A 
ATOM      5  C   UNL     1       0.535  11.238  19.302  0.00  0.00    +0.000 A 
ATOM      6  C   UNL     1       0.007  10.985  20.600  0.00  0.00    +0.000 A 
ATOM      7  C   UNL     1       0.190   9.728  21.235  0.00  0.00    +0.000 A 
ATOM      8  C   UNL     1       0.947   8.781  20.502  0.00  0.00    +0.000 A 
ATOM      9  N   UNL     1       1.299   7.522  20.817  0.00  0.00    +0.000 NA
ENDROOT
BRANCH   1  13
ATOM     10  C   UNL     1       4.096   3.422  19.517  0.00  0.00    +0.000 A 
ATOM     11  C   UNL     1       2.798   3.504  20.045  0.00  0.00    +0.000 A 
ATOM     12  C   UNL     1       2.136   4.731  20.166  0.00  0.00    +0.000 A 
ATOM     13  C   UNL     1       2.762   5.905  19.727  0.00  0.00    +0.000 A 
ATOM     14  C   UNL     1       4.059   5.837  19.211  0.00  0.00    +0.000 A 
ATOM     15  C   UNL     1       4.726   4.607  19.103  0.00  0.00    +0.000 A 
ATOM     16 CL   UNL     1       6.289   4.689  18.370  0.00  0.00    +0.000 Cl
BRANCH  10  18
ATOM     17  C   UNL     1       3.729   1.205  18.691  0.00  0.00    +0.000 C 
ATOM     18  O   UNL     1       4.535   2.130  19.406  0.00  0.00    +0.000 OA
ENDBRANCH  10  18
ENDBRANCH   1  13
BRANCH   6  19
ATOM     19  N   UNL     1      -0.718  11.977  21.317  0.00  0.00    +0.000 N 
ATOM     20  C   UNL     1      -1.088  11.946  22.658  0.00  0.00    +0.000 C 
ATOM     21  O   UNL     1      -0.856  11.037  23.447  0.00  0.00    +0.000 OA
ATOM     22  H   UNL     1      -1.000  12.789  20.778  0.00  0.00    +0.000 HD
BRANCH  20  23
ATOM     23  C   UNL     1      -1.837  13.123  23.198  0.00  0.00    +0.000 A 
ATOM     24  C   UNL     1      -3.176  12.948  23.600  0.00  0.00    +0.000 A 
ATOM     25  C   UNL     1      -3.911  14.016  24.135  0.00  0.00    +0.000 A 
ATOM     26  C   UNL     1      -3.314  15.273  24.275  0.00  0.00    +0.000 A 
ATOM     27  C   UNL     1      -1.989  15.454  23.876  0.00  0.00    +0.000 A 
ATOM     28  C   UNL     1      -1.267  14.386  23.340  0.00  0.00    +0.000 A 
ATOM     29  F   UNL     1       0.001  14.615  22.967  0.00  0.00    +0.000 F 
BRANCH  26  30
ATOM     30  C   UNL     1      -4.055  16.373  24.826  0.00  0.00    +0.000 C 
ATOM     31  N   UNL     1      -4.655  17.252  25.281  0.00  0.00    +0.000 NA
ENDBRANCH  26  30
ENDBRANCH  20  23
ENDBRANCH   6  19
TORSDOF 5
ENDMDL
MODEL 4
REMARK VINA RESULT:      -7.3      1.227      1.504
REMARK  Name = 
REMARK  6 active torsions:
REMARK  status: ('A' for Active; 'I' for Inactive)
REMARK    1  A    between atoms: C_1  and  O_2
REMARK    2  A    between atoms: O_2  and  C_3
REMARK    3  A    between atoms: C_6  and  N_7
REMARK    4  A    between atoms: C_12  and  N_13
REMARK    5  A    between atoms: C_14  and  C_16
REMARK    6  A    between atoms: C_19  and  C_20
REMARK                            x       y       z     vdW  Elec       q    Type
REMARK                         _______ _______ _______ _____ _____    ______ ____
ROOT
ATOM      1  N   UNL     1       2.802   7.147  18.608  0.00  0.00    +0.000 N 
ATOM      2  N   UNL     1       2.383   6.802  19.842  0.00  0.00    +0.000 NA
ATOM      3  C   UNL     1       1.686   7.872  20.236  0.00  0.00    +0.000 A 
ATOM      4  C   UNL     1       1.003   8.070  21.438  0.00  0.00    +0.000 A 
ATOM      5  C   UNL     1       0.335   9.306  21.533  0.00  0.00    +0.000 A 
ATOM      6  C   UNL     1       0.322  10.297  20.511  0.00  0.00    +0.000 A 
ATOM      7  C   UNL     1       1.036  10.110  19.298  0.00  0.00    +0.000 A 
ATOM      8  C   UNL     1       1.720   8.876  19.180  0.00  0.00    +0.000 A 
ATOM      9  N   UNL     1       2.473   8.395  18.175  0.00  0.00    +0.000 NA
ENDROOT
BRANCH   1  13
ATOM     10  C   UNL     1       5.008   4.360  16.284  0.00  0.00    +0.000 A 
ATOM     11  C   UNL     1       5.191   5.743  16.119  0.00  0.00    +0.000 A 
ATOM     12  C   UNL     1       4.441   6.670  16.852  0.00  0.00    +0.000 A 
ATOM     13  C   UNL     1       3.507   6.219  17.793  0.00  0.00    +0.000 A 
ATOM     14  C   UNL     1       3.306   4.846  17.957  0.00  0.00    +0.000 A 
ATOM     15  C   UNL     1       4.051   3.918  17.211  0.00  0.00    +0.000 A 
ATOM     16 CL   UNL     1       3.739   2.262  17.594  0.00  0.00    +0.000 Cl
BRANCH  10  18
ATOM     17  C   UNL     1       6.628   4.284  14.523  0.00  0.00    +0.000 C 
ATOM     18  O   UNL     1       5.891   3.624  15.541  0.00  0.00    +0.000 OA
ENDBRANCH  10  18
ENDBRANCH   1  13
BRANCH   6  19
ATOM     19  N   UNL     1      -0.408  11.510  20.656  0.00  0.00    +0.000 N 
ATOM     20  C   UNL     1      -1.527  11.912  19.932  0.00  0.00    +0.000 C 
ATOM     21  O   UNL     1      -2.064  11.280  19.029  0.00  0.00    +0.000 OA
ATOM     22  H   UNL     1      -0.060  12.149  21.362  0.00  0.00    +0.000 HD
BRANCH  20  23
ATOM     23  C   UNL     1      -2.140  13.232  20.279  0.00  0.00    +0.000 A 
ATOM     24  C   UNL     1      -3.474  13.261  20.729  0.00  0.00    +0.000 A 
ATOM     25  C   UNL     1      -4.084  14.471  21.090  0.00  0.00    +0.000 A 
ATOM     26  C   UNL     1      -3.365  15.667  21.006  0.00  0.00    +0.000 A 
ATOM     27  C   UNL     1      -2.044  15.645  20.557  0.00  0.00    +0.000 A 
ATOM     28  C   UNL     1      -1.447  14.437  20.195  0.00  0.00    +0.000 A 
ATOM     29  F   UNL     1      -0.177  14.472  19.766  0.00  0.00    +0.000 F 
BRANCH  26  30
ATOM     30  C   UNL     1      -3.977  16.912  21.377  0.00  0.00    +0.000 C 
ATOM     31  N   UNL     1      -4.458  17.923  21.672  0.00  0.00    +0.000 NA
ENDBRANCH  26  30
ENDBRANCH  20  23
ENDBRANCH   6  19
TORSDOF 5
ENDMDL
MODEL 5
REMARK VINA RESULT:      -7.3      0.927      1.278
REMARK  Name = 
REMARK  6 active torsions:
REMARK  status: ('A' for Active; 'I' for Inactive)
REMARK    1  A    between atoms: C_1  and  O_2
REMARK    2  A    between atoms: O_2  and  C_3
REMARK    3  A    between atoms: C_6  and  N_7
REMARK    4  A    between atoms: C_12  and  N_13
REMARK    5  A    between atoms: C_14  and  C_16
REMARK    6  A    between atoms: C_19  and  C_20
REMARK                            x       y       z     vdW  Elec       q    Type
REMARK                         _______ _______ _______ _____ _____    ______ ____
ROOT
ATOM      1  N   UNL     1       2.777   7.332  18.452  0.00  0.00    +0.000 N 
ATOM      2  N   UNL     1       2.392   7.068  19.716  0.00  0.00    +0.000 NA
ATOM      3  C   UNL     1       1.654   8.134  20.038  0.00  0.00    +0.000 A 
ATOM      4  C   UNL     1       0.979   8.396  21.233  0.00  0.00    +0.000 A 
ATOM      5  C   UNL     1       0.259   9.606  21.243  0.00  0.00    +0.000 A 
ATOM      6  C   UNL     1       0.187  10.512  20.146  0.00  0.00    +0.000 A 
ATOM      7  C   UNL     1       0.892  10.261  18.940  0.00  0.00    +0.000 A 
ATOM      8  C   UNL     1       1.628   9.052  18.906  0.00  0.00    +0.000 A 
ATOM      9  N   UNL     1       2.387   8.526  17.929  0.00  0.00    +0.000 NA
ENDROOT
BRANCH   1  13
ATOM     10  C   UNL     1       5.058   4.450  16.325  0.00  0.00    +0.000 A 
ATOM     11  C   UNL     1       5.325   5.822  16.193  0.00  0.00    +0.000 A 
ATOM     12  C   UNL     1       4.554   6.781  16.859  0.00  0.00    +0.000 A 
ATOM     13  C   UNL     1       3.511   6.374  17.700  0.00  0.00    +0.000 A 
ATOM     14  C   UNL     1       3.227   5.011  17.829  0.00  0.00    +0.000 A 
ATOM     15  C   UNL     1       3.993   4.051  17.149  0.00  0.00    +0.000 A 
ATOM     16 CL   UNL     1       3.563   2.411  17.482  0.00  0.00    +0.000 Cl
BRANCH  10  18
ATOM     17  C   UNL     1       6.190   3.921  14.282  0.00  0.00    +0.000 C 
ATOM     18  O   UNL     1       5.971   3.673  15.663  0.00  0.00    +0.000 OA
ENDBRANCH  10  18
ENDBRANCH   1  13
BRANCH   6  19
ATOM     19  N   UNL     1      -0.594  11.700  20.210  0.00  0.00    +0.000 N 
ATOM     20  C   UNL     1      -0.335  12.839  20.966  0.00  0.00    +0.000 C 
ATOM     21  O   UNL     1       0.617  13.000  21.721  0.00  0.00    +0.000 OA
ATOM     22  H   UNL     1      -1.437  11.701  19.645  0.00  0.00    +0.000 HD
BRANCH  20  23
ATOM     23  C   UNL     1      -1.299  13.979  20.854  0.00  0.00    +0.000 A 
ATOM     24  C   UNL     1      -2.634  13.777  21.254  0.00  0.00    +0.000 A 
ATOM     25  C   UNL     1      -3.568  14.822  21.191  0.00  0.00    +0.000 A 
ATOM     26  C   UNL     1      -3.175  16.082  20.729  0.00  0.00    +0.000 A 
ATOM     27  C   UNL     1      -1.855  16.287  20.328  0.00  0.00    +0.000 A 
ATOM     28  C   UNL     1      -0.934  15.240  20.389  0.00  0.00    +0.000 A 
ATOM     29  F   UNL     1       0.321  15.489  19.987  0.00  0.00    +0.000 F 
BRANCH  26  30
ATOM     30  C   UNL     1      -4.121  17.160  20.664  0.00  0.00    +0.000 C 
ATOM     31  N   UNL     1      -4.876  18.037  20.621  0.00  0.00    +0.000 NA
ENDBRANCH  26  30
ENDBRANCH  20  23
ENDBRANCH   6  19
TORSDOF 5
ENDMDL
MODEL 6
REMARK VINA RESULT:      -7.2      4.305     11.320
REMARK  Name = 
REMARK  6 active torsions:
REMARK  status: ('A' for Active; 'I' for Inactive)
REMARK    1  A    between atoms: C_1  and  O_2
REMARK    2  A    between atoms: O_2  and  C_3
REMARK    3  A    between atoms: C_6  and  N_7
REMARK    4  A    between atoms: C_12  and  N_13
REMARK    5  A    between atoms: C_14  and  C_16
REMARK    6  A    between atoms: C_19  and  C_20
REMARK                            x       y       z     vdW  Elec       q    Type
REMARK                         _______ _______ _______ _____ _____    ______ ____
ROOT
ATOM      1  N   UNL     1      -1.496  11.766  21.740  0.00  0.00    +0.000 N 
ATOM      2  N   UNL     1      -0.931  11.047  22.731  0.00  0.00    +0.000 NA
ATOM      3  C   UNL     1      -0.148  10.187  22.073  0.00  0.00    +0.000 A 
ATOM      4  C   UNL     1       0.696   9.205  22.596  0.00  0.00    +0.000 A 
ATOM      5  C   UNL     1       1.418   8.479  21.628  0.00  0.00    +0.000 A 
ATOM      6  C   UNL     1       1.333   8.702  20.224  0.00  0.00    +0.000 A 
ATOM      7  C   UNL     1       0.458   9.682  19.688  0.00  0.00    +0.000 A 
ATOM      8  C   UNL     1      -0.283  10.423  20.641  0.00  0.00    +0.000 A 
ATOM      9  N   UNL     1      -1.180  11.409  20.466  0.00  0.00    +0.000 NA
ENDROOT
BRANCH   1  13
ATOM     10  C   UNL     1      -3.973  15.060  22.764  0.00  0.00    +0.000 A 
ATOM     11  C   UNL     1      -4.508  13.769  22.628  0.00  0.00    +0.000 A 
ATOM     12  C   UNL     1      -3.708  12.684  22.252  0.00  0.00    +0.000 A 
ATOM     13  C   UNL     1      -2.338  12.874  22.034  0.00  0.00    +0.000 A 
ATOM     14  C   UNL     1      -1.796  14.157  22.154  0.00  0.00    +0.000 A 
ATOM     15  C   UNL     1      -2.603  15.246  22.517  0.00  0.00    +0.000 A 
ATOM     16 CL   UNL     1      -1.762  16.744  22.701  0.00  0.00    +0.000 Cl
BRANCH  10  18
ATOM     17  C   UNL     1      -5.480  16.856  22.279  0.00  0.00    +0.000 C 
ATOM     18  O   UNL     1      -4.896  15.964  23.216  0.00  0.00    +0.000 OA
ENDBRANCH  10  18
ENDBRANCH   1  13
BRANCH   6  19
ATOM     19  N   UNL     1       2.122   7.959  19.302  0.00  0.00    +0.000 N 
ATOM     20  C   UNL     1       2.429   6.602  19.358  0.00  0.00    +0.000 C 
ATOM     21  O   UNL     1       2.071   5.819  20.231  0.00  0.00    +0.000 OA
ATOM     22  H   UNL     1       2.508   8.489  18.529  0.00  0.00    +0.000 HD
BRANCH  20  23
ATOM     23  C   UNL     1       3.268   6.035  18.256  0.00  0.00    +0.000 A 
ATOM     24  C   UNL     1       4.117   6.900  17.539  0.00  0.00    +0.000 A 
ATOM     25  C   UNL     1       4.941   6.412  16.515  0.00  0.00    +0.000 A 
ATOM     26  C   UNL     1       4.925   5.050  16.196  0.00  0.00    +0.000 A 
ATOM     27  C   UNL     1       4.083   4.189  16.900  0.00  0.00    +0.000 A 
ATOM     28  C   UNL     1       3.263   4.685  17.915  0.00  0.00    +0.000 A 
ATOM     29  F   UNL     1       2.469   3.815  18.557  0.00  0.00    +0.000 F 
BRANCH  26  30
ATOM     30  C   UNL     1       5.767   4.537  15.152  0.00  0.00    +0.000 C 
ATOM     31  N   UNL     1       6.453   4.136  14.310  0.00  0.00    +0.000 NA
ENDBRANCH  26  30
ENDBRANCH  20  23
ENDBRANCH   6  19
TORSDOF 5
ENDMDL
MODEL 7
REMARK VINA RESULT:      -7.2      4.405     11.362
REMARK  Name = 
REMARK  6 active torsions:
REMARK  status: ('A' for Active; 'I' for Inactive)
REMARK    1  A    between atoms: C_1  and  O_2
REMARK    2  A    between atoms: O_2  and  C_3
REMARK    3  A    between atoms: C_6  and  N_7
REMARK    4  A    between atoms: C_12  and  N_13
REMARK    5  A    between atoms: C_14  and  C_16
REMARK    6  A    between atoms: C_19  and  C_20
REMARK                            x       y       z     vdW  Elec       q    Type
REMARK                         _______ _______ _______ _____ _____    ______ ____
ROOT
ATOM      1  N   UNL     1      -1.762  11.848  22.145  0.00  0.00    +0.000 N 
ATOM      2  N   UNL     1      -1.181  11.181  23.163  0.00  0.00    +0.000 NA
ATOM      3  C   UNL     1      -0.370  10.322  22.539  0.00  0.00    +0.000 A 
ATOM      4  C   UNL     1       0.500   9.383  23.100  0.00  0.00    +0.000 A 
ATOM      5  C   UNL     1       1.247   8.646  22.162  0.00  0.00    +0.000 A 
ATOM      6  C   UNL     1       1.163   8.815  20.750  0.00  0.00    +0.000 A 
ATOM      7  C   UNL     1       0.262   9.750  20.176  0.00  0.00    +0.000 A 
ATOM      8  C   UNL     1      -0.505  10.502  21.099  0.00  0.00    +0.000 A 
ATOM      9  N   UNL     1      -1.429  11.455  20.886  0.00  0.00    +0.000 NA
ENDROOT
BRANCH   1  13
ATOM     10  C   UNL     1      -4.447  15.025  22.998  0.00  0.00    +0.000 A 
ATOM     11  C   UNL     1      -4.671  14.161  21.914  0.00  0.00    +0.000 A 
ATOM     12  C   UNL     1      -3.772  13.136  21.600  0.00  0.00    +0.000 A 
ATOM     13  C   UNL     1      -2.637  12.940  22.396  0.00  0.00    +0.000 A 
ATOM     14  C   UNL     1      -2.396  13.801  23.471  0.00  0.00    +0.000 A 
ATOM     15  C   UNL     1      -3.292  14.838  23.774  0.00  0.00    +0.000 A 
ATOM     16 CL   UNL     1      -2.889  15.758  25.181  0.00  0.00    +0.000 Cl
BRANCH  10  18
ATOM     17  C   UNL     1      -6.780  15.516  22.774  0.00  0.00    +0.000 C 
ATOM     18  O   UNL     1      -5.478  15.905  23.187  0.00  0.00    +0.000 OA
ENDBRANCH  10  18
ENDBRANCH   1  13
BRANCH   6  19
ATOM     19  N   UNL     1       1.978   8.064  19.858  0.00  0.00    +0.000 N 
ATOM     20  C   UNL     1       2.189   6.687  19.867  0.00  0.00    +0.000 C 
ATOM     21  O   UNL     1       1.709   5.892  20.666  0.00  0.00    +0.000 OA
ATOM     22  H   UNL     1       2.462   8.601  19.147  0.00  0.00    +0.000 HD
BRANCH  20  23
ATOM     23  C   UNL     1       3.081   6.117  18.810  0.00  0.00    +0.000 A 
ATOM     24  C   UNL     1       3.366   4.738  18.837  0.00  0.00    +0.000 A 
ATOM     25  C   UNL     1       4.176   4.152  17.853  0.00  0.00    +0.000 A 
ATOM     26  C   UNL     1       4.710   4.941  16.829  0.00  0.00    +0.000 A 
ATOM     27  C   UNL     1       4.434   6.308  16.799  0.00  0.00    +0.000 A 
ATOM     28  C   UNL     1       3.631   6.883  17.785  0.00  0.00    +0.000 A 
ATOM     29  F   UNL     1       3.401   8.202  17.712  0.00  0.00    +0.000 F 
BRANCH  26  30
ATOM     30  C   UNL     1       5.537   4.352  15.813  0.00  0.00    +0.000 C 
ATOM     31  N   UNL     1       6.212   3.872  15.004  0.00  0.00    +0.000 NA
ENDBRANCH  26  30
ENDBRANCH  20  23
ENDBRANCH   6  19
TORSDOF 5
ENDMDL
MODEL 8
REMARK VINA RESULT:      -7.2      4.225     11.264
REMARK  Name = 
REMARK  6 active torsions:
REMARK  status: ('A' for Active; 'I' for Inactive)
REMARK    1  A    between atoms: C_1  and  O_2
REMARK    2  A    between atoms: O_2  and  C_3
REMARK    3  A    between atoms: C_6  and  N_7
REMARK    4  A    between atoms: C_12  and  N_13
REMARK    5  A    between atoms: C_14  and  C_16
REMARK    6  A    between atoms: C_19  and  C_20
REMARK                            x       y       z     vdW  Elec       q    Type
REMARK                         _______ _______ _______ _____ _____    ______ ____
ROOT
ATOM      1  N   UNL     1      -1.548  11.864  21.666  0.00  0.00    +0.000 N 
ATOM      2  N   UNL     1      -0.983  11.183  22.684  0.00  0.00    +0.000 NA
ATOM      3  C   UNL     1      -0.198  10.300  22.059  0.00  0.00    +0.000 A 
ATOM      4  C   UNL     1       0.647   9.339  22.619  0.00  0.00    +0.000 A 
ATOM      5  C   UNL     1       1.370   8.579  21.681  0.00  0.00    +0.000 A 
ATOM      6  C   UNL     1       1.287   8.749  20.269  0.00  0.00    +0.000 A 
ATOM      7  C   UNL     1       0.412   9.707  19.695  0.00  0.00    +0.000 A 
ATOM      8  C   UNL     1      -0.331  10.482  20.619  0.00  0.00    +0.000 A 
ATOM      9  N   UNL     1      -1.229  11.460  20.406  0.00  0.00    +0.000 NA
ENDROOT
BRANCH   1  13
ATOM     10  C   UNL     1      -4.088  15.213  22.268  0.00  0.00    +0.000 A 
ATOM     11  C   UNL     1      -2.693  15.365  22.215  0.00  0.00    +0.000 A 
ATOM     12  C   UNL     1      -1.845  14.264  22.057  0.00  0.00    +0.000 A 
ATOM     13  C   UNL     1      -2.391  12.981  21.918  0.00  0.00    +0.000 A 
ATOM     14  C   UNL     1      -3.777  12.815  21.982  0.00  0.00    +0.000 A 
ATOM     15  C   UNL     1      -4.625  13.921  22.155  0.00  0.00    +0.000 A 
ATOM     16 CL   UNL     1      -6.313  13.552  22.130  0.00  0.00    +0.000 Cl
BRANCH  10  18
ATOM     17  C   UNL     1      -4.355  17.328  23.360  0.00  0.00    +0.000 C 
ATOM     18  O   UNL     1      -4.743  16.413  22.345  0.00  0.00    +0.000 OA
ENDBRANCH  10  18
ENDBRANCH   1  13
BRANCH   6  19
ATOM     19  N   UNL     1       2.078   7.973  19.377  0.00  0.00    +0.000 N 
ATOM     20  C   UNL     1       2.341   6.607  19.453  0.00  0.00    +0.000 C 
ATOM     21  O   UNL     1       1.936   5.845  20.323  0.00  0.00    +0.000 OA
ATOM     22  H   UNL     1       2.502   8.483  18.609  0.00  0.00    +0.000 HD
BRANCH  20  23
ATOM     23  C   UNL     1       3.192   6.005  18.380  0.00  0.00    +0.000 A 
ATOM     24  C   UNL     1       4.010   6.853  17.609  0.00  0.00    +0.000 A 
ATOM     25  C   UNL     1       4.844   6.332  16.609  0.00  0.00    +0.000 A 
ATOM     26  C   UNL     1       4.870   4.954  16.370  0.00  0.00    +0.000 A 
ATOM     27  C   UNL     1       4.059   4.109  17.128  0.00  0.00    +0.000 A 
ATOM     28  C   UNL     1       3.229   4.637  18.118  0.00  0.00    +0.000 A 
ATOM     29  F   UNL     1       2.466   3.782  18.815  0.00  0.00    +0.000 F 
BRANCH  26  30
ATOM     30  C   UNL     1       5.723   4.408  15.352  0.00  0.00    +0.000 C 
ATOM     31  N   UNL     1       6.409   3.979  14.524  0.00  0.00    +0.000 NA
ENDBRANCH  26  30
ENDBRANCH  20  23
ENDBRANCH   6  19
TORSDOF 5
ENDMDL
MODEL 9
REMARK VINA RESULT:      -7.1      2.679      3.179
REMARK  Name = 
REMARK  6 active torsions:
REMARK  status: ('A' for Active; 'I' for Inactive)
REMARK    1  A    between atoms: C_1  and  O_2
REMARK    2  A    between atoms: O_2  and  C_3
REMARK    3  A    between atoms: C_6  and  N_7
REMARK    4  A    between atoms: C_12  and  N_13
REMARK    5  A    between atoms: C_14  and  C_16
REMARK    6  A    between atoms: C_19  and  C_20
REMARK                            x       y       z     vdW  Elec       q    Type
REMARK                         _______ _______ _______ _____ _____    ______ ____
ROOT
ATOM      1  N   UNL     1       2.214   6.855  19.474  0.00  0.00    +0.000 N 
ATOM      2  N   UNL     1       2.412   7.787  18.519  0.00  0.00    +0.000 NA
ATOM      3  C   UNL     1       1.722   8.838  18.973  0.00  0.00    +0.000 A 
ATOM      4  C   UNL     1       1.584  10.102  18.395  0.00  0.00    +0.000 A 
ATOM      5  C   UNL     1       0.809  11.006  19.147  0.00  0.00    +0.000 A 
ATOM      6  C   UNL     1       0.205  10.703  20.401  0.00  0.00    +0.000 A 
ATOM      7  C   UNL     1       0.323   9.411  20.978  0.00  0.00    +0.000 A 
ATOM      8  C   UNL     1       1.094   8.482  20.239  0.00  0.00    +0.000 A 
ATOM      9  N   UNL     1       1.397   7.200  20.506  0.00  0.00    +0.000 NA
ENDROOT
BRANCH   1  13
ATOM     10  C   UNL     1       4.175   3.089  19.442  0.00  0.00    +0.000 A 
ATOM     11  C   UNL     1       4.908   4.284  19.514  0.00  0.00    +0.000 A 
ATOM     12  C   UNL     1       4.274   5.531  19.485  0.00  0.00    +0.000 A 
ATOM     13  C   UNL     1       2.877   5.599  19.413  0.00  0.00    +0.000 A 
ATOM     14  C   UNL     1       2.137   4.417  19.327  0.00  0.00    +0.000 A 
ATOM     15  C   UNL     1       2.777   3.167  19.342  0.00  0.00    +0.000 A 
ATOM     16 CL   UNL     1       1.712   1.806  19.312  0.00  0.00    +0.000 Cl
BRANCH  10  18
ATOM     17  C   UNL     1       5.176   1.445  20.866  0.00  0.00    +0.000 C 
ATOM     18  O   UNL     1       4.968   1.980  19.567  0.00  0.00    +0.000 OA
ENDBRANCH  10  18
ENDBRANCH   1  13
BRANCH   6  19
ATOM     19  N   UNL     1      -0.533  11.677  21.128  0.00  0.00    +0.000 N 
ATOM     20  C   UNL     1      -0.780  11.698  22.498  0.00  0.00    +0.000 C 
ATOM     21  O   UNL     1      -0.405  10.859  23.309  0.00  0.00    +0.000 OA
ATOM     22  H   UNL     1      -0.927  12.431  20.576  0.00  0.00    +0.000 HD
BRANCH  20  23
ATOM     23  C   UNL     1      -1.572  12.844  23.042  0.00  0.00    +0.000 A 
ATOM     24  C   UNL     1      -2.890  12.609  23.481  0.00  0.00    +0.000 A 
ATOM     25  C   UNL     1      -3.663  13.646  24.021  0.00  0.00    +0.000 A 
ATOM     26  C   UNL     1      -3.126  14.933  24.131  0.00  0.00    +0.000 A 
ATOM     27  C   UNL     1      -1.823  15.174  23.694  0.00  0.00    +0.000 A 
ATOM     28  C   UNL     1      -1.062  14.136  23.154  0.00  0.00    +0.000 A 
ATOM     29  F   UNL     1       0.183  14.422  22.745  0.00  0.00    +0.000 F 
BRANCH  26  30
ATOM     30  C   UNL     1      -3.906  16.003  24.686  0.00  0.00    +0.000 C 
ATOM     31  N   UNL     1      -4.545  16.856  25.139  0.00  0.00    +0.000 NA
ENDBRANCH  26  30
ENDBRANCH  20  23
ENDBRANCH   6  19
TORSDOF 5
ENDMDL
