MODEL 1
REMARK VINA RESULT:      -8.6      0.000      0.000
REMARK  Name = 
REMARK  9 active torsions:
REMARK  status: ('A' for Active; 'I' for Inactive)
REMARK    1  A    between atoms: C_1  and  C_2
REMARK    2  A    between atoms: C_2  and  C_9
REMARK    3  A    between atoms: N_3  and  O_4
REMARK    4  A    between atoms: O_4  and  C_5
REMARK    5  A    between atoms: C_5  and  C_6
REMARK    6  A    between atoms: C_6  and  C_7
REMARK    7  A    between atoms: C_7  and  N_8
REMARK    8  A    between atoms: C_12  and  N_13
REMARK    9  A    between atoms: N_13  and  C_14
REMARK                            x       y       z     vdW  Elec       q    Type
REMARK                         _______ _______ _______ _____ _____    ______ ____
ROOT
ATOM      1  C   UNL     1       0.213  10.059  19.246  0.00  0.00    +0.000 A 
ATOM      2  C   UNL     1       0.352   9.440  20.494  0.00  0.00    +0.000 A 
ATOM      3  C   UNL     1       1.243   8.375  20.641  0.00  0.00    +0.000 A 
ATOM      4  C   UNL     1       1.992   7.919  19.548  0.00  0.00    +0.000 A 
ATOM      5  C   UNL     1       1.850   8.551  18.306  0.00  0.00    +0.000 A 
ATOM      6  C   UNL     1       0.957   9.607  18.153  0.00  0.00    +0.000 A 
ENDROOT
BRANCH   1   8
ATOM      7  C   UNL     1      -0.085  12.541  18.682  0.00  0.00    +0.000 C 
ATOM      8  C   UNL     1      -0.708  11.208  19.042  0.00  0.00    +0.000 C 
ATOM      9  N   UNL     1      -1.991  10.993  19.146  0.00  0.00    +0.000 NA
BRANCH   9  10
ATOM     10  O   UNL     1      -2.729  12.157  18.920  0.00  0.00    +0.000 OA
BRANCH  10  11
ATOM     11  C   UNL     1      -4.086  11.802  18.672  0.00  0.00    +0.000 C 
BRANCH  11  12
ATOM     12  C   UNL     1      -4.117  10.680  17.644  0.00  0.00    +0.000 C 
BRANCH  12  13
ATOM     13  C   UNL     1      -3.906  11.211  16.227  0.00  0.00    +0.000 C 
BRANCH  13  14
ATOM     14  N   UNL     1      -2.482  11.374  15.954  0.00  0.00    +0.000 NA
ATOM     15  H   UNL     1      -2.182  10.684  15.266  0.00  0.00    +0.000 HD
ATOM     16  H   UNL     1      -1.954  11.182  16.804  0.00  0.00    +0.000 HD
ENDBRANCH  13  14
ENDBRANCH  12  13
ENDBRANCH  11  12
ENDBRANCH  10  11
ENDBRANCH   9  10
ENDBRANCH   1   8
BRANCH   4  17
ATOM     17  N   UNL     1       2.897   6.847  19.689  0.00  0.00    +0.000 N 
ATOM     18  H   UNL     1       2.983   6.580  20.672  0.00  0.00    +0.000 HD
BRANCH  17  19
ATOM     19  C   UNL     1       2.837   5.620  18.959  0.00  0.00    +0.000 A 
ATOM     20  C   UNL     1       3.727   5.409  17.871  0.00  0.00    +0.000 A 
ATOM     21  C   UNL     1       4.429   6.473  17.258  0.00  0.00    +0.000 A 
ATOM     22  C   UNL     1       5.289   6.247  16.186  0.00  0.00    +0.000 A 
ATOM     23  C   UNL     1       5.453   4.956  15.707  0.00  0.00    +0.000 A 
ATOM     24  C   UNL     1       4.767   3.899  16.312  0.00  0.00    +0.000 A 
ATOM     25  C   UNL     1       3.915   4.090  17.392  0.00  0.00    +0.000 A 
ATOM     26  N   UNL     1       3.362   3.004  17.941  0.00  0.00    +0.000 NA
ATOM     27  C   UNL     1       2.533   3.254  18.964  0.00  0.00    +0.000 A 
ATOM     28  O   UNL     1       2.013   2.273  19.761  0.00  0.00    +0.000 OA
ATOM     29  C   UNL     1       1.251   2.884  20.703  0.00  0.00    +0.000 A 
ATOM     30  C   UNL     1       1.194   4.235  20.471  0.00  0.00    +0.000 A 
ATOM     31  C   UNL     1       2.153   4.495  19.455  0.00  0.00    +0.000 A 
ENDBRANCH  17  19
ENDBRANCH   4  17
TORSDOF 8
ENDMDL
MODEL 2
REMARK VINA RESULT:      -8.1      1.093      1.484
REMARK  Name = 
REMARK  9 active torsions:
REMARK  status: ('A' for Active; 'I' for Inactive)
REMARK    1  A    between atoms: C_1  and  C_2
REMARK    2  A    between atoms: C_2  and  C_9
REMARK    3  A    between atoms: N_3  and  O_4
REMARK    4  A    between atoms: O_4  and  C_5
REMARK    5  A    between atoms: C_5  and  C_6
REMARK    6  A    between atoms: C_6  and  C_7
REMARK    7  A    between atoms: C_7  and  N_8
REMARK    8  A    between atoms: C_12  and  N_13
REMARK    9  A    between atoms: N_13  and  C_14
REMARK                            x       y       z     vdW  Elec       q    Type
REMARK                         _______ _______ _______ _____ _____    ______ ____
ROOT
ATOM      1  C   UNL     1       0.717   9.680  19.037  0.00  0.00    +0.000 A 
ATOM      2  C   UNL     1       1.425   9.255  17.906  0.00  0.00    +0.000 A 
ATOM      3  C   UNL     1       2.276   8.151  17.999  0.00  0.00    +0.000 A 
ATOM      4  C   UNL     1       2.430   7.473  19.216  0.00  0.00    +0.000 A 
ATOM      5  C   UNL     1       1.711   7.904  20.338  0.00  0.00    +0.000 A 
ATOM      6  C   UNL     1       0.868   9.008  20.252  0.00  0.00    +0.000 A 
ENDROOT
BRANCH   1   8
ATOM      7  C   UNL     1       0.401  12.217  18.877  0.00  0.00    +0.000 C 
ATOM      8  C   UNL     1      -0.214  10.837  18.985  0.00  0.00    +0.000 C 
ATOM      9  N   UNL     1      -1.497  10.596  18.995  0.00  0.00    +0.000 NA
BRANCH   9  10
ATOM     10  O   UNL     1      -2.245  11.774  18.931  0.00  0.00    +0.000 OA
BRANCH  10  11
ATOM     11  C   UNL     1      -3.290  11.605  17.978  0.00  0.00    +0.000 C 
BRANCH  11  12
ATOM     12  C   UNL     1      -3.270  10.167  17.482  0.00  0.00    +0.000 C 
BRANCH  12  13
ATOM     13  C   UNL     1      -3.100  10.098  15.964  0.00  0.00    +0.000 C 
BRANCH  13  14
ATOM     14  N   UNL     1      -3.218  11.432  15.382  0.00  0.00    +0.000 NA
ATOM     15  H   UNL     1      -3.946  11.956  15.865  0.00  0.00    +0.000 HD
ATOM     16  H   UNL     1      -3.519  11.348  14.412  0.00  0.00    +0.000 HD
ENDBRANCH  13  14
ENDBRANCH  12  13
ENDBRANCH  11  12
ENDBRANCH  10  11
ENDBRANCH   9  10
ENDBRANCH   1   8
BRANCH   4  17
ATOM     17  N   UNL     1       3.283   6.355  19.317  0.00  0.00    +0.000 N 
ATOM     18  H   UNL     1       3.112   5.853  20.191  0.00  0.00    +0.000 HD
BRANCH  17  19
ATOM     19  C   UNL     1       3.439   5.346  18.317  0.00  0.00    +0.000 A 
ATOM     20  C   UNL     1       4.652   5.273  17.580  0.00  0.00    +0.000 A 
ATOM     21  C   UNL     1       5.574   6.345  17.542  0.00  0.00    +0.000 A 
ATOM     22  C   UNL     1       6.753   6.257  16.805  0.00  0.00    +0.000 A 
ATOM     23  C   UNL     1       7.023   5.100  16.091  0.00  0.00    +0.000 A 
ATOM     24  C   UNL     1       6.119   4.034  16.129  0.00  0.00    +0.000 A 
ATOM     25  C   UNL     1       4.943   4.086  16.866  0.00  0.00    +0.000 A 
ATOM     26  N   UNL     1       4.182   2.986  16.892  0.00  0.00    +0.000 NA
ATOM     27  C   UNL     1       3.051   3.105  17.600  0.00  0.00    +0.000 A 
ATOM     28  O   UNL     1       2.236   2.046  17.888  0.00  0.00    +0.000 OA
ATOM     29  C   UNL     1       1.212   2.522  18.641  0.00  0.00    +0.000 A 
ATOM     30  C   UNL     1       1.301   3.886  18.764  0.00  0.00    +0.000 A 
ATOM     31  C   UNL     1       2.573   4.240  18.239  0.00  0.00    +0.000 A 
ENDBRANCH  17  19
ENDBRANCH   4  17
TORSDOF 8
ENDMDL
MODEL 3
REMARK VINA RESULT:      -8.1      0.613      1.116
REMARK  Name = 
REMARK  9 active torsions:
REMARK  status: ('A' for Active; 'I' for Inactive)
REMARK    1  A    between atoms: C_1  and  C_2
REMARK    2  A    between atoms: C_2  and  C_9
REMARK    3  A    between atoms: N_3  and  O_4
REMARK    4  A    between atoms: O_4  and  C_5
REMARK    5  A    between atoms: C_5  and  C_6
REMARK    6  A    between atoms: C_6  and  C_7
REMARK    7  A    between atoms: C_7  and  N_8
REMARK    8  A    between atoms: C_12  and  N_13
REMARK    9  A    between atoms: N_13  and  C_14
REMARK                            x       y       z     vdW  Elec       q    Type
REMARK                         _______ _______ _______ _____ _____    ______ ____
ROOT
ATOM      1  C   UNL     1       0.144   9.872  19.916  0.00  0.00    +0.000 A 
ATOM      2  C   UNL     1       0.903   9.643  18.761  0.00  0.00    +0.000 A 
ATOM      3  C   UNL     1       1.813   8.584  18.733  0.00  0.00    +0.000 A 
ATOM      4  C   UNL     1       1.977   7.757  19.852  0.00  0.00    +0.000 A 
ATOM      5  C   UNL     1       1.208   7.992  20.999  0.00  0.00    +0.000 A 
ATOM      6  C   UNL     1       0.305   9.051  21.035  0.00  0.00    +0.000 A 
ENDROOT
BRANCH   1   8
ATOM      7  C   UNL     1      -0.614  12.052  21.028  0.00  0.00    +0.000 C 
ATOM      8  C   UNL     1      -0.850  10.974  19.990  0.00  0.00    +0.000 C 
ATOM      9  N   UNL     1      -1.838  10.970  19.137  0.00  0.00    +0.000 NA
BRANCH   9  10
ATOM     10  O   UNL     1      -2.683  12.067  19.319  0.00  0.00    +0.000 OA
BRANCH  10  11
ATOM     11  C   UNL     1      -3.772  11.967  18.407  0.00  0.00    +0.000 C 
BRANCH  11  12
ATOM     12  C   UNL     1      -3.662  10.646  17.659  0.00  0.00    +0.000 C 
BRANCH  12  13
ATOM     13  C   UNL     1      -4.153  10.773  16.218  0.00  0.00    +0.000 C 
BRANCH  13  14
ATOM     14  N   UNL     1      -3.167  11.485  15.409  0.00  0.00    +0.000 NA
ATOM     15  H   UNL     1      -3.637  11.991  14.660  0.00  0.00    +0.000 HD
ATOM     16  H   UNL     1      -2.553  10.808  14.958  0.00  0.00    +0.000 HD
ENDBRANCH  13  14
ENDBRANCH  12  13
ENDBRANCH  11  12
ENDBRANCH  10  11
ENDBRANCH   9  10
ENDBRANCH   1   8
BRANCH   4  17
ATOM     17  N   UNL     1       2.891   6.683  19.829  0.00  0.00    +0.000 N 
ATOM     18  H   UNL     1       3.000   6.289  20.766  0.00  0.00    +0.000 HD
BRANCH  17  19
ATOM     19  C   UNL     1       2.821   5.563  18.944  0.00  0.00    +0.000 A 
ATOM     20  C   UNL     1       3.731   5.473  17.856  0.00  0.00    +0.000 A 
ATOM     21  C   UNL     1       4.471   6.590  17.402  0.00  0.00    +0.000 A 
ATOM     22  C   UNL     1       5.351   6.484  16.327  0.00  0.00    +0.000 A 
ATOM     23  C   UNL     1       5.498   5.263  15.688  0.00  0.00    +0.000 A 
ATOM     24  C   UNL     1       4.774   4.153  16.135  0.00  0.00    +0.000 A 
ATOM     25  C   UNL     1       3.901   4.224  17.213  0.00  0.00    +0.000 A 
ATOM     26  N   UNL     1       3.311   3.090  17.605  0.00  0.00    +0.000 NA
ATOM     27  C   UNL     1       2.464   3.225  18.634  0.00  0.00    +0.000 A 
ATOM     28  O   UNL     1       1.904   2.162  19.285  0.00  0.00    +0.000 OA
ATOM     29  C   UNL     1       1.134   2.664  20.284  0.00  0.00    +0.000 A 
ATOM     30  C   UNL     1       1.112   4.036  20.228  0.00  0.00    +0.000 A 
ATOM     31  C   UNL     1       2.100   4.401  19.275  0.00  0.00    +0.000 A 
ENDBRANCH  17  19
ENDBRANCH   4  17
TORSDOF 8
ENDMDL
MODEL 4
REMARK VINA RESULT:      -8.1      1.796      2.476
REMARK  Name = 
REMARK  9 active torsions:
REMARK  status: ('A' for Active; 'I' for Inactive)
REMARK    1  A    between atoms: C_1  and  C_2
REMARK    2  A    between atoms: C_2  and  C_9
REMARK    3  A    between atoms: N_3  and  O_4
REMARK    4  A    between atoms: O_4  and  C_5
REMARK    5  A    between atoms: C_5  and  C_6
REMARK    6  A    between atoms: C_6  and  C_7
REMARK    7  A    between atoms: C_7  and  N_8
REMARK    8  A    between atoms: C_12  and  N_13
REMARK    9  A    between atoms: N_13  and  C_14
REMARK                            x       y       z     vdW  Elec       q    Type
REMARK                         _______ _______ _______ _____ _____    ______ ____
ROOT
ATOM      1  C   UNL     1       0.071   9.998  19.727  0.00  0.00    +0.000 A 
ATOM      2  C   UNL     1       0.251   9.240  20.891  0.00  0.00    +0.000 A 
ATOM      3  C   UNL     1       1.187   8.204  20.901  0.00  0.00    +0.000 A 
ATOM      4  C   UNL     1       1.939   7.914  19.754  0.00  0.00    +0.000 A 
ATOM      5  C   UNL     1       1.754   8.684  18.598  0.00  0.00    +0.000 A 
ATOM      6  C   UNL     1       0.817   9.713  18.581  0.00  0.00    +0.000 A 
ENDROOT
BRANCH   1   8
ATOM      7  C   UNL     1      -1.425  11.519  18.307  0.00  0.00    +0.000 C 
ATOM      8  C   UNL     1      -0.899  11.123  19.672  0.00  0.00    +0.000 C 
ATOM      9  N   UNL     1      -1.269  11.673  20.797  0.00  0.00    +0.000 NA
BRANCH   9  10
ATOM     10  O   UNL     1      -2.188  12.705  20.589  0.00  0.00    +0.000 OA
BRANCH  10  11
ATOM     11  C   UNL     1      -2.214  13.537  21.745  0.00  0.00    +0.000 C 
BRANCH  11  12
ATOM     12  C   UNL     1      -1.986  12.670  22.976  0.00  0.00    +0.000 C 
BRANCH  12  13
ATOM     13  C   UNL     1      -3.305  12.283  23.643  0.00  0.00    +0.000 C 
BRANCH  13  14
ATOM     14  N   UNL     1      -4.414  12.453  22.709  0.00  0.00    +0.000 NA
ATOM     15  H   UNL     1      -4.299  13.325  22.193  0.00  0.00    +0.000 HD
ATOM     16  H   UNL     1      -5.283  12.542  23.233  0.00  0.00    +0.000 HD
ENDBRANCH  13  14
ENDBRANCH  12  13
ENDBRANCH  11  12
ENDBRANCH  10  11
ENDBRANCH   9  10
ENDBRANCH   1   8
BRANCH   4  17
ATOM     17  N   UNL     1       2.889   6.872  19.757  0.00  0.00    +0.000 N 
ATOM     18  H   UNL     1       3.066   6.554  20.712  0.00  0.00    +0.000 HD
BRANCH  17  19
ATOM     19  C   UNL     1       2.811   5.687  18.963  0.00  0.00    +0.000 A 
ATOM     20  C   UNL     1       3.699   5.519  17.866  0.00  0.00    +0.000 A 
ATOM     21  C   UNL     1       4.420   6.602  17.312  0.00  0.00    +0.000 A 
ATOM     22  C   UNL     1       5.278   6.420  16.229  0.00  0.00    +0.000 A 
ATOM     23  C   UNL     1       5.422   5.154  15.683  0.00  0.00    +0.000 A 
ATOM     24  C   UNL     1       4.717   4.077  16.231  0.00  0.00    +0.000 A 
ATOM     25  C   UNL     1       3.866   4.225  17.318  0.00  0.00    +0.000 A 
ATOM     26  N   UNL     1       3.295   3.120  17.809  0.00  0.00    +0.000 NA
ATOM     27  C   UNL     1       2.468   3.329  18.842  0.00  0.00    +0.000 A 
ATOM     28  O   UNL     1       1.931   2.316  19.585  0.00  0.00    +0.000 OA
ATOM     29  C   UNL     1       1.177   2.889  20.558  0.00  0.00    +0.000 A 
ATOM     30  C   UNL     1       1.142   4.251  20.398  0.00  0.00    +0.000 A 
ATOM     31  C   UNL     1       2.107   4.548  19.398  0.00  0.00    +0.000 A 
ENDBRANCH  17  19
ENDBRANCH   4  17
TORSDOF 8
ENDMDL
MODEL 5
REMARK VINA RESULT:      -8.0      2.029      2.864
REMARK  Name = 
REMARK  9 active torsions:
REMARK  status: ('A' for Active; 'I' for Inactive)
REMARK    1  A    between atoms: C_1  and  C_2
REMARK    2  A    between atoms: C_2  and  C_9
REMARK    3  A    between atoms: N_3  and  O_4
REMARK    4  A    between atoms: O_4  and  C_5
REMARK    5  A    between atoms: C_5  and  C_6
REMARK    6  A    between atoms: C_6  and  C_7
REMARK    7  A    between atoms: C_7  and  N_8
REMARK    8  A    between atoms: C_12  and  N_13
REMARK    9  A    between atoms: N_13  and  C_14
REMARK                            x       y       z     vdW  Elec       q    Type
REMARK                         _______ _______ _______ _____ _____    ______ ____
ROOT
ATOM      1  C   UNL     1       0.230  10.044  19.847  0.00  0.00    +0.000 A 
ATOM      2  C   UNL     1       0.919   9.704  18.677  0.00  0.00    +0.000 A 
ATOM      3  C   UNL     1       1.783   8.607  18.678  0.00  0.00    +0.000 A 
ATOM      4  C   UNL     1       1.970   7.851  19.842  0.00  0.00    +0.000 A 
ATOM      5  C   UNL     1       1.270   8.196  21.006  0.00  0.00    +0.000 A 
ATOM      6  C   UNL     1       0.414   9.294  21.012  0.00  0.00    +0.000 A 
ENDROOT
BRANCH   1   8
ATOM      7  C   UNL     1      -1.154  11.779  18.567  0.00  0.00    +0.000 C 
ATOM      8  C   UNL     1      -0.714  11.191  19.893  0.00  0.00    +0.000 C 
ATOM      9  N   UNL     1      -1.138  11.594  21.060  0.00  0.00    +0.000 NA
BRANCH   9  10
ATOM     10  O   UNL     1      -2.023  12.668  20.945  0.00  0.00    +0.000 OA
BRANCH  10  11
ATOM     11  C   UNL     1      -3.218  12.357  21.656  0.00  0.00    +0.000 C 
BRANCH  11  12
ATOM     12  C   UNL     1      -2.893  12.267  23.140  0.00  0.00    +0.000 C 
BRANCH  12  13
ATOM     13  C   UNL     1      -3.989  12.904  23.995  0.00  0.00    +0.000 C 
BRANCH  13  14
ATOM     14  N   UNL     1      -4.616  11.897  24.847  0.00  0.00    +0.000 NA
ATOM     15  H   UNL     1      -4.979  12.338  25.690  0.00  0.00    +0.000 HD
ATOM     16  H   UNL     1      -3.909  11.230  25.152  0.00  0.00    +0.000 HD
ENDBRANCH  13  14
ENDBRANCH  12  13
ENDBRANCH  11  12
ENDBRANCH  10  11
ENDBRANCH   9  10
ENDBRANCH   1   8
BRANCH   4  17
ATOM     17  N   UNL     1       2.837   6.739  19.850  0.00  0.00    +0.000 N 
ATOM     18  H   UNL     1       2.893   6.337  20.789  0.00  0.00    +0.000 HD
BRANCH  17  19
ATOM     19  C   UNL     1       2.755   5.626  18.958  0.00  0.00    +0.000 A 
ATOM     20  C   UNL     1       3.671   5.528  17.876  0.00  0.00    +0.000 A 
ATOM     21  C   UNL     1       4.432   6.635  17.433  0.00  0.00    +0.000 A 
ATOM     22  C   UNL     1       5.317   6.520  16.364  0.00  0.00    +0.000 A 
ATOM     23  C   UNL     1       5.448   5.301  15.717  0.00  0.00    +0.000 A 
ATOM     24  C   UNL     1       4.703   4.201  16.153  0.00  0.00    +0.000 A 
ATOM     25  C   UNL     1       3.824   4.280  17.226  0.00  0.00    +0.000 A 
ATOM     26  N   UNL     1       3.213   3.153  17.606  0.00  0.00    +0.000 NA
ATOM     27  C   UNL     1       2.361   3.296  18.631  0.00  0.00    +0.000 A 
ATOM     28  O   UNL     1       1.779   2.239  19.271  0.00  0.00    +0.000 OA
ATOM     29  C   UNL     1       1.011   2.748  20.268  0.00  0.00    +0.000 A 
ATOM     30  C   UNL     1       1.012   4.119  20.221  0.00  0.00    +0.000 A 
ATOM     31  C   UNL     1       2.013   4.474  19.277  0.00  0.00    +0.000 A 
ENDBRANCH  17  19
ENDBRANCH   4  17
TORSDOF 8
ENDMDL
MODEL 6
REMARK VINA RESULT:      -8.0      1.401      3.257
REMARK  Name = 
REMARK  9 active torsions:
REMARK  status: ('A' for Active; 'I' for Inactive)
REMARK    1  A    between atoms: C_1  and  C_2
REMARK    2  A    between atoms: C_2  and  C_9
REMARK    3  A    between atoms: N_3  and  O_4
REMARK    4  A    between atoms: O_4  and  C_5
REMARK    5  A    between atoms: C_5  and  C_6
REMARK    6  A    between atoms: C_6  and  C_7
REMARK    7  A    between atoms: C_7  and  N_8
REMARK    8  A    between atoms: C_12  and  N_13
REMARK    9  A    between atoms: N_13  and  C_14
REMARK                            x       y       z     vdW  Elec       q    Type
REMARK                         _______ _______ _______ _____ _____    ______ ____
ROOT
ATOM      1  C   UNL     1       0.480   9.823  19.002  0.00  0.00    +0.000 A 
ATOM      2  C   UNL     1       1.309   9.305  18.000  0.00  0.00    +0.000 A 
ATOM      3  C   UNL     1       2.199   8.273  18.305  0.00  0.00    +0.000 A 
ATOM      4  C   UNL     1       2.271   7.758  19.606  0.00  0.00    +0.000 A 
ATOM      5  C   UNL     1       1.432   8.280  20.599  0.00  0.00    +0.000 A 
ATOM      6  C   UNL     1       0.549   9.315  20.302  0.00  0.00    +0.000 A 
ENDROOT
BRANCH   1   8
ATOM      7  C   UNL     1       0.037  12.327  18.686  0.00  0.00    +0.000 C 
ATOM      8  C   UNL     1      -0.496  10.909  18.724  0.00  0.00    +0.000 C 
ATOM      9  N   UNL     1      -1.737  10.577  18.492  0.00  0.00    +0.000 NA
BRANCH   9  10
ATOM     10  O   UNL     1      -2.532  11.697  18.237  0.00  0.00    +0.000 OA
BRANCH  10  11
ATOM     11  C   UNL     1      -3.722  11.276  17.576  0.00  0.00    +0.000 C 
BRANCH  11  12
ATOM     12  C   UNL     1      -3.369  10.167  16.596  0.00  0.00    +0.000 C 
BRANCH  12  13
ATOM     13  C   UNL     1      -2.915  10.730  15.250  0.00  0.00    +0.000 C 
BRANCH  13  14
ATOM     14  N   UNL     1      -3.639  10.083  14.160  0.00  0.00    +0.000 NA
ATOM     15  H   UNL     1      -4.064   9.219  14.494  0.00  0.00    +0.000 HD
ATOM     16  H   UNL     1      -2.979   9.816  13.431  0.00  0.00    +0.000 HD
ENDBRANCH  13  14
ENDBRANCH  12  13
ENDBRANCH  11  12
ENDBRANCH  10  11
ENDBRANCH   9  10
ENDBRANCH   1   8
BRANCH   4  17
ATOM     17  N   UNL     1       3.163   6.713  19.921  0.00  0.00    +0.000 N 
ATOM     18  H   UNL     1       2.962   6.341  20.852  0.00  0.00    +0.000 HD
BRANCH  17  19
ATOM     19  C   UNL     1       3.419   5.574  19.097  0.00  0.00    +0.000 A 
ATOM     20  C   UNL     1       2.520   4.473  19.125  0.00  0.00    +0.000 A 
ATOM     21  C   UNL     1       1.582   4.297  20.169  0.00  0.00    +0.000 A 
ATOM     22  C   UNL     1       0.716   3.206  20.185  0.00  0.00    +0.000 A 
ATOM     23  C   UNL     1       0.781   2.272  19.162  0.00  0.00    +0.000 A 
ATOM     24  C   UNL     1       1.703   2.444  18.124  0.00  0.00    +0.000 A 
ATOM     25  C   UNL     1       2.568   3.529  18.073  0.00  0.00    +0.000 A 
ATOM     26  N   UNL     1       3.361   3.635  17.001  0.00  0.00    +0.000 NA
ATOM     27  C   UNL     1       4.188   4.689  17.019  0.00  0.00    +0.000 A 
ATOM     28  O   UNL     1       4.944   5.064  15.944  0.00  0.00    +0.000 OA
ATOM     29  C   UNL     1       5.628   6.179  16.305  0.00  0.00    +0.000 A 
ATOM     30  C   UNL     1       5.400   6.476  17.625  0.00  0.00    +0.000 A 
ATOM     31  C   UNL     1       4.345   5.619  18.038  0.00  0.00    +0.000 A 
ENDBRANCH  17  19
ENDBRANCH   4  17
TORSDOF 8
ENDMDL
MODEL 7
REMARK VINA RESULT:      -8.0      1.527      3.222
REMARK  Name = 
REMARK  9 active torsions:
REMARK  status: ('A' for Active; 'I' for Inactive)
REMARK    1  A    between atoms: C_1  and  C_2
REMARK    2  A    between atoms: C_2  and  C_9
REMARK    3  A    between atoms: N_3  and  O_4
REMARK    4  A    between atoms: O_4  and  C_5
REMARK    5  A    between atoms: C_5  and  C_6
REMARK    6  A    between atoms: C_6  and  C_7
REMARK    7  A    between atoms: C_7  and  N_8
REMARK    8  A    between atoms: C_12  and  N_13
REMARK    9  A    between atoms: N_13  and  C_14
REMARK                            x       y       z     vdW  Elec       q    Type
REMARK                         _______ _______ _______ _____ _____    ______ ____
ROOT
ATOM      1  C   UNL     1       0.281   9.636  19.280  0.00  0.00    +0.000 A 
ATOM      2  C   UNL     1       0.438   9.075  20.553  0.00  0.00    +0.000 A 
ATOM      3  C   UNL     1       1.423   8.108  20.765  0.00  0.00    +0.000 A 
ATOM      4  C   UNL     1       2.247   7.690  19.713  0.00  0.00    +0.000 A 
ATOM      5  C   UNL     1       2.085   8.263  18.444  0.00  0.00    +0.000 A 
ATOM      6  C   UNL     1       1.100   9.221  18.226  0.00  0.00    +0.000 A 
ENDROOT
BRANCH   1   8
ATOM      7  C   UNL     1      -1.134  11.582  20.160  0.00  0.00    +0.000 C 
ATOM      8  C   UNL     1      -0.739  10.681  19.007  0.00  0.00    +0.000 C 
ATOM      9  N   UNL     1      -1.202  10.787  17.791  0.00  0.00    +0.000 NA
BRANCH   9  10
ATOM     10  O   UNL     1      -2.141  11.815  17.684  0.00  0.00    +0.000 OA
BRANCH  10  11
ATOM     11  C   UNL     1      -3.189  11.393  16.817  0.00  0.00    +0.000 C 
BRANCH  11  12
ATOM     12  C   UNL     1      -2.687  10.229  15.975  0.00  0.00    +0.000 C 
BRANCH  12  13
ATOM     13  C   UNL     1      -3.586   9.981  14.765  0.00  0.00    +0.000 C 
BRANCH  13  14
ATOM     14  N   UNL     1      -2.828  10.149  13.528  0.00  0.00    +0.000 NA
ATOM     15  H   UNL     1      -2.708  11.142  13.330  0.00  0.00    +0.000 HD
ATOM     16  H   UNL     1      -3.364   9.763  12.752  0.00  0.00    +0.000 HD
ENDBRANCH  13  14
ENDBRANCH  12  13
ENDBRANCH  11  12
ENDBRANCH  10  11
ENDBRANCH   9  10
ENDBRANCH   1   8
BRANCH   4  17
ATOM     17  N   UNL     1       3.247   6.717  19.919  0.00  0.00    +0.000 N 
ATOM     18  H   UNL     1       3.184   6.338  20.866  0.00  0.00    +0.000 HD
BRANCH  17  19
ATOM     19  C   UNL     1       3.489   5.594  19.069  0.00  0.00    +0.000 A 
ATOM     20  C   UNL     1       2.605   4.482  19.109  0.00  0.00    +0.000 A 
ATOM     21  C   UNL     1       1.703   4.278  20.180  0.00  0.00    +0.000 A 
ATOM     22  C   UNL     1       0.852   3.176  20.206  0.00  0.00    +0.000 A 
ATOM     23  C   UNL     1       0.895   2.259  19.167  0.00  0.00    +0.000 A 
ATOM     24  C   UNL     1       1.780   2.458  18.103  0.00  0.00    +0.000 A 
ATOM     25  C   UNL     1       2.630   3.555  18.040  0.00  0.00    +0.000 A 
ATOM     26  N   UNL     1       3.385   3.688  16.946  0.00  0.00    +0.000 NA
ATOM     27  C   UNL     1       4.200   4.752  16.954  0.00  0.00    +0.000 A 
ATOM     28  O   UNL     1       4.916   5.153  15.860  0.00  0.00    +0.000 OA
ATOM     29  C   UNL     1       5.598   6.271  16.216  0.00  0.00    +0.000 A 
ATOM     30  C   UNL     1       5.410   6.544  17.548  0.00  0.00    +0.000 A 
ATOM     31  C   UNL     1       4.379   5.667  17.981  0.00  0.00    +0.000 A 
ENDBRANCH  17  19
ENDBRANCH   4  17
TORSDOF 8
ENDMDL
MODEL 8
REMARK VINA RESULT:      -8.0      1.481      2.495
REMARK  Name = 
REMARK  9 active torsions:
REMARK  status: ('A' for Active; 'I' for Inactive)
REMARK    1  A    between atoms: C_1  and  C_2
REMARK    2  A    between atoms: C_2  and  C_9
REMARK    3  A    between atoms: N_3  and  O_4
REMARK    4  A    between atoms: O_4  and  C_5
REMARK    5  A    between atoms: C_5  and  C_6
REMARK    6  A    between atoms: C_6  and  C_7
REMARK    7  A    between atoms: C_7  and  N_8
REMARK    8  A    between atoms: C_12  and  N_13
REMARK    9  A    between atoms: N_13  and  C_14
REMARK                            x       y       z     vdW  Elec       q    Type
REMARK                         _______ _______ _______ _____ _____    ______ ____
ROOT
ATOM      1  C   UNL     1       0.468  10.021  19.232  0.00  0.00    +0.000 A 
ATOM      2  C   UNL     1       0.572   9.397  20.482  0.00  0.00    +0.000 A 
ATOM      3  C   UNL     1       1.373   8.262  20.622  0.00  0.00    +0.000 A 
ATOM      4  C   UNL     1       2.065   7.740  19.521  0.00  0.00    +0.000 A 
ATOM      5  C   UNL     1       1.958   8.377  18.277  0.00  0.00    +0.000 A 
ATOM      6  C   UNL     1       1.154   9.504  18.131  0.00  0.00    +0.000 A 
ENDROOT
BRANCH   1   8
ATOM      7  C   UNL     1      -1.648  11.088  18.258  0.00  0.00    +0.000 C 
ATOM      8  C   UNL     1      -0.357  11.242  19.036  0.00  0.00    +0.000 C 
ATOM      9  N   UNL     1       0.055  12.356  19.576  0.00  0.00    +0.000 NA
BRANCH   9  10
ATOM     10  O   UNL     1      -0.823  13.411  19.317  0.00  0.00    +0.000 OA
BRANCH  10  11
ATOM     11  C   UNL     1      -0.069  14.546  18.900  0.00  0.00    +0.000 C 
BRANCH  11  12
ATOM     12  C   UNL     1       1.339  14.431  19.466  0.00  0.00    +0.000 C 
BRANCH  12  13
ATOM     13  C   UNL     1       2.389  14.405  18.356  0.00  0.00    +0.000 C 
BRANCH  13  14
ATOM     14  N   UNL     1       2.438  13.084  17.736  0.00  0.00    +0.000 NA
ATOM     15  H   UNL     1       1.789  13.049  16.951  0.00  0.00    +0.000 HD
ATOM     16  H   UNL     1       2.117  12.388  18.407  0.00  0.00    +0.000 HD
ENDBRANCH  13  14
ENDBRANCH  12  13
ENDBRANCH  11  12
ENDBRANCH  10  11
ENDBRANCH   9  10
ENDBRANCH   1   8
BRANCH   4  17
ATOM     17  N   UNL     1       2.880   6.597  19.655  0.00  0.00    +0.000 N 
ATOM     18  H   UNL     1       2.830   6.233  20.609  0.00  0.00    +0.000 HD
BRANCH  17  19
ATOM     19  C   UNL     1       2.834   5.451  18.802  0.00  0.00    +0.000 A 
ATOM     20  C   UNL     1       3.795   5.313  17.764  0.00  0.00    +0.000 A 
ATOM     21  C   UNL     1       4.576   6.402  17.314  0.00  0.00    +0.000 A 
ATOM     22  C   UNL     1       5.506   6.248  16.288  0.00  0.00    +0.000 A 
ATOM     23  C   UNL     1       5.663   5.006  15.694  0.00  0.00    +0.000 A 
ATOM     24  C   UNL     1       4.898   3.923  16.139  0.00  0.00    +0.000 A 
ATOM     25  C   UNL     1       3.974   4.041  17.169  0.00  0.00    +0.000 A 
ATOM     26  N   UNL     1       3.346   2.929  17.565  0.00  0.00    +0.000 NA
ATOM     27  C   UNL     1       2.451   3.111  18.546  0.00  0.00    +0.000 A 
ATOM     28  O   UNL     1       1.841   2.078  19.200  0.00  0.00    +0.000 OA
ATOM     29  C   UNL     1       1.032   2.624  20.143  0.00  0.00    +0.000 A 
ATOM     30  C   UNL     1       1.037   3.993  20.045  0.00  0.00    +0.000 A 
ATOM     31  C   UNL     1       2.077   4.312  19.132  0.00  0.00    +0.000 A 
ENDBRANCH  17  19
ENDBRANCH   4  17
TORSDOF 8
ENDMDL
MODEL 9
REMARK VINA RESULT:      -8.0      0.989      1.468
REMARK  Name = 
REMARK  9 active torsions:
REMARK  status: ('A' for Active; 'I' for Inactive)
REMARK    1  A    between atoms: C_1  and  C_2
REMARK    2  A    between atoms: C_2  and  C_9
REMARK    3  A    between atoms: N_3  and  O_4
REMARK    4  A    between atoms: O_4  and  C_5
REMARK    5  A    between atoms: C_5  and  C_6
REMARK    6  A    between atoms: C_6  and  C_7
REMARK    7  A    between atoms: C_7  and  N_8
REMARK    8  A    between atoms: C_12  and  N_13
REMARK    9  A    between atoms: N_13  and  C_14
REMARK                            x       y       z     vdW  Elec       q    Type
REMARK                         _______ _______ _______ _____ _____    ______ ____
ROOT
ATOM      1  C   UNL     1       0.205   9.739  19.166  0.00  0.00    +0.000 A 
ATOM      2  C   UNL     1       1.034   9.384  18.095  0.00  0.00    +0.000 A 
ATOM      3  C   UNL     1       2.042   8.436  18.287  0.00  0.00    +0.000 A 
ATOM      4  C   UNL     1       2.231   7.845  19.543  0.00  0.00    +0.000 A 
ATOM      5  C   UNL     1       1.390   8.204  20.605  0.00  0.00    +0.000 A 
ATOM      6  C   UNL     1       0.391   9.154  20.421  0.00  0.00    +0.000 A 
ENDROOT
BRANCH   1   8
ATOM      7  C   UNL     1      -1.267  11.549  20.226  0.00  0.00    +0.000 C 
ATOM      8  C   UNL     1      -0.893  10.729  19.008  0.00  0.00    +0.000 C 
ATOM      9  N   UNL     1      -1.437  10.861  17.829  0.00  0.00    +0.000 NA
BRANCH   9  10
ATOM     10  O   UNL     1      -2.442  11.831  17.830  0.00  0.00    +0.000 OA
BRANCH  10  11
ATOM     11  C   UNL     1      -3.428  11.474  16.866  0.00  0.00    +0.000 C 
BRANCH  11  12
ATOM     12  C   UNL     1      -2.768  10.638  15.780  0.00  0.00    +0.000 C 
BRANCH  12  13
ATOM     13  C   UNL     1      -3.727  10.364  14.621  0.00  0.00    +0.000 C 
BRANCH  13  14
ATOM     14  N   UNL     1      -2.978  10.112  13.394  0.00  0.00    +0.000 NA
ATOM     15  H   UNL     1      -1.981  10.063  13.602  0.00  0.00    +0.000 HD
ATOM     16  H   UNL     1      -3.101  10.899  12.759  0.00  0.00    +0.000 HD
ENDBRANCH  13  14
ENDBRANCH  12  13
ENDBRANCH  11  12
ENDBRANCH  10  11
ENDBRANCH   9  10
ENDBRANCH   1   8
BRANCH   4  17
ATOM     17  N   UNL     1       3.243   6.884  19.745  0.00  0.00    +0.000 N 
ATOM     18  H   UNL     1       3.409   6.745  20.743  0.00  0.00    +0.000 HD
BRANCH  17  19
ATOM     19  C   UNL     1       3.263   5.578  19.164  0.00  0.00    +0.000 A 
ATOM     20  C   UNL     1       4.019   5.349  17.983  0.00  0.00    +0.000 A 
ATOM     21  C   UNL     1       4.471   6.409  17.163  0.00  0.00    +0.000 A 
ATOM     22  C   UNL     1       5.202   6.163  16.003  0.00  0.00    +0.000 A 
ATOM     23  C   UNL     1       5.484   4.854  15.643  0.00  0.00    +0.000 A 
ATOM     24  C   UNL     1       5.045   3.802  16.452  0.00  0.00    +0.000 A 
ATOM     25  C   UNL     1       4.328   4.016  17.622  0.00  0.00    +0.000 A 
ATOM     26  N   UNL     1       4.017   2.945  18.359  0.00  0.00    +0.000 NA
ATOM     27  C   UNL     1       3.306   3.212  19.463  0.00  0.00    +0.000 A 
ATOM     28  O   UNL     1       3.045   2.279  20.427  0.00  0.00    +0.000 OA
ATOM     29  C   UNL     1       2.337   2.901  21.404  0.00  0.00    +0.000 A 
ATOM     30  C   UNL     1       2.055   4.194  21.043  0.00  0.00    +0.000 A 
ATOM     31  C   UNL     1       2.821   4.446  19.873  0.00  0.00    +0.000 A 
ENDBRANCH  17  19
ENDBRANCH   4  17
TORSDOF 8
ENDMDL
