MODEL 1
REMARK VINA RESULT:      -8.1      0.000      0.000
REMARK  Name = 
REMARK  8 active torsions:
REMARK  status: ('A' for Active; 'I' for Inactive)
REMARK    1  A    between atoms: C_1  and  O_2
REMARK    2  A    between atoms: O_2  and  C_3
REMARK    3  A    between atoms: C_6  and  C_7
REMARK    4  A    between atoms: C_7  and  N_8
REMARK    5  A    between atoms: N_8  and  C_9
REMARK    6  A    between atoms: C_20  and  C_21
REMARK    7  A    between atoms: N_23  and  C_24
REMARK    8  A    between atoms: C_24  and  C_25
REMARK                            x       y       z     vdW  Elec       q    Type
REMARK                         _______ _______ _______ _____ _____    ______ ____
ROOT
ATOM      1  C   UNL     1      -0.616  10.946  18.920  0.00  0.00    +0.000 A 
ATOM      2  N   UNL     1      -1.337  11.755  19.717  0.00  0.00    +0.000 NA
ATOM      3  C   UNL     1      -0.931  12.015  20.970  0.00  0.00    +0.000 A 
ATOM      4  N   UNL     1      -1.671  12.919  21.708  0.00  0.00    +0.000 N 
ATOM      5  C   UNL     1      -3.087  13.042  21.359  0.00  0.00    +0.000 C 
ATOM      6  C   UNL     1      -3.804  12.627  22.608  0.00  0.00    +0.000 C 
ATOM      7  C   UNL     1      -3.977  13.557  23.777  0.00  0.00    +0.000 C 
ATOM      8  C   UNL     1      -2.810  12.602  23.725  0.00  0.00    +0.000 C 
ATOM      9  C   UNL     1      -1.468  12.973  23.157  0.00  0.00    +0.000 C 
ATOM     10  N   UNL     1       0.185  11.476  21.471  0.00  0.00    +0.000 NA
ATOM     11  C   UNL     1       0.900  10.658  20.661  0.00  0.00    +0.000 A 
ATOM     12  C   UNL     1       0.565  10.367  19.355  0.00  0.00    +0.000 A 
ENDROOT
BRANCH  12  13
ATOM     13  C   UNL     1       1.448   9.459  18.576  0.00  0.00    +0.000 C 
ATOM     14  O   UNL     1       1.853   9.811  17.472  0.00  0.00    +0.000 OA
ATOM     15  N   UNL     1       1.782   8.252  19.143  0.00  0.00    +0.000 N 
ATOM     16  H   UNL     1       1.456   8.060  20.088  0.00  0.00    +0.000 HD
BRANCH  15  17
ATOM     17  C   UNL     1       2.685   7.307  18.525  0.00  0.00    +0.000 C 
BRANCH  17  18
ATOM     18  C   UNL     1       2.700   5.988  19.255  0.00  0.00    +0.000 A 
ATOM     19  C   UNL     1       3.568   4.962  18.846  0.00  0.00    +0.000 A 
ATOM     20  C   UNL     1       3.618   3.756  19.549  0.00  0.00    +0.000 A 
ATOM     21  C   UNL     1       2.792   3.566  20.649  0.00  0.00    +0.000 A 
ATOM     22  F   UNL     1       2.854   2.414  21.335  0.00  0.00    +0.000 F 
ATOM     23  C   UNL     1       1.908   4.558  21.059  0.00  0.00    +0.000 A 
ATOM     24  C   UNL     1       1.859   5.767  20.359  0.00  0.00    +0.000 A 
ENDBRANCH  17  18
ENDBRANCH  15  17
ENDBRANCH  12  13
BRANCH   1  25
ATOM     25  N   UNL     1      -1.056  10.813  17.581  0.00  0.00    +0.000 N 
ATOM     26  H   UNL     1      -1.464  11.719  17.336  0.00  0.00    +0.000 HD
BRANCH  25  27
ATOM     27  C   UNL     1      -2.066   9.765  17.409  0.00  0.00    +0.000 C 
BRANCH  27  31
ATOM     28  C   UNL     1      -6.019  11.536  17.647  0.00  0.00    +0.000 A 
ATOM     29  C   UNL     1      -5.033  12.082  16.812  0.00  0.00    +0.000 A 
ATOM     30  C   UNL     1      -3.754  11.527  16.739  0.00  0.00    +0.000 A 
ATOM     31  C   UNL     1      -3.435  10.398  17.499  0.00  0.00    +0.000 A 
ATOM     32  C   UNL     1      -4.417   9.851  18.337  0.00  0.00    +0.000 A 
ATOM     33  C   UNL     1      -5.706  10.400  18.403  0.00  0.00    +0.000 A 
ATOM     34 CL   UNL     1      -6.831   9.540  19.392  0.00  0.00    +0.000 Cl
BRANCH  28  36
ATOM     35  C   UNL     1      -7.539  13.144  18.531  0.00  0.00    +0.000 C 
ATOM     36  O   UNL     1      -7.224  12.178  17.539  0.00  0.00    +0.000 OA
ENDBRANCH  28  36
ENDBRANCH  27  31
ENDBRANCH  25  27
ENDBRANCH   1  25
TORSDOF 7
ENDMDL
MODEL 2
REMARK VINA RESULT:      -7.9      3.263      7.631
REMARK  Name = 
REMARK  8 active torsions:
REMARK  status: ('A' for Active; 'I' for Inactive)
REMARK    1  A    between atoms: C_1  and  O_2
REMARK    2  A    between atoms: O_2  and  C_3
REMARK    3  A    between atoms: C_6  and  C_7
REMARK    4  A    between atoms: C_7  and  N_8
REMARK    5  A    between atoms: N_8  and  C_9
REMARK    6  A    between atoms: C_20  and  C_21
REMARK    7  A    between atoms: N_23  and  C_24
REMARK    8  A    between atoms: C_24  and  C_25
REMARK                            x       y       z     vdW  Elec       q    Type
REMARK                         _______ _______ _______ _____ _____    ______ ____
ROOT
ATOM      1  C   UNL     1       1.675   8.440  19.414  0.00  0.00    +0.000 A 
ATOM      2  N   UNL     1       2.579   7.820  18.634  0.00  0.00    +0.000 NA
ATOM      3  C   UNL     1       3.031   6.597  18.955  0.00  0.00    +0.000 A 
ATOM      4  N   UNL     1       3.894   5.980  18.071  0.00  0.00    +0.000 N 
ATOM      5  C   UNL     1       4.707   6.862  17.231  0.00  0.00    +0.000 C 
ATOM      6  C   UNL     1       6.117   6.530  17.619  0.00  0.00    +0.000 C 
ATOM      7  C   UNL     1       6.827   5.316  17.090  0.00  0.00    +0.000 C 
ATOM      8  C   UNL     1       6.093   5.260  18.407  0.00  0.00    +0.000 C 
ATOM      9  C   UNL     1       4.660   4.821  18.531  0.00  0.00    +0.000 C 
ATOM     10  N   UNL     1       2.614   5.963  20.057  0.00  0.00    +0.000 NA
ATOM     11  C   UNL     1       1.708   6.600  20.837  0.00  0.00    +0.000 A 
ATOM     12  C   UNL     1       1.175   7.841  20.559  0.00  0.00    +0.000 A 
ENDROOT
BRANCH  12  13
ATOM     13  C   UNL     1       0.179   8.419  21.499  0.00  0.00    +0.000 C 
ATOM     14  O   UNL     1      -0.947   7.937  21.559  0.00  0.00    +0.000 OA
ATOM     15  N   UNL     1       0.579   9.480  22.279  0.00  0.00    +0.000 N 
ATOM     16  H   UNL     1       1.548   9.783  22.215  0.00  0.00    +0.000 HD
BRANCH  15  17
ATOM     17  C   UNL     1      -0.265  10.090  23.281  0.00  0.00    +0.000 C 
BRANCH  17  18
ATOM     18  C   UNL     1      -0.866  11.384  22.793  0.00  0.00    +0.000 A 
ATOM     19  C   UNL     1      -2.186  11.725  23.135  0.00  0.00    +0.000 A 
ATOM     20  C   UNL     1      -2.730  12.945  22.725  0.00  0.00    +0.000 A 
ATOM     21  C   UNL     1      -1.965  13.817  21.961  0.00  0.00    +0.000 A 
ATOM     22  F   UNL     1      -2.481  14.996  21.583  0.00  0.00    +0.000 F 
ATOM     23  C   UNL     1      -0.665  13.491  21.591  0.00  0.00    +0.000 A 
ATOM     24  C   UNL     1      -0.117  12.273  22.004  0.00  0.00    +0.000 A 
ENDBRANCH  17  18
ENDBRANCH  15  17
ENDBRANCH  12  13
BRANCH   1  25
ATOM     25  N   UNL     1       1.171   9.677  18.945  0.00  0.00    +0.000 N 
ATOM     26  H   UNL     1       0.528  10.004  19.672  0.00  0.00    +0.000 HD
BRANCH  25  27
ATOM     27  C   UNL     1       0.447   9.559  17.676  0.00  0.00    +0.000 C 
BRANCH  27  31
ATOM     28  C   UNL     1      -3.446  11.426  18.096  0.00  0.00    +0.000 A 
ATOM     29  C   UNL     1      -2.482  11.531  19.110  0.00  0.00    +0.000 A 
ATOM     30  C   UNL     1      -1.232  10.922  18.990  0.00  0.00    +0.000 A 
ATOM     31  C   UNL     1      -0.912  10.198  17.838  0.00  0.00    +0.000 A 
ATOM     32  C   UNL     1      -1.874  10.089  16.823  0.00  0.00    +0.000 A 
ATOM     33  C   UNL     1      -3.127  10.708  16.937  0.00  0.00    +0.000 A 
ATOM     34 CL   UNL     1      -4.151  10.576  15.553  0.00  0.00    +0.000 Cl
BRANCH  28  36
ATOM     35  C   UNL     1      -4.936  12.309  19.733  0.00  0.00    +0.000 C 
ATOM     36  O   UNL     1      -4.584  12.137  18.367  0.00  0.00    +0.000 OA
ENDBRANCH  28  36
ENDBRANCH  27  31
ENDBRANCH  25  27
ENDBRANCH   1  25
TORSDOF 7
ENDMDL
MODEL 3
REMARK VINA RESULT:      -7.9      1.820      2.208
REMARK  Name = 
REMARK  8 active torsions:
REMARK  status: ('A' for Active; 'I' for Inactive)
REMARK    1  A    between atoms: C_1  and  O_2
REMARK    2  A    between atoms: O_2  and  C_3
REMARK    3  A    between atoms: C_6  and  C_7
REMARK    4  A    between atoms: C_7  and  N_8
REMARK    5  A    between atoms: N_8  and  C_9
REMARK    6  A    between atoms: C_20  and  C_21
REMARK    7  A    between atoms: N_23  and  C_24
REMARK    8  A    between atoms: C_24  and  C_25
REMARK                            x       y       z     vdW  Elec       q    Type
REMARK                         _______ _______ _______ _____ _____    ______ ____
ROOT
ATOM      1  C   UNL     1       0.218  10.333  19.529  0.00  0.00    +0.000 A 
ATOM      2  N   UNL     1      -0.536  11.260  20.148  0.00  0.00    +0.000 NA
ATOM      3  C   UNL     1      -0.547  11.343  21.488  0.00  0.00    +0.000 A 
ATOM      4  N   UNL     1      -1.275  12.368  22.060  0.00  0.00    +0.000 N 
ATOM      5  C   UNL     1      -2.413  12.870  21.287  0.00  0.00    +0.000 C 
ATOM      6  C   UNL     1      -3.596  12.591  22.165  0.00  0.00    +0.000 C 
ATOM      7  C   UNL     1      -3.954  13.474  23.328  0.00  0.00    +0.000 C 
ATOM      8  C   UNL     1      -3.090  12.254  23.530  0.00  0.00    +0.000 C 
ATOM      9  C   UNL     1      -1.587  12.295  23.488  0.00  0.00    +0.000 C 
ATOM     10  N   UNL     1       0.171  10.509  22.248  0.00  0.00    +0.000 NA
ATOM     11  C   UNL     1       0.921   9.576  21.613  0.00  0.00    +0.000 A 
ATOM     12  C   UNL     1       1.009   9.448  20.243  0.00  0.00    +0.000 A 
ENDROOT
BRANCH  12  13
ATOM     13  C   UNL     1       1.880   8.384  19.679  0.00  0.00    +0.000 C 
ATOM     14  O   UNL     1       2.309   8.497  18.535  0.00  0.00    +0.000 OA
ATOM     15  N   UNL     1       2.178   7.309  20.484  0.00  0.00    +0.000 N 
ATOM     16  H   UNL     1       1.834   7.319  21.442  0.00  0.00    +0.000 HD
BRANCH  15  17
ATOM     17  C   UNL     1       3.067   6.241  20.086  0.00  0.00    +0.000 C 
BRANCH  17  18
ATOM     18  C   UNL     1       2.307   5.014  19.651  0.00  0.00    +0.000 A 
ATOM     19  C   UNL     1       1.613   4.239  20.595  0.00  0.00    +0.000 A 
ATOM     20  C   UNL     1       0.868   3.129  20.190  0.00  0.00    +0.000 A 
ATOM     21  C   UNL     1       0.830   2.780  18.846  0.00  0.00    +0.000 A 
ATOM     22  F   UNL     1       0.101   1.724  18.455  0.00  0.00    +0.000 F 
ATOM     23  C   UNL     1       1.528   3.517  17.897  0.00  0.00    +0.000 A 
ATOM     24  C   UNL     1       2.270   4.631  18.299  0.00  0.00    +0.000 A 
ENDBRANCH  17  18
ENDBRANCH  15  17
ENDBRANCH  12  13
BRANCH   1  25
ATOM     25  N   UNL     1       0.257  10.386  18.114  0.00  0.00    +0.000 N 
ATOM     26  H   UNL     1      -0.060  11.327  17.867  0.00  0.00    +0.000 HD
BRANCH  25  27
ATOM     27  C   UNL     1      -0.618   9.397  17.477  0.00  0.00    +0.000 C 
BRANCH  27  31
ATOM     28  C   UNL     1      -4.372  11.336  16.498  0.00  0.00    +0.000 A 
ATOM     29  C   UNL     1      -3.790  11.490  17.765  0.00  0.00    +0.000 A 
ATOM     30  C   UNL     1      -2.589  10.858  18.093  0.00  0.00    +0.000 A 
ATOM     31  C   UNL     1      -1.934  10.062  17.151  0.00  0.00    +0.000 A 
ATOM     32  C   UNL     1      -2.515   9.904  15.884  0.00  0.00    +0.000 A 
ATOM     33  C   UNL     1      -3.715  10.545  15.548  0.00  0.00    +0.000 A 
ATOM     34 CL   UNL     1      -4.236  10.342  13.913  0.00  0.00    +0.000 Cl
BRANCH  28  36
ATOM     35  C   UNL     1      -6.345  12.241  17.483  0.00  0.00    +0.000 C 
ATOM     36  O   UNL     1      -5.514  12.077  16.343  0.00  0.00    +0.000 OA
ENDBRANCH  28  36
ENDBRANCH  27  31
ENDBRANCH  25  27
ENDBRANCH   1  25
TORSDOF 7
ENDMDL
MODEL 4
REMARK VINA RESULT:      -7.9      3.325      8.017
REMARK  Name = 
REMARK  8 active torsions:
REMARK  status: ('A' for Active; 'I' for Inactive)
REMARK    1  A    between atoms: C_1  and  O_2
REMARK    2  A    between atoms: O_2  and  C_3
REMARK    3  A    between atoms: C_6  and  C_7
REMARK    4  A    between atoms: C_7  and  N_8
REMARK    5  A    between atoms: N_8  and  C_9
REMARK    6  A    between atoms: C_20  and  C_21
REMARK    7  A    between atoms: N_23  and  C_24
REMARK    8  A    between atoms: C_24  and  C_25
REMARK                            x       y       z     vdW  Elec       q    Type
REMARK                         _______ _______ _______ _____ _____    ______ ____
ROOT
ATOM      1  C   UNL     1       1.409   8.776  20.283  0.00  0.00    +0.000 A 
ATOM      2  N   UNL     1       1.922   7.541  20.431  0.00  0.00    +0.000 NA
ATOM      3  C   UNL     1       2.324   6.838  19.359  0.00  0.00    +0.000 A 
ATOM      4  N   UNL     1       2.918   5.611  19.584  0.00  0.00    +0.000 N 
ATOM      5  C   UNL     1       2.530   4.914  20.811  0.00  0.00    +0.000 C 
ATOM      6  C   UNL     1       1.905   3.643  20.322  0.00  0.00    +0.000 C 
ATOM      7  C   UNL     1       2.728   2.467  19.875  0.00  0.00    +0.000 C 
ATOM      8  C   UNL     1       2.244   3.488  18.874  0.00  0.00    +0.000 C 
ATOM      9  C   UNL     1       3.058   4.684  18.461  0.00  0.00    +0.000 C 
ATOM     10  N   UNL     1       2.218   7.328  18.119  0.00  0.00    +0.000 NA
ATOM     11  C   UNL     1       1.695   8.571  17.983  0.00  0.00    +0.000 A 
ATOM     12  C   UNL     1       1.288   9.365  19.034  0.00  0.00    +0.000 A 
ENDROOT
BRANCH  12  13
ATOM     13  C   UNL     1       0.740  10.715  18.741  0.00  0.00    +0.000 C 
ATOM     14  O   UNL     1       1.500  11.677  18.684  0.00  0.00    +0.000 OA
ATOM     15  N   UNL     1      -0.616  10.823  18.534  0.00  0.00    +0.000 N 
ATOM     16  H   UNL     1      -1.169   9.968  18.537  0.00  0.00    +0.000 HD
BRANCH  15  17
ATOM     17  C   UNL     1      -1.268  12.061  18.173  0.00  0.00    +0.000 C 
BRANCH  17  18
ATOM     18  C   UNL     1      -2.717  12.072  18.589  0.00  0.00    +0.000 A 
ATOM     19  C   UNL     1      -3.701  11.533  17.744  0.00  0.00    +0.000 A 
ATOM     20  C   UNL     1      -5.038  11.498  18.147  0.00  0.00    +0.000 A 
ATOM     21  C   UNL     1      -5.397  12.015  19.386  0.00  0.00    +0.000 A 
ATOM     22  F   UNL     1      -6.678  11.965  19.780  0.00  0.00    +0.000 F 
ATOM     23  C   UNL     1      -4.444  12.574  20.229  0.00  0.00    +0.000 A 
ATOM     24  C   UNL     1      -3.105  12.606  19.829  0.00  0.00    +0.000 A 
ENDBRANCH  17  18
ENDBRANCH  15  17
ENDBRANCH  12  13
BRANCH   1  25
ATOM     25  N   UNL     1       1.113   9.489  21.470  0.00  0.00    +0.000 N 
ATOM     26  H   UNL     1       1.648   9.024  22.208  0.00  0.00    +0.000 HD
BRANCH  25  27
ATOM     27  C   UNL     1      -0.311   9.464  21.816  0.00  0.00    +0.000 C 
BRANCH  27  31
ATOM     28  C   UNL     1      -1.545  13.437  23.042  0.00  0.00    +0.000 A 
ATOM     29  C   UNL     1      -0.404  13.249  22.248  0.00  0.00    +0.000 A 
ATOM     30  C   UNL     1       0.009  11.973  21.860  0.00  0.00    +0.000 A 
ATOM     31  C   UNL     1      -0.723  10.850  22.253  0.00  0.00    +0.000 A 
ATOM     32  C   UNL     1      -1.863  11.034  23.049  0.00  0.00    +0.000 A 
ATOM     33  C   UNL     1      -2.285  12.315  23.431  0.00  0.00    +0.000 A 
ATOM     34 CL   UNL     1      -3.771  12.378  24.311  0.00  0.00    +0.000 Cl
BRANCH  28  36
ATOM     35  C   UNL     1      -0.722  15.656  23.335  0.00  0.00    +0.000 C 
ATOM     36  O   UNL     1      -1.823  14.759  23.270  0.00  0.00    +0.000 OA
ENDBRANCH  28  36
ENDBRANCH  27  31
ENDBRANCH  25  27
ENDBRANCH   1  25
TORSDOF 7
ENDMDL
MODEL 5
REMARK VINA RESULT:      -7.9      3.954      5.724
REMARK  Name = 
REMARK  8 active torsions:
REMARK  status: ('A' for Active; 'I' for Inactive)
REMARK    1  A    between atoms: C_1  and  O_2
REMARK    2  A    between atoms: O_2  and  C_3
REMARK    3  A    between atoms: C_6  and  C_7
REMARK    4  A    between atoms: C_7  and  N_8
REMARK    5  A    between atoms: N_8  and  C_9
REMARK    6  A    between atoms: C_20  and  C_21
REMARK    7  A    between atoms: N_23  and  C_24
REMARK    8  A    between atoms: C_24  and  C_25
REMARK                            x       y       z     vdW  Elec       q    Type
REMARK                         _______ _______ _______ _____ _____    ______ ____
ROOT
ATOM      1  C   UNL     1       0.901  11.324  19.514  0.00  0.00    +0.000 A 
ATOM      2  N   UNL     1       0.237  12.048  20.433  0.00  0.00    +0.000 NA
ATOM      3  C   UNL     1      -0.391  11.442  21.453  0.00  0.00    +0.000 A 
ATOM      4  N   UNL     1      -0.985  12.245  22.408  0.00  0.00    +0.000 N 
ATOM      5  C   UNL     1      -1.421  13.571  21.965  0.00  0.00    +0.000 C 
ATOM      6  C   UNL     1      -2.903  13.555  22.186  0.00  0.00    +0.000 C 
ATOM      7  C   UNL     1      -3.511  13.772  23.544  0.00  0.00    +0.000 C 
ATOM      8  C   UNL     1      -3.230  12.375  23.045  0.00  0.00    +0.000 C 
ATOM      9  C   UNL     1      -1.949  11.643  23.330  0.00  0.00    +0.000 C 
ATOM     10  N   UNL     1      -0.392  10.111  21.584  0.00  0.00    +0.000 NA
ATOM     11  C   UNL     1       0.276   9.392  20.650  0.00  0.00    +0.000 A 
ATOM     12  C   UNL     1       0.970   9.942  19.592  0.00  0.00    +0.000 A 
ENDROOT
BRANCH  12  13
ATOM     13  C   UNL     1       1.667   9.034  18.645  0.00  0.00    +0.000 C 
ATOM     14  O   UNL     1       1.833   9.386  17.481  0.00  0.00    +0.000 OA
ATOM     15  N   UNL     1       2.110   7.825  19.128  0.00  0.00    +0.000 N 
ATOM     16  H   UNL     1       1.989   7.633  20.120  0.00  0.00    +0.000 HD
BRANCH  15  17
ATOM     17  C   UNL     1       2.862   6.880  18.334  0.00  0.00    +0.000 C 
BRANCH  17  18
ATOM     18  C   UNL     1       2.439   5.459  18.606  0.00  0.00    +0.000 A 
ATOM     19  C   UNL     1       2.592   4.472  17.617  0.00  0.00    +0.000 A 
ATOM     20  C   UNL     1       2.246   3.145  17.882  0.00  0.00    +0.000 A 
ATOM     21  C   UNL     1       1.730   2.805  19.126  0.00  0.00    +0.000 A 
ATOM     22  F   UNL     1       1.413   1.527  19.386  0.00  0.00    +0.000 F 
ATOM     23  C   UNL     1       1.547   3.767  20.112  0.00  0.00    +0.000 A 
ATOM     24  C   UNL     1       1.897   5.095  19.850  0.00  0.00    +0.000 A 
ENDBRANCH  17  18
ENDBRANCH  15  17
ENDBRANCH  12  13
BRANCH   1  25
ATOM     25  N   UNL     1       1.627  12.047  18.536  0.00  0.00    +0.000 N 
ATOM     26  H   UNL     1       2.553  12.202  18.942  0.00  0.00    +0.000 HD
BRANCH  25  27
ATOM     27  C   UNL     1       1.019  13.340  18.209  0.00  0.00    +0.000 C 
BRANCH  27  31
ATOM     28  C   UNL     1       3.842  16.510  19.101  0.00  0.00    +0.000 A 
ATOM     29  C   UNL     1       4.281  15.267  18.621  0.00  0.00    +0.000 A 
ATOM     30  C   UNL     1       3.381  14.236  18.344  0.00  0.00    +0.000 A 
ATOM     31  C   UNL     1       2.010  14.432  18.533  0.00  0.00    +0.000 A 
ATOM     32  C   UNL     1       1.568  15.672  19.015  0.00  0.00    +0.000 A 
ATOM     33  C   UNL     1       2.469  16.713  19.284  0.00  0.00    +0.000 A 
ATOM     34 CL   UNL     1       1.755  18.212  19.759  0.00  0.00    +0.000 Cl
BRANCH  28  36
ATOM     35  C   UNL     1       6.156  17.012  18.826  0.00  0.00    +0.000 C 
ATOM     36  O   UNL     1       4.862  17.411  19.256  0.00  0.00    +0.000 OA
ENDBRANCH  28  36
ENDBRANCH  27  31
ENDBRANCH  25  27
ENDBRANCH   1  25
TORSDOF 7
ENDMDL
MODEL 6
REMARK VINA RESULT:      -7.9      4.372      7.995
REMARK  Name = 
REMARK  8 active torsions:
REMARK  status: ('A' for Active; 'I' for Inactive)
REMARK    1  A    between atoms: C_1  and  O_2
REMARK    2  A    between atoms: O_2  and  C_3
REMARK    3  A    between atoms: C_6  and  C_7
REMARK    4  A    between atoms: C_7  and  N_8
REMARK    5  A    between atoms: N_8  and  C_9
REMARK    6  A    between atoms: C_20  and  C_21
REMARK    7  A    between atoms: N_23  and  C_24
REMARK    8  A    between atoms: C_24  and  C_25
REMARK                            x       y       z     vdW  Elec       q    Type
REMARK                         _______ _______ _______ _____ _____    ______ ____
ROOT
ATOM      1  C   UNL     1       1.354   9.210  20.192  0.00  0.00    +0.000 A 
ATOM      2  N   UNL     1       1.665   7.913  20.374  0.00  0.00    +0.000 NA
ATOM      3  C   UNL     1       2.064   7.157  19.339  0.00  0.00    +0.000 A 
ATOM      4  N   UNL     1       2.448   5.857  19.604  0.00  0.00    +0.000 N 
ATOM      5  C   UNL     1       1.844   5.226  20.779  0.00  0.00    +0.000 C 
ATOM      6  C   UNL     1       1.092   4.059  20.215  0.00  0.00    +0.000 C 
ATOM      7  C   UNL     1       1.776   2.775  19.835  0.00  0.00    +0.000 C 
ATOM      8  C   UNL     1       1.547   3.854  18.805  0.00  0.00    +0.000 C 
ATOM      9  C   UNL     1       2.562   4.917  18.489  0.00  0.00    +0.000 C 
ATOM     10  N   UNL     1       2.153   7.656  18.101  0.00  0.00    +0.000 NA
ATOM     11  C   UNL     1       1.832   8.961  17.930  0.00  0.00    +0.000 A 
ATOM     12  C   UNL     1       1.444   9.808  18.946  0.00  0.00    +0.000 A 
ENDROOT
BRANCH  12  13
ATOM     13  C   UNL     1       1.129  11.223  18.618  0.00  0.00    +0.000 C 
ATOM     14  O   UNL     1      -0.037  11.602  18.634  0.00  0.00    +0.000 OA
ATOM     15  N   UNL     1       2.180  12.057  18.315  0.00  0.00    +0.000 N 
ATOM     16  H   UNL     1       3.124  11.682  18.383  0.00  0.00    +0.000 HD
BRANCH  15  17
ATOM     17  C   UNL     1       2.022  13.468  18.046  0.00  0.00    +0.000 C 
BRANCH  17  18
ATOM     18  C   UNL     1       2.124  14.292  19.305  0.00  0.00    +0.000 A 
ATOM     19  C   UNL     1       1.359  15.462  19.450  0.00  0.00    +0.000 A 
ATOM     20  C   UNL     1       1.415  16.201  20.633  0.00  0.00    +0.000 A 
ATOM     21  C   UNL     1       2.246  15.785  21.666  0.00  0.00    +0.000 A 
ATOM     22  F   UNL     1       2.286  16.486  22.809  0.00  0.00    +0.000 F 
ATOM     23  C   UNL     1       3.029  14.645  21.536  0.00  0.00    +0.000 A 
ATOM     24  C   UNL     1       2.972  13.901  20.355  0.00  0.00    +0.000 A 
ENDBRANCH  17  18
ENDBRANCH  15  17
ENDBRANCH  12  13
BRANCH   1  25
ATOM     25  N   UNL     1       1.049   9.960  21.354  0.00  0.00    +0.000 N 
ATOM     26  H   UNL     1       1.651   9.581  22.090  0.00  0.00    +0.000 HD
BRANCH  25  27
ATOM     27  C   UNL     1      -0.353   9.839  21.765  0.00  0.00    +0.000 C 
BRANCH  27  31
ATOM     28  C   UNL     1      -1.742  13.684  23.214  0.00  0.00    +0.000 A 
ATOM     29  C   UNL     1      -0.593  13.587  22.415  0.00  0.00    +0.000 A 
ATOM     30  C   UNL     1      -0.131  12.352  21.955  0.00  0.00    +0.000 A 
ATOM     31  C   UNL     1      -0.819  11.180  22.280  0.00  0.00    +0.000 A 
ATOM     32  C   UNL     1      -1.967  11.274  23.081  0.00  0.00    +0.000 A 
ATOM     33  C   UNL     1      -2.439  12.514  23.536  0.00  0.00    +0.000 A 
ATOM     34 CL   UNL     1      -3.926  12.468  24.412  0.00  0.00    +0.000 Cl
BRANCH  28  36
ATOM     35  C   UNL     1      -1.776  15.438  24.828  0.00  0.00    +0.000 C 
ATOM     36  O   UNL     1      -2.072  14.979  23.517  0.00  0.00    +0.000 OA
ENDBRANCH  28  36
ENDBRANCH  27  31
ENDBRANCH  25  27
ENDBRANCH   1  25
TORSDOF 7
ENDMDL
MODEL 7
REMARK VINA RESULT:      -7.9      3.954      5.567
REMARK  Name = 
REMARK  8 active torsions:
REMARK  status: ('A' for Active; 'I' for Inactive)
REMARK    1  A    between atoms: C_1  and  O_2
REMARK    2  A    between atoms: O_2  and  C_3
REMARK    3  A    between atoms: C_6  and  C_7
REMARK    4  A    between atoms: C_7  and  N_8
REMARK    5  A    between atoms: N_8  and  C_9
REMARK    6  A    between atoms: C_20  and  C_21
REMARK    7  A    between atoms: N_23  and  C_24
REMARK    8  A    between atoms: C_24  and  C_25
REMARK                            x       y       z     vdW  Elec       q    Type
REMARK                         _______ _______ _______ _____ _____    ______ ____
ROOT
ATOM      1  C   UNL     1       0.623  11.136  19.780  0.00  0.00    +0.000 A 
ATOM      2  N   UNL     1      -0.124  11.959  20.540  0.00  0.00    +0.000 NA
ATOM      3  C   UNL     1      -0.732  11.500  21.645  0.00  0.00    +0.000 A 
ATOM      4  N   UNL     1      -1.415  12.412  22.426  0.00  0.00    +0.000 N 
ATOM      5  C   UNL     1      -1.941  13.593  21.740  0.00  0.00    +0.000 C 
ATOM      6  C   UNL     1      -3.423  13.496  21.938  0.00  0.00    +0.000 C 
ATOM      7  C   UNL     1      -4.087  13.906  23.223  0.00  0.00    +0.000 C 
ATOM      8  C   UNL     1      -3.682  12.470  22.995  0.00  0.00    +0.000 C 
ATOM      9  C   UNL     1      -2.355  11.911  23.430  0.00  0.00    +0.000 C 
ATOM     10  N   UNL     1      -0.632  10.220  22.020  0.00  0.00    +0.000 NA
ATOM     11  C   UNL     1       0.118   9.400  21.245  0.00  0.00    +0.000 A 
ATOM     12  C   UNL     1       0.797   9.803  20.114  0.00  0.00    +0.000 A 
ENDROOT
BRANCH  12  13
ATOM     13  C   UNL     1       1.592   8.797  19.361  0.00  0.00    +0.000 C 
ATOM     14  O   UNL     1       1.772   8.948  18.156  0.00  0.00    +0.000 OA
ATOM     15  N   UNL     1       2.105   7.732  20.064  0.00  0.00    +0.000 N 
ATOM     16  H   UNL     1       1.964   7.711  21.072  0.00  0.00    +0.000 HD
BRANCH  15  17
ATOM     17  C   UNL     1       2.952   6.723  19.470  0.00  0.00    +0.000 C 
BRANCH  17  18
ATOM     18  C   UNL     1       2.212   5.426  19.260  0.00  0.00    +0.000 A 
ATOM     19  C   UNL     1       2.092   4.879  17.971  0.00  0.00    +0.000 A 
ATOM     20  C   UNL     1       1.449   3.654  17.779  0.00  0.00    +0.000 A 
ATOM     21  C   UNL     1       0.911   2.982  18.869  0.00  0.00    +0.000 A 
ATOM     22  F   UNL     1       0.309   1.797  18.687  0.00  0.00    +0.000 F 
ATOM     23  C   UNL     1       0.996   3.514  20.150  0.00  0.00    +0.000 A 
ATOM     24  C   UNL     1       1.643   4.738  20.345  0.00  0.00    +0.000 A 
ENDBRANCH  17  18
ENDBRANCH  15  17
ENDBRANCH  12  13
BRANCH   1  25
ATOM     25  N   UNL     1       1.317  11.725  18.696  0.00  0.00    +0.000 N 
ATOM     26  H   UNL     1       2.258  11.921  19.048  0.00  0.00    +0.000 HD
BRANCH  25  27
ATOM     27  C   UNL     1       0.705  12.973  18.231  0.00  0.00    +0.000 C 
BRANCH  27  31
ATOM     28  C   UNL     1       3.512  16.190  18.996  0.00  0.00    +0.000 A 
ATOM     29  C   UNL     1       2.186  16.267  19.447  0.00  0.00    +0.000 A 
ATOM     30  C   UNL     1       1.272  15.243  19.193  0.00  0.00    +0.000 A 
ATOM     31  C   UNL     1       1.671  14.105  18.487  0.00  0.00    +0.000 A 
ATOM     32  C   UNL     1       2.995  14.026  18.032  0.00  0.00    +0.000 A 
ATOM     33  C   UNL     1       3.918  15.049  18.294  0.00  0.00    +0.000 A 
ATOM     34 CL   UNL     1       5.535  14.746  17.768  0.00  0.00    +0.000 Cl
BRANCH  28  36
ATOM     35  C   UNL     1       4.023  17.794  20.683  0.00  0.00    +0.000 C 
ATOM     36  O   UNL     1       4.272  17.259  19.391  0.00  0.00    +0.000 OA
ENDBRANCH  28  36
ENDBRANCH  27  31
ENDBRANCH  25  27
ENDBRANCH   1  25
TORSDOF 7
ENDMDL
MODEL 8
REMARK VINA RESULT:      -7.8      2.343      4.889
REMARK  Name = 
REMARK  8 active torsions:
REMARK  status: ('A' for Active; 'I' for Inactive)
REMARK    1  A    between atoms: C_1  and  O_2
REMARK    2  A    between atoms: O_2  and  C_3
REMARK    3  A    between atoms: C_6  and  C_7
REMARK    4  A    between atoms: C_7  and  N_8
REMARK    5  A    between atoms: N_8  and  C_9
REMARK    6  A    between atoms: C_20  and  C_21
REMARK    7  A    between atoms: N_23  and  C_24
REMARK    8  A    between atoms: C_24  and  C_25
REMARK                            x       y       z     vdW  Elec       q    Type
REMARK                         _______ _______ _______ _____ _____    ______ ____
ROOT
ATOM      1  C   UNL     1      -1.278  11.554  19.567  0.00  0.00    +0.000 A 
ATOM      2  N   UNL     1      -2.604  11.789  19.590  0.00  0.00    +0.000 NA
ATOM      3  C   UNL     1      -3.398  11.302  18.623  0.00  0.00    +0.000 A 
ATOM      4  N   UNL     1      -4.758  11.507  18.747  0.00  0.00    +0.000 N 
ATOM      5  C   UNL     1      -5.172  12.687  19.508  0.00  0.00    +0.000 C 
ATOM      6  C   UNL     1      -5.932  13.511  18.512  0.00  0.00    +0.000 C 
ATOM      7  C   UNL     1      -7.358  13.206  18.144  0.00  0.00    +0.000 C 
ATOM      8  C   UNL     1      -6.220  12.649  17.324  0.00  0.00    +0.000 C 
ATOM      9  C   UNL     1      -5.609  11.298  17.575  0.00  0.00    +0.000 C 
ATOM     10  N   UNL     1      -2.906  10.586  17.606  0.00  0.00    +0.000 NA
ATOM     11  C   UNL     1      -1.570  10.361  17.591  0.00  0.00    +0.000 A 
ATOM     12  C   UNL     1      -0.694  10.800  18.561  0.00  0.00    +0.000 A 
ENDROOT
BRANCH  12  13
ATOM     13  C   UNL     1       0.749  10.473  18.424  0.00  0.00    +0.000 C 
ATOM     14  O   UNL     1       1.591  11.323  18.698  0.00  0.00    +0.000 OA
ATOM     15  N   UNL     1       1.079   9.207  18.000  0.00  0.00    +0.000 N 
ATOM     16  H   UNL     1       0.324   8.539  17.852  0.00  0.00    +0.000 HD
BRANCH  15  17
ATOM     17  C   UNL     1       2.441   8.736  17.891  0.00  0.00    +0.000 C 
BRANCH  17  18
ATOM     18  C   UNL     1       2.616   7.378  18.521  0.00  0.00    +0.000 A 
ATOM     19  C   UNL     1       2.074   7.111  19.790  0.00  0.00    +0.000 A 
ATOM     20  C   UNL     1       2.192   5.839  20.357  0.00  0.00    +0.000 A 
ATOM     21  C   UNL     1       2.864   4.839  19.667  0.00  0.00    +0.000 A 
ATOM     22  F   UNL     1       2.962   3.613  20.203  0.00  0.00    +0.000 F 
ATOM     23  C   UNL     1       3.429   5.085  18.421  0.00  0.00    +0.000 A 
ATOM     24  C   UNL     1       3.308   6.356  17.850  0.00  0.00    +0.000 A 
ENDBRANCH  17  18
ENDBRANCH  15  17
ENDBRANCH  12  13
BRANCH   1  25
ATOM     25  N   UNL     1      -0.532  12.008  20.680  0.00  0.00    +0.000 N 
ATOM     26  H   UNL     1       0.445  11.801  20.458  0.00  0.00    +0.000 HD
BRANCH  25  27
ATOM     27  C   UNL     1      -0.896  11.335  21.930  0.00  0.00    +0.000 C 
BRANCH  27  31
ATOM     28  C   UNL     1      -2.955  14.197  24.458  0.00  0.00    +0.000 A 
ATOM     29  C   UNL     1      -1.675  14.470  23.953  0.00  0.00    +0.000 A 
ATOM     30  C   UNL     1      -0.999  13.549  23.151  0.00  0.00    +0.000 A 
ATOM     31  C   UNL     1      -1.599  12.330  22.824  0.00  0.00    +0.000 A 
ATOM     32  C   UNL     1      -2.877  12.052  23.329  0.00  0.00    +0.000 A 
ATOM     33  C   UNL     1      -3.562  12.980  24.127  0.00  0.00    +0.000 A 
ATOM     34 CL   UNL     1      -5.172  12.535  24.570  0.00  0.00    +0.000 Cl
BRANCH  28  36
ATOM     35  C   UNL     1      -4.351  16.129  24.486  0.00  0.00    +0.000 C 
ATOM     36  O   UNL     1      -3.480  15.240  25.173  0.00  0.00    +0.000 OA
ENDBRANCH  28  36
ENDBRANCH  27  31
ENDBRANCH  25  27
ENDBRANCH   1  25
TORSDOF 7
ENDMDL
MODEL 9
REMARK VINA RESULT:      -7.8      1.453      1.704
REMARK  Name = 
REMARK  8 active torsions:
REMARK  status: ('A' for Active; 'I' for Inactive)
REMARK    1  A    between atoms: C_1  and  O_2
REMARK    2  A    between atoms: O_2  and  C_3
REMARK    3  A    between atoms: C_6  and  C_7
REMARK    4  A    between atoms: C_7  and  N_8
REMARK    5  A    between atoms: N_8  and  C_9
REMARK    6  A    between atoms: C_20  and  C_21
REMARK    7  A    between atoms: N_23  and  C_24
REMARK    8  A    between atoms: C_24  and  C_25
REMARK                            x       y       z     vdW  Elec       q    Type
REMARK                         _______ _______ _______ _____ _____    ______ ____
ROOT
ATOM      1  C   UNL     1      -0.507  10.615  19.264  0.00  0.00    +0.000 A 
ATOM      2  N   UNL     1      -1.231  11.516  19.955  0.00  0.00    +0.000 NA
ATOM      3  C   UNL     1      -0.895  11.835  21.215  0.00  0.00    +0.000 A 
ATOM      4  N   UNL     1      -1.627  12.826  21.842  0.00  0.00    +0.000 N 
ATOM      5  C   UNL     1      -3.006  13.005  21.385  0.00  0.00    +0.000 C 
ATOM      6  C   UNL     1      -3.830  12.715  22.603  0.00  0.00    +0.000 C 
ATOM      7  C   UNL     1      -4.025  13.728  23.696  0.00  0.00    +0.000 C 
ATOM      8  C   UNL     1      -2.917  12.708  23.787  0.00  0.00    +0.000 C 
ATOM      9  C   UNL     1      -1.520  12.965  23.295  0.00  0.00    +0.000 C 
ATOM     10  N   UNL     1       0.149  11.268  21.828  0.00  0.00    +0.000 NA
ATOM     11  C   UNL     1       0.867  10.359  21.124  0.00  0.00    +0.000 A 
ATOM     12  C   UNL     1       0.604  10.001  19.818  0.00  0.00    +0.000 A 
ENDROOT
BRANCH  12  13
ATOM     13  C   UNL     1       1.480   8.996  19.162  0.00  0.00    +0.000 C 
ATOM     14  O   UNL     1       1.779   9.134  17.980  0.00  0.00    +0.000 OA
ATOM     15  N   UNL     1       1.930   7.945  19.927  0.00  0.00    +0.000 N 
ATOM     16  H   UNL     1       1.688   7.934  20.915  0.00  0.00    +0.000 HD
BRANCH  15  17
ATOM     17  C   UNL     1       2.842   6.937  19.434  0.00  0.00    +0.000 C 
BRANCH  17  18
ATOM     18  C   UNL     1       2.155   5.609  19.240  0.00  0.00    +0.000 A 
ATOM     19  C   UNL     1       2.116   5.009  17.970  0.00  0.00    +0.000 A 
ATOM     20  C   UNL     1       1.523   3.756  17.797  0.00  0.00    +0.000 A 
ATOM     21  C   UNL     1       0.954   3.109  18.886  0.00  0.00    +0.000 A 
ATOM     22  F   UNL     1       0.400   1.898  18.722  0.00  0.00    +0.000 F 
ATOM     23  C   UNL     1       0.959   3.692  20.147  0.00  0.00    +0.000 A 
ATOM     24  C   UNL     1       1.556   4.944  20.324  0.00  0.00    +0.000 A 
ENDBRANCH  17  18
ENDBRANCH  15  17
ENDBRANCH  12  13
BRANCH   1  25
ATOM     25  N   UNL     1      -0.863  10.419  17.908  0.00  0.00    +0.000 N 
ATOM     26  H   UNL     1       0.022  10.398  17.393  0.00  0.00    +0.000 HD
BRANCH  25  27
ATOM     27  C   UNL     1      -1.708  11.491  17.374  0.00  0.00    +0.000 C 
BRANCH  27  31
ATOM     28  C   UNL     1      -5.833  10.620  18.392  0.00  0.00    +0.000 A 
ATOM     29  C   UNL     1      -4.949   9.595  18.023  0.00  0.00    +0.000 A 
ATOM     30  C   UNL     1      -3.624   9.868  17.680  0.00  0.00    +0.000 A 
ATOM     31  C   UNL     1      -3.147  11.181  17.710  0.00  0.00    +0.000 A 
ATOM     32  C   UNL     1      -4.028  12.208  18.077  0.00  0.00    +0.000 A 
ATOM     33  C   UNL     1      -5.357  11.936  18.431  0.00  0.00    +0.000 A 
ATOM     34 CL   UNL     1      -6.278  13.295  18.970  0.00  0.00    +0.000 Cl
BRANCH  28  36
ATOM     35  C   UNL     1      -7.202   9.580  20.044  0.00  0.00    +0.000 C 
ATOM     36  O   UNL     1      -7.070  10.153  18.750  0.00  0.00    +0.000 OA
ENDBRANCH  28  36
ENDBRANCH  27  31
ENDBRANCH  25  27
ENDBRANCH   1  25
TORSDOF 7
ENDMDL
