MODEL 1
REMARK VINA RESULT:      -7.6      0.000      0.000
REMARK  Name = 
REMARK  16 active torsions:
REMARK  status: ('A' for Active; 'I' for Inactive)
REMARK    1  A    between atoms: C_1  and  O_2
REMARK    2  A    between atoms: O_2  and  C_3
REMARK    3  A    between atoms: C_5  and  C_6
REMARK    4  A    between atoms: N_8  and  C_9
REMARK    5  A    between atoms: C_9  and  C_10
REMARK    6  A    between atoms: C_9  and  C_24
REMARK    7  A    between atoms: C_10  and  O_12
REMARK    8  A    between atoms: O_12  and  C_13
REMARK    9  A    between atoms: C_13  and  C_14
REMARK   10  A    between atoms: N_16  and  C_17
REMARK   11  A    between atoms: C_24  and  C_25
REMARK   12  A    between atoms: C_24  and  C_26
REMARK   13  A    between atoms: C_28  and  O_29
REMARK   14  A    between atoms: O_29  and  C_30
REMARK   15  A    between atoms: C_31  and  O_32
REMARK   16  A    between atoms: O_32  and  C_33
REMARK                            x       y       z     vdW  Elec       q    Type
REMARK                         _______ _______ _______ _____ _____    ______ ____
ROOT
ATOM      1  C   UNL     1       2.142   4.839  19.206  0.00  0.00    +0.000 C 
ENDROOT
BRANCH   1   4
ATOM      2  C   UNL     1       3.638   3.996  17.216  0.00  0.00    +0.000 C 
ATOM      3  O   UNL     1       2.795   3.308  16.725  0.00  0.00    +0.000 OA
ATOM      4  N   UNL     1       3.400   4.722  18.395  0.00  0.00    +0.000 N 
ATOM      5  H   UNL     1       4.123   5.370  18.647  0.00  0.00    +0.000 HD
BRANCH   2   8
ATOM      6  C   UNL     1       6.187   3.975  14.371  0.00  0.00    +0.000 A 
ATOM      7  C   UNL     1       5.136   3.589  15.239  0.00  0.00    +0.000 A 
ATOM      8  C   UNL     1       4.975   4.161  16.507  0.00  0.00    +0.000 A 
ATOM      9  C   UNL     1       6.018   4.950  16.974  0.00  0.00    +0.000 A 
ATOM     10  C   UNL     1       7.011   5.438  16.108  0.00  0.00    +0.000 A 
ATOM     11  C   UNL     1       7.108   4.956  14.786  0.00  0.00    +0.000 A 
BRANCH   6  13
ATOM     12  C   UNL     1       4.899   3.503  12.449  0.00  0.00    +0.000 C 
ATOM     13  O   UNL     1       6.180   3.466  13.091  0.00  0.00    +0.000 OA
ENDBRANCH   6  13
BRANCH  10  14
ATOM     14  O   UNL     1       7.692   6.470  16.711  0.00  0.00    +0.000 OA
ATOM     15  C   UNL     1       7.000   7.398  17.526  0.00  0.00    +0.000 C 
ENDBRANCH  10  14
BRANCH  11  16
ATOM     16  O   UNL     1       8.037   5.595  14.017  0.00  0.00    +0.000 OA
ATOM     17  C   UNL     1       8.068   5.435  12.618  0.00  0.00    +0.000 C 
ENDBRANCH  11  16
ENDBRANCH   2   8
ENDBRANCH   1   4
BRANCH   1  18
ATOM     18  C   UNL     1       1.873   3.673  20.200  0.00  0.00    +0.000 C 
ATOM     19  C   UNL     1       0.850   2.684  19.650  0.00  0.00    +0.000 C 
ATOM     20  C   UNL     1       3.169   2.895  20.513  0.00  0.00    +0.000 C 
ENDBRANCH   1  18
BRANCH   1  21
ATOM     21  C   UNL     1       2.118   6.253  19.866  0.00  0.00    +0.000 C 
ATOM     22  O   UNL     1       1.544   6.516  20.919  0.00  0.00    +0.000 OA
BRANCH  21  23
ATOM     23  O   UNL     1       2.684   7.201  19.095  0.00  0.00    +0.000 OA
BRANCH  23  24
ATOM     24  C   UNL     1       1.887   7.789  18.078  0.00  0.00    +0.000 C 
BRANCH  24  25
ATOM     25  C   UNL     1       1.809   9.302  18.270  0.00  0.00    +0.000 C 
ATOM     26  O   UNL     1       2.463  10.081  17.599  0.00  0.00    +0.000 OA
ATOM     27  N   UNL     1       0.926   9.692  19.258  0.00  0.00    +0.000 N 
ATOM     28  H   UNL     1       0.403   8.996  19.770  0.00  0.00    +0.000 HD
BRANCH  27  29
ATOM     29  C   UNL     1       0.720  11.110  19.585  0.00  0.00    +0.000 C 
ATOM     30  C   UNL     1      -0.360  11.725  18.681  0.00  0.00    +0.000 C 
ATOM     31  C   UNL     1      -1.790  11.334  19.053  0.00  0.00    +0.000 C 
ATOM     32  C   UNL     1      -2.435  12.289  20.057  0.00  0.00    +0.000 C 
ATOM     33  C   UNL     1      -1.832  12.281  21.457  0.00  0.00    +0.000 C 
ATOM     34  C   UNL     1      -0.321  12.504  21.524  0.00  0.00    +0.000 C 
ATOM     35  C   UNL     1       0.475  11.272  21.095  0.00  0.00    +0.000 C 
ENDBRANCH  27  29
ENDBRANCH  24  25
ENDBRANCH  23  24
ENDBRANCH  21  23
ENDBRANCH   1  21
TORSDOF 11
ENDMDL
MODEL 2
REMARK VINA RESULT:      -7.4      3.081      6.186
REMARK  Name = 
REMARK  16 active torsions:
REMARK  status: ('A' for Active; 'I' for Inactive)
REMARK    1  A    between atoms: C_1  and  O_2
REMARK    2  A    between atoms: O_2  and  C_3
REMARK    3  A    between atoms: C_5  and  C_6
REMARK    4  A    between atoms: N_8  and  C_9
REMARK    5  A    between atoms: C_9  and  C_10
REMARK    6  A    between atoms: C_9  and  C_24
REMARK    7  A    between atoms: C_10  and  O_12
REMARK    8  A    between atoms: O_12  and  C_13
REMARK    9  A    between atoms: C_13  and  C_14
REMARK   10  A    between atoms: N_16  and  C_17
REMARK   11  A    between atoms: C_24  and  C_25
REMARK   12  A    between atoms: C_24  and  C_26
REMARK   13  A    between atoms: C_28  and  O_29
REMARK   14  A    between atoms: O_29  and  C_30
REMARK   15  A    between atoms: C_31  and  O_32
REMARK   16  A    between atoms: O_32  and  C_33
REMARK                            x       y       z     vdW  Elec       q    Type
REMARK                         _______ _______ _______ _____ _____    ______ ____
ROOT
ATOM      1  C   UNL     1       0.541  11.010  19.390  0.00  0.00    +0.000 C 
ENDROOT
BRANCH   1   4
ATOM      2  C   UNL     1       1.934   9.131  18.189  0.00  0.00    +0.000 C 
ATOM      3  O   UNL     1       2.271   9.812  17.268  0.00  0.00    +0.000 OA
ATOM      4  N   UNL     1       1.103   9.630  19.207  0.00  0.00    +0.000 N 
ATOM      5  H   UNL     1       0.991   9.023  19.998  0.00  0.00    +0.000 HD
BRANCH   2   8
ATOM      6  C   UNL     1       4.376   6.215  17.840  0.00  0.00    +0.000 A 
ATOM      7  C   UNL     1       3.596   7.359  17.544  0.00  0.00    +0.000 A 
ATOM      8  C   UNL     1       2.483   7.717  18.315  0.00  0.00    +0.000 A 
ATOM      9  C   UNL     1       2.036   6.781  19.237  0.00  0.00    +0.000 A 
ATOM     10  C   UNL     1       2.840   5.698  19.631  0.00  0.00    +0.000 A 
ATOM     11  C   UNL     1       4.029   5.400  18.935  0.00  0.00    +0.000 A 
BRANCH   6  13
ATOM     12  C   UNL     1       5.354   5.310  15.890  0.00  0.00    +0.000 C 
ATOM     13  O   UNL     1       5.534   6.025  17.118  0.00  0.00    +0.000 OA
ENDBRANCH   6  13
BRANCH  10  14
ATOM     14  O   UNL     1       2.350   5.148  20.793  0.00  0.00    +0.000 OA
ATOM     15  C   UNL     1       1.348   4.149  20.739  0.00  0.00    +0.000 C 
ENDBRANCH  10  14
BRANCH  11  16
ATOM     16  O   UNL     1       4.776   4.401  19.489  0.00  0.00    +0.000 OA
ATOM     17  C   UNL     1       4.519   3.046  19.202  0.00  0.00    +0.000 C 
ENDBRANCH  11  16
ENDBRANCH   2   8
ENDBRANCH   1   4
BRANCH   1  18
ATOM     18  C   UNL     1      -0.752  11.322  18.585  0.00  0.00    +0.000 C 
ATOM     19  C   UNL     1      -1.622  10.080  18.406  0.00  0.00    +0.000 C 
ATOM     20  C   UNL     1      -1.602  12.402  19.288  0.00  0.00    +0.000 C 
ENDBRANCH   1  18
BRANCH   1  21
ATOM     21  C   UNL     1       0.418  11.286  20.921  0.00  0.00    +0.000 C 
ATOM     22  O   UNL     1       1.225  11.941  21.574  0.00  0.00    +0.000 OA
BRANCH  21  23
ATOM     23  O   UNL     1      -0.603  10.619  21.493  0.00  0.00    +0.000 OA
BRANCH  23  24
ATOM     24  C   UNL     1      -0.841  10.835  22.877  0.00  0.00    +0.000 C 
BRANCH  24  25
ATOM     25  C   UNL     1      -1.680  12.095  23.083  0.00  0.00    +0.000 C 
ATOM     26  O   UNL     1      -1.207  13.132  23.511  0.00  0.00    +0.000 OA
ATOM     27  N   UNL     1      -3.005  11.943  22.726  0.00  0.00    +0.000 N 
ATOM     28  H   UNL     1      -3.332  11.059  22.363  0.00  0.00    +0.000 HD
BRANCH  27  29
ATOM     29  C   UNL     1      -3.965  13.049  22.856  0.00  0.00    +0.000 C 
ATOM     30  C   UNL     1      -4.643  13.342  21.509  0.00  0.00    +0.000 C 
ATOM     31  C   UNL     1      -5.719  12.331  21.112  0.00  0.00    +0.000 C 
ATOM     32  C   UNL     1      -7.112  12.705  21.616  0.00  0.00    +0.000 C 
ATOM     33  C   UNL     1      -7.305  12.652  23.127  0.00  0.00    +0.000 C 
ATOM     34  C   UNL     1      -6.295  13.454  23.947  0.00  0.00    +0.000 C 
ATOM     35  C   UNL     1      -4.928  12.777  24.024  0.00  0.00    +0.000 C 
ENDBRANCH  27  29
ENDBRANCH  24  25
ENDBRANCH  23  24
ENDBRANCH  21  23
ENDBRANCH   1  21
TORSDOF 11
ENDMDL
MODEL 3
REMARK VINA RESULT:      -7.3      2.661      6.036
REMARK  Name = 
REMARK  16 active torsions:
REMARK  status: ('A' for Active; 'I' for Inactive)
REMARK    1  A    between atoms: C_1  and  O_2
REMARK    2  A    between atoms: O_2  and  C_3
REMARK    3  A    between atoms: C_5  and  C_6
REMARK    4  A    between atoms: N_8  and  C_9
REMARK    5  A    between atoms: C_9  and  C_10
REMARK    6  A    between atoms: C_9  and  C_24
REMARK    7  A    between atoms: C_10  and  O_12
REMARK    8  A    between atoms: O_12  and  C_13
REMARK    9  A    between atoms: C_13  and  C_14
REMARK   10  A    between atoms: N_16  and  C_17
REMARK   11  A    between atoms: C_24  and  C_25
REMARK   12  A    between atoms: C_24  and  C_26
REMARK   13  A    between atoms: C_28  and  O_29
REMARK   14  A    between atoms: O_29  and  C_30
REMARK   15  A    between atoms: C_31  and  O_32
REMARK   16  A    between atoms: O_32  and  C_33
REMARK                            x       y       z     vdW  Elec       q    Type
REMARK                         _______ _______ _______ _____ _____    ______ ____
ROOT
ATOM      1  C   UNL     1       0.514  10.788  19.162  0.00  0.00    +0.000 C 
ENDROOT
BRANCH   1   4
ATOM      2  C   UNL     1       1.985   8.832  18.202  0.00  0.00    +0.000 C 
ATOM      3  O   UNL     1       2.297   9.406  17.203  0.00  0.00    +0.000 OA
ATOM      4  N   UNL     1       1.131   9.420  19.151  0.00  0.00    +0.000 N 
ATOM      5  H   UNL     1       1.041   8.913  20.012  0.00  0.00    +0.000 HD
BRANCH   2   8
ATOM      6  C   UNL     1       2.229   5.259  19.528  0.00  0.00    +0.000 A 
ATOM      7  C   UNL     1       1.956   6.646  19.441  0.00  0.00    +0.000 A 
ATOM      8  C   UNL     1       2.590   7.468  18.502  0.00  0.00    +0.000 A 
ATOM      9  C   UNL     1       3.665   6.919  17.816  0.00  0.00    +0.000 A 
ATOM     10  C   UNL     1       3.890   5.532  17.797  0.00  0.00    +0.000 A 
ATOM     11  C   UNL     1       3.169   4.678  18.655  0.00  0.00    +0.000 A 
BRANCH   6  13
ATOM     12  C   UNL     1       2.154   3.987  21.517  0.00  0.00    +0.000 C 
ATOM     13  O   UNL     1       1.451   4.505  20.381  0.00  0.00    +0.000 OA
ENDBRANCH   6  13
BRANCH  10  14
ATOM     14  O   UNL     1       4.756   5.212  16.776  0.00  0.00    +0.000 OA
ATOM     15  C   UNL     1       6.154   5.345  16.963  0.00  0.00    +0.000 C 
ENDBRANCH  10  14
BRANCH  11  16
ATOM     16  O   UNL     1       3.396   3.347  18.453  0.00  0.00    +0.000 OA
ATOM     17  C   UNL     1       4.371   2.648  19.191  0.00  0.00    +0.000 C 
ENDBRANCH  11  16
ENDBRANCH   2   8
ENDBRANCH   1   4
BRANCH   1  18
ATOM     18  C   UNL     1      -1.017  10.837  18.893  0.00  0.00    +0.000 C 
ATOM     19  C   UNL     1      -1.509  12.263  18.663  0.00  0.00    +0.000 C 
ATOM     20  C   UNL     1      -1.394   9.997  17.654  0.00  0.00    +0.000 C 
ENDBRANCH   1  18
BRANCH   1  21
ATOM     21  C   UNL     1       0.950  11.509  20.476  0.00  0.00    +0.000 C 
ATOM     22  O   UNL     1       1.357  12.666  20.529  0.00  0.00    +0.000 OA
BRANCH  21  23
ATOM     23  O   UNL     1       0.961  10.689  21.544  0.00  0.00    +0.000 OA
BRANCH  23  24
ATOM     24  C   UNL     1      -0.278  10.419  22.184  0.00  0.00    +0.000 C 
BRANCH  24  25
ATOM     25  C   UNL     1      -0.957  11.722  22.601  0.00  0.00    +0.000 C 
ATOM     26  O   UNL     1      -0.390  12.572  23.264  0.00  0.00    +0.000 OA
ATOM     27  N   UNL     1      -2.254  11.842  22.144  0.00  0.00    +0.000 N 
ATOM     28  H   UNL     1      -2.663  11.106  21.585  0.00  0.00    +0.000 HD
BRANCH  27  29
ATOM     29  C   UNL     1      -3.066  13.030  22.448  0.00  0.00    +0.000 C 
ATOM     30  C   UNL     1      -3.915  13.433  21.232  0.00  0.00    +0.000 C 
ATOM     31  C   UNL     1      -5.136  12.544  20.993  0.00  0.00    +0.000 C 
ATOM     32  C   UNL     1      -6.388  13.031  21.721  0.00  0.00    +0.000 C 
ATOM     33  C   UNL     1      -6.345  12.943  23.242  0.00  0.00    +0.000 C 
ATOM     34  C   UNL     1      -5.144  13.616  23.905  0.00  0.00    +0.000 C 
ATOM     35  C   UNL     1      -3.856  12.809  23.749  0.00  0.00    +0.000 C 
ENDBRANCH  27  29
ENDBRANCH  24  25
ENDBRANCH  23  24
ENDBRANCH  21  23
ENDBRANCH   1  21
TORSDOF 11
ENDMDL
MODEL 4
REMARK VINA RESULT:      -7.3      3.995      6.822
REMARK  Name = 
REMARK  16 active torsions:
REMARK  status: ('A' for Active; 'I' for Inactive)
REMARK    1  A    between atoms: C_1  and  O_2
REMARK    2  A    between atoms: O_2  and  C_3
REMARK    3  A    between atoms: C_5  and  C_6
REMARK    4  A    between atoms: N_8  and  C_9
REMARK    5  A    between atoms: C_9  and  C_10
REMARK    6  A    between atoms: C_9  and  C_24
REMARK    7  A    between atoms: C_10  and  O_12
REMARK    8  A    between atoms: O_12  and  C_13
REMARK    9  A    between atoms: C_13  and  C_14
REMARK   10  A    between atoms: N_16  and  C_17
REMARK   11  A    between atoms: C_24  and  C_25
REMARK   12  A    between atoms: C_24  and  C_26
REMARK   13  A    between atoms: C_28  and  O_29
REMARK   14  A    between atoms: O_29  and  C_30
REMARK   15  A    between atoms: C_31  and  O_32
REMARK   16  A    between atoms: O_32  and  C_33
REMARK                            x       y       z     vdW  Elec       q    Type
REMARK                         _______ _______ _______ _____ _____    ______ ____
ROOT
ATOM      1  C   UNL     1       0.486  10.781  19.269  0.00  0.00    +0.000 C 
ENDROOT
BRANCH   1   4
ATOM      2  C   UNL     1       1.989   8.881  18.247  0.00  0.00    +0.000 C 
ATOM      3  O   UNL     1       2.166   9.429  17.200  0.00  0.00    +0.000 OA
ATOM      4  N   UNL     1       1.190   9.456  19.251  0.00  0.00    +0.000 N 
ATOM      5  H   UNL     1       1.217   8.983  20.135  0.00  0.00    +0.000 HD
BRANCH   2   8
ATOM      6  C   UNL     1       2.656   5.450  19.785  0.00  0.00    +0.000 A 
ATOM      7  C   UNL     1       2.298   6.813  19.640  0.00  0.00    +0.000 A 
ATOM      8  C   UNL     1       2.710   7.573  18.538  0.00  0.00    +0.000 A 
ATOM      9  C   UNL     1       3.673   7.008  17.714  0.00  0.00    +0.000 A 
ATOM     10  C   UNL     1       3.965   5.635  17.764  0.00  0.00    +0.000 A 
ATOM     11  C   UNL     1       3.455   4.832  18.805  0.00  0.00    +0.000 A 
BRANCH   6  13
ATOM     12  C   UNL     1       0.912   4.006  20.459  0.00  0.00    +0.000 C 
ATOM     13  O   UNL     1       2.085   4.745  20.822  0.00  0.00    +0.000 OA
ENDBRANCH   6  13
BRANCH  10  14
ATOM     14  O   UNL     1       4.652   5.260  16.632  0.00  0.00    +0.000 OA
ATOM     15  C   UNL     1       5.233   6.244  15.795  0.00  0.00    +0.000 C 
ENDBRANCH  10  14
BRANCH  11  16
ATOM     16  O   UNL     1       3.714   3.498  18.671  0.00  0.00    +0.000 OA
ATOM     17  C   UNL     1       4.519   2.809  19.599  0.00  0.00    +0.000 C 
ENDBRANCH  11  16
ENDBRANCH   2   8
ENDBRANCH   1   4
BRANCH   1  18
ATOM     18  C   UNL     1      -1.066  10.719  19.189  0.00  0.00    +0.000 C 
ATOM     19  C   UNL     1      -1.702  12.086  19.425  0.00  0.00    +0.000 C 
ATOM     20  C   UNL     1      -1.534  10.206  17.811  0.00  0.00    +0.000 C 
ENDBRANCH   1  18
BRANCH   1  21
ATOM     21  C   UNL     1       1.027  11.603  20.480  0.00  0.00    +0.000 C 
ATOM     22  O   UNL     1       0.822  11.319  21.657  0.00  0.00    +0.000 OA
BRANCH  21  23
ATOM     23  O   UNL     1       1.638  12.744  20.109  0.00  0.00    +0.000 OA
BRANCH  23  24
ATOM     24  C   UNL     1       1.880  12.944  18.724  0.00  0.00    +0.000 C 
BRANCH  24  25
ATOM     25  C   UNL     1       2.669  14.232  18.501  0.00  0.00    +0.000 C 
ATOM     26  O   UNL     1       2.127  15.306  18.309  0.00  0.00    +0.000 OA
ATOM     27  N   UNL     1       4.038  14.061  18.552  0.00  0.00    +0.000 N 
ATOM     28  H   UNL     1       4.425  13.144  18.730  0.00  0.00    +0.000 HD
BRANCH  27  29
ATOM     29  C   UNL     1       4.960  15.190  18.360  0.00  0.00    +0.000 C 
ATOM     30  C   UNL     1       5.090  16.011  19.652  0.00  0.00    +0.000 C 
ATOM     31  C   UNL     1       5.962  15.361  20.726  0.00  0.00    +0.000 C 
ATOM     32  C   UNL     1       7.437  15.748  20.622  0.00  0.00    +0.000 C 
ATOM     33  C   UNL     1       8.172  15.224  19.393  0.00  0.00    +0.000 C 
ATOM     34  C   UNL     1       7.521  15.549  18.049  0.00  0.00    +0.000 C 
ATOM     35  C   UNL     1       6.289  14.690  17.769  0.00  0.00    +0.000 C 
ENDBRANCH  27  29
ENDBRANCH  24  25
ENDBRANCH  23  24
ENDBRANCH  21  23
ENDBRANCH   1  21
TORSDOF 11
ENDMDL
MODEL 5
REMARK VINA RESULT:      -7.2      1.159      1.667
REMARK  Name = 
REMARK  16 active torsions:
REMARK  status: ('A' for Active; 'I' for Inactive)
REMARK    1  A    between atoms: C_1  and  O_2
REMARK    2  A    between atoms: O_2  and  C_3
REMARK    3  A    between atoms: C_5  and  C_6
REMARK    4  A    between atoms: N_8  and  C_9
REMARK    5  A    between atoms: C_9  and  C_10
REMARK    6  A    between atoms: C_9  and  C_24
REMARK    7  A    between atoms: C_10  and  O_12
REMARK    8  A    between atoms: O_12  and  C_13
REMARK    9  A    between atoms: C_13  and  C_14
REMARK   10  A    between atoms: N_16  and  C_17
REMARK   11  A    between atoms: C_24  and  C_25
REMARK   12  A    between atoms: C_24  and  C_26
REMARK   13  A    between atoms: C_28  and  O_29
REMARK   14  A    between atoms: O_29  and  C_30
REMARK   15  A    between atoms: C_31  and  O_32
REMARK   16  A    between atoms: O_32  and  C_33
REMARK                            x       y       z     vdW  Elec       q    Type
REMARK                         _______ _______ _______ _____ _____    ______ ____
ROOT
ATOM      1  C   UNL     1       2.314   5.082  19.339  0.00  0.00    +0.000 C 
ENDROOT
BRANCH   1   4
ATOM      2  C   UNL     1       3.722   4.186  17.307  0.00  0.00    +0.000 C 
ATOM      3  O   UNL     1       2.834   3.549  16.828  0.00  0.00    +0.000 OA
ATOM      4  N   UNL     1       3.547   4.910  18.499  0.00  0.00    +0.000 N 
ATOM      5  H   UNL     1       4.307   5.517  18.743  0.00  0.00    +0.000 HD
BRANCH   2   8
ATOM      6  C   UNL     1       6.229   3.962  14.435  0.00  0.00    +0.000 A 
ATOM      7  C   UNL     1       5.186   3.642  15.338  0.00  0.00    +0.000 A 
ATOM      8  C   UNL     1       5.050   4.291  16.572  0.00  0.00    +0.000 A 
ATOM      9  C   UNL     1       6.109   5.092  16.976  0.00  0.00    +0.000 A 
ATOM     10  C   UNL     1       7.096   5.514  16.069  0.00  0.00    +0.000 A 
ATOM     11  C   UNL     1       7.168   4.953  14.777  0.00  0.00    +0.000 A 
BRANCH   6  13
ATOM     12  C   UNL     1       4.941   3.505  12.508  0.00  0.00    +0.000 C 
ATOM     13  O   UNL     1       6.196   3.377  13.187  0.00  0.00    +0.000 OA
ENDBRANCH   6  13
BRANCH  10  14
ATOM     14  O   UNL     1       7.799   6.571  16.599  0.00  0.00    +0.000 OA
ATOM     15  C   UNL     1       7.170   7.461  17.503  0.00  0.00    +0.000 C 
ENDBRANCH  10  14
BRANCH  11  16
ATOM     16  O   UNL     1       8.093   5.533  13.958  0.00  0.00    +0.000 OA
ATOM     17  C   UNL     1       7.942   5.526  12.558  0.00  0.00    +0.000 C 
ENDBRANCH  11  16
ENDBRANCH   2   8
ENDBRANCH   1   4
BRANCH   1  18
ATOM     18  C   UNL     1       2.180   4.106  20.543  0.00  0.00    +0.000 C 
ATOM     19  C   UNL     1       0.848   3.361  20.523  0.00  0.00    +0.000 C 
ATOM     20  C   UNL     1       3.313   3.058  20.542  0.00  0.00    +0.000 C 
ENDBRANCH   1  18
BRANCH   1  21
ATOM     21  C   UNL     1       2.196   6.589  19.728  0.00  0.00    +0.000 C 
ATOM     22  O   UNL     1       2.617   7.516  19.042  0.00  0.00    +0.000 OA
BRANCH  21  23
ATOM     23  O   UNL     1       1.699   6.773  20.966  0.00  0.00    +0.000 OA
BRANCH  23  24
ATOM     24  C   UNL     1       0.478   7.489  21.088  0.00  0.00    +0.000 C 
BRANCH  24  25
ATOM     25  C   UNL     1       0.736   8.896  21.623  0.00  0.00    +0.000 C 
ATOM     26  O   UNL     1       1.758   9.193  22.215  0.00  0.00    +0.000 OA
ATOM     27  N   UNL     1      -0.286   9.786  21.359  0.00  0.00    +0.000 N 
ATOM     28  H   UNL     1      -1.103   9.479  20.850  0.00  0.00    +0.000 HD
BRANCH  27  29
ATOM     29  C   UNL     1      -0.214  11.187  21.798  0.00  0.00    +0.000 C 
ATOM     30  C   UNL     1      -0.370  12.140  20.603  0.00  0.00    +0.000 C 
ATOM     31  C   UNL     1      -1.803  12.277  20.089  0.00  0.00    +0.000 C 
ATOM     32  C   UNL     1      -2.584  13.399  20.772  0.00  0.00    +0.000 C 
ATOM     33  C   UNL     1      -2.898  13.182  22.248  0.00  0.00    +0.000 C 
ATOM     34  C   UNL     1      -1.696  12.861  23.135  0.00  0.00    +0.000 C 
ATOM     35  C   UNL     1      -1.198  11.427  22.955  0.00  0.00    +0.000 C 
ENDBRANCH  27  29
ENDBRANCH  24  25
ENDBRANCH  23  24
ENDBRANCH  21  23
ENDBRANCH   1  21
TORSDOF 11
ENDMDL
MODEL 6
REMARK VINA RESULT:      -7.2      2.866      6.253
REMARK  Name = 
REMARK  16 active torsions:
REMARK  status: ('A' for Active; 'I' for Inactive)
REMARK    1  A    between atoms: C_1  and  O_2
REMARK    2  A    between atoms: O_2  and  C_3
REMARK    3  A    between atoms: C_5  and  C_6
REMARK    4  A    between atoms: N_8  and  C_9
REMARK    5  A    between atoms: C_9  and  C_10
REMARK    6  A    between atoms: C_9  and  C_24
REMARK    7  A    between atoms: C_10  and  O_12
REMARK    8  A    between atoms: O_12  and  C_13
REMARK    9  A    between atoms: C_13  and  C_14
REMARK   10  A    between atoms: N_16  and  C_17
REMARK   11  A    between atoms: C_24  and  C_25
REMARK   12  A    between atoms: C_24  and  C_26
REMARK   13  A    between atoms: C_28  and  O_29
REMARK   14  A    between atoms: O_29  and  C_30
REMARK   15  A    between atoms: C_31  and  O_32
REMARK   16  A    between atoms: O_32  and  C_33
REMARK                            x       y       z     vdW  Elec       q    Type
REMARK                         _______ _______ _______ _____ _____    ______ ____
ROOT
ATOM      1  C   UNL     1       0.417  10.640  18.835  0.00  0.00    +0.000 C 
ENDROOT
BRANCH   1   4
ATOM      2  C   UNL     1       2.071   8.728  18.114  0.00  0.00    +0.000 C 
ATOM      3  O   UNL     1       2.307   9.183  17.036  0.00  0.00    +0.000 OA
ATOM      4  N   UNL     1       1.174   9.354  18.996  0.00  0.00    +0.000 N 
ATOM      5  H   UNL     1       1.151   8.967  19.922  0.00  0.00    +0.000 HD
BRANCH   2   8
ATOM      6  C   UNL     1       2.704   5.416  19.909  0.00  0.00    +0.000 A 
ATOM      7  C   UNL     1       2.285   6.742  19.640  0.00  0.00    +0.000 A 
ATOM      8  C   UNL     1       2.820   7.488  18.583  0.00  0.00    +0.000 A 
ATOM      9  C   UNL     1       3.941   6.965  17.954  0.00  0.00    +0.000 A 
ATOM     10  C   UNL     1       4.312   5.620  18.119  0.00  0.00    +0.000 A 
ATOM     11  C   UNL     1       3.693   4.822  19.102  0.00  0.00    +0.000 A 
BRANCH   6  13
ATOM     12  C   UNL     1       0.865   4.013  20.388  0.00  0.00    +0.000 C 
ATOM     13  O   UNL     1       2.018   4.711  20.874  0.00  0.00    +0.000 OA
ENDBRANCH   6  13
BRANCH  10  14
ATOM     14  O   UNL     1       5.199   5.254  17.132  0.00  0.00    +0.000 OA
ATOM     15  C   UNL     1       5.171   5.904  15.874  0.00  0.00    +0.000 C 
ENDBRANCH  10  14
BRANCH  11  16
ATOM     16  O   UNL     1       4.059   3.507  19.078  0.00  0.00    +0.000 OA
ATOM     17  C   UNL     1       3.460   2.593  18.190  0.00  0.00    +0.000 C 
ENDBRANCH  11  16
ENDBRANCH   2   8
ENDBRANCH   1   4
BRANCH   1  18
ATOM     18  C   UNL     1      -1.130  10.503  18.750  0.00  0.00    +0.000 C 
ATOM     19  C   UNL     1      -1.827  11.855  18.869  0.00  0.00    +0.000 C 
ATOM     20  C   UNL     1      -1.562   9.859  17.415  0.00  0.00    +0.000 C 
ENDBRANCH   1  18
BRANCH   1  21
ATOM     21  C   UNL     1       0.906  11.635  19.933  0.00  0.00    +0.000 C 
ATOM     22  O   UNL     1       1.704  12.547  19.736  0.00  0.00    +0.000 OA
BRANCH  21  23
ATOM     23  O   UNL     1       0.467  11.313  21.165  0.00  0.00    +0.000 OA
BRANCH  23  24
ATOM     24  C   UNL     1      -0.040  12.360  21.980  0.00  0.00    +0.000 C 
BRANCH  24  25
ATOM     25  C   UNL     1      -1.350  11.934  22.640  0.00  0.00    +0.000 C 
ATOM     26  O   UNL     1      -1.466  10.885  23.247  0.00  0.00    +0.000 OA
ATOM     27  N   UNL     1      -2.370  12.853  22.491  0.00  0.00    +0.000 N 
ATOM     28  H   UNL     1      -2.205  13.713  21.987  0.00  0.00    +0.000 HD
BRANCH  27  29
ATOM     29  C   UNL     1      -3.705  12.615  23.060  0.00  0.00    +0.000 C 
ATOM     30  C   UNL     1      -3.929  13.487  24.304  0.00  0.00    +0.000 C 
ATOM     31  C   UNL     1      -4.219  14.956  24.001  0.00  0.00    +0.000 C 
ATOM     32  C   UNL     1      -5.707  15.254  23.825  0.00  0.00    +0.000 C 
ATOM     33  C   UNL     1      -6.364  14.640  22.594  0.00  0.00    +0.000 C 
ATOM     34  C   UNL     1      -6.180  13.131  22.435  0.00  0.00    +0.000 C 
ATOM     35  C   UNL     1      -4.776  12.754  21.965  0.00  0.00    +0.000 C 
ENDBRANCH  27  29
ENDBRANCH  24  25
ENDBRANCH  23  24
ENDBRANCH  21  23
ENDBRANCH   1  21
TORSDOF 11
ENDMDL
MODEL 7
REMARK VINA RESULT:      -7.2      3.260      6.377
REMARK  Name = 
REMARK  16 active torsions:
REMARK  status: ('A' for Active; 'I' for Inactive)
REMARK    1  A    between atoms: C_1  and  O_2
REMARK    2  A    between atoms: O_2  and  C_3
REMARK    3  A    between atoms: C_5  and  C_6
REMARK    4  A    between atoms: N_8  and  C_9
REMARK    5  A    between atoms: C_9  and  C_10
REMARK    6  A    between atoms: C_9  and  C_24
REMARK    7  A    between atoms: C_10  and  O_12
REMARK    8  A    between atoms: O_12  and  C_13
REMARK    9  A    between atoms: C_13  and  C_14
REMARK   10  A    between atoms: N_16  and  C_17
REMARK   11  A    between atoms: C_24  and  C_25
REMARK   12  A    between atoms: C_24  and  C_26
REMARK   13  A    between atoms: C_28  and  O_29
REMARK   14  A    between atoms: O_29  and  C_30
REMARK   15  A    between atoms: C_31  and  O_32
REMARK   16  A    between atoms: O_32  and  C_33
REMARK                            x       y       z     vdW  Elec       q    Type
REMARK                         _______ _______ _______ _____ _____    ______ ____
ROOT
ATOM      1  C   UNL     1       0.446  10.592  19.745  0.00  0.00    +0.000 C 
ENDROOT
BRANCH   1   4
ATOM      2  C   UNL     1       2.009   8.886  18.497  0.00  0.00    +0.000 C 
ATOM      3  O   UNL     1       2.346   9.648  17.641  0.00  0.00    +0.000 OA
ATOM      4  N   UNL     1       1.101   9.263  19.500  0.00  0.00    +0.000 N 
ATOM      5  H   UNL     1       0.990   8.598  20.244  0.00  0.00    +0.000 HD
BRANCH   2   8
ATOM      6  C   UNL     1       2.370   5.171  19.305  0.00  0.00    +0.000 A 
ATOM      7  C   UNL     1       2.090   6.554  19.429  0.00  0.00    +0.000 A 
ATOM      8  C   UNL     1       2.638   7.502  18.556  0.00  0.00    +0.000 A 
ATOM      9  C   UNL     1       3.649   7.062  17.712  0.00  0.00    +0.000 A 
ATOM     10  C   UNL     1       3.871   5.693  17.487  0.00  0.00    +0.000 A 
ATOM     11  C   UNL     1       3.229   4.723  18.283  0.00  0.00    +0.000 A 
BRANCH   6  13
ATOM     12  C   UNL     1       2.289   4.052  21.384  0.00  0.00    +0.000 C 
ATOM     13  O   UNL     1       1.672   4.301  20.115  0.00  0.00    +0.000 OA
ENDBRANCH   6  13
BRANCH  10  14
ATOM     14  O   UNL     1       4.643   5.523  16.361  0.00  0.00    +0.000 OA
ATOM     15  C   UNL     1       6.007   5.161  16.483  0.00  0.00    +0.000 C 
ENDBRANCH  10  14
BRANCH  11  16
ATOM     16  O   UNL     1       3.438   3.434  17.886  0.00  0.00    +0.000 OA
ATOM     17  C   UNL     1       2.365   2.577  17.578  0.00  0.00    +0.000 C 
ENDBRANCH  11  16
ENDBRANCH   2   8
ENDBRANCH   1   4
BRANCH   1  18
ATOM     18  C   UNL     1      -0.976  10.762  19.139  0.00  0.00    +0.000 C 
ATOM     19  C   UNL     1      -1.273  12.217  18.787  0.00  0.00    +0.000 C 
ATOM     20  C   UNL     1      -1.141   9.918  17.857  0.00  0.00    +0.000 C 
ENDBRANCH   1  18
BRANCH   1  21
ATOM     21  C   UNL     1       0.525  10.899  21.273  0.00  0.00    +0.000 C 
ATOM     22  O   UNL     1       1.169  10.236  22.081  0.00  0.00    +0.000 OA
BRANCH  21  23
ATOM     23  O   UNL     1      -0.296  11.898  21.650  0.00  0.00    +0.000 OA
BRANCH  23  24
ATOM     24  C   UNL     1      -1.183  11.653  22.732  0.00  0.00    +0.000 C 
BRANCH  24  25
ATOM     25  C   UNL     1      -2.268  12.726  22.785  0.00  0.00    +0.000 C 
ATOM     26  O   UNL     1      -2.031  13.906  22.598  0.00  0.00    +0.000 OA
ATOM     27  N   UNL     1      -3.529  12.228  23.048  0.00  0.00    +0.000 N 
ATOM     28  H   UNL     1      -3.661  11.235  23.180  0.00  0.00    +0.000 HD
BRANCH  27  29
ATOM     29  C   UNL     1      -4.699  13.113  23.138  0.00  0.00    +0.000 C 
ATOM     30  C   UNL     1      -5.301  13.360  21.746  0.00  0.00    +0.000 C 
ATOM     31  C   UNL     1      -6.112  12.189  21.192  0.00  0.00    +0.000 C 
ATOM     32  C   UNL     1      -7.591  12.246  21.572  0.00  0.00    +0.000 C 
ATOM     33  C   UNL     1      -7.901  12.051  23.051  0.00  0.00    +0.000 C 
ATOM     34  C   UNL     1      -7.151  12.976  24.008  0.00  0.00    +0.000 C 
ATOM     35  C   UNL     1      -5.687  12.575  24.188  0.00  0.00    +0.000 C 
ENDBRANCH  27  29
ENDBRANCH  24  25
ENDBRANCH  23  24
ENDBRANCH  21  23
ENDBRANCH   1  21
TORSDOF 11
ENDMDL
MODEL 8
REMARK VINA RESULT:      -7.2      2.725      5.945
REMARK  Name = 
REMARK  16 active torsions:
REMARK  status: ('A' for Active; 'I' for Inactive)
REMARK    1  A    between atoms: C_1  and  O_2
REMARK    2  A    between atoms: O_2  and  C_3
REMARK    3  A    between atoms: C_5  and  C_6
REMARK    4  A    between atoms: N_8  and  C_9
REMARK    5  A    between atoms: C_9  and  C_10
REMARK    6  A    between atoms: C_9  and  C_24
REMARK    7  A    between atoms: C_10  and  O_12
REMARK    8  A    between atoms: O_12  and  C_13
REMARK    9  A    between atoms: C_13  and  C_14
REMARK   10  A    between atoms: N_16  and  C_17
REMARK   11  A    between atoms: C_24  and  C_25
REMARK   12  A    between atoms: C_24  and  C_26
REMARK   13  A    between atoms: C_28  and  O_29
REMARK   14  A    between atoms: O_29  and  C_30
REMARK   15  A    between atoms: C_31  and  O_32
REMARK   16  A    between atoms: O_32  and  C_33
REMARK                            x       y       z     vdW  Elec       q    Type
REMARK                         _______ _______ _______ _____ _____    ______ ____
ROOT
ATOM      1  C   UNL     1      -0.054  10.718  18.555  0.00  0.00    +0.000 C 
ENDROOT
BRANCH   1   4
ATOM      2  C   UNL     1       1.984   9.177  17.933  0.00  0.00    +0.000 C 
ATOM      3  O   UNL     1       2.630  10.044  17.426  0.00  0.00    +0.000 OA
ATOM      4  N   UNL     1       0.705   9.426  18.461  0.00  0.00    +0.000 N 
ATOM      5  H   UNL     1       0.307   8.667  18.982  0.00  0.00    +0.000 HD
BRANCH   2   8
ATOM      6  C   UNL     1       4.547   6.358  17.668  0.00  0.00    +0.000 A 
ATOM      7  C   UNL     1       3.725   7.464  17.341  0.00  0.00    +0.000 A 
ATOM      8  C   UNL     1       2.587   7.789  18.090  0.00  0.00    +0.000 A 
ATOM      9  C   UNL     1       2.164   6.850  19.021  0.00  0.00    +0.000 A 
ATOM     10  C   UNL     1       3.005   5.807  19.444  0.00  0.00    +0.000 A 
ATOM     11  C   UNL     1       4.216   5.547  18.771  0.00  0.00    +0.000 A 
BRANCH   6  13
ATOM     12  C   UNL     1       6.823   6.961  17.487  0.00  0.00    +0.000 C 
ATOM     13  O   UNL     1       5.723   6.204  16.967  0.00  0.00    +0.000 OA
ENDBRANCH   6  13
BRANCH  10  14
ATOM     14  O   UNL     1       2.520   5.256  20.608  0.00  0.00    +0.000 OA
ATOM     15  C   UNL     1       1.302   4.533  20.597  0.00  0.00    +0.000 C 
ENDBRANCH  10  14
BRANCH  11  16
ATOM     16  O   UNL     1       4.993   4.588  19.353  0.00  0.00    +0.000 OA
ATOM     17  C   UNL     1       4.701   3.218  19.209  0.00  0.00    +0.000 C 
ENDBRANCH  11  16
ENDBRANCH   2   8
ENDBRANCH   1   4
BRANCH   1  18
ATOM     18  C   UNL     1      -1.603  10.591  18.508  0.00  0.00    +0.000 C 
ATOM     19  C   UNL     1      -2.286  11.955  18.564  0.00  0.00    +0.000 C 
ATOM     20  C   UNL     1      -2.067   9.878  17.220  0.00  0.00    +0.000 C 
ENDBRANCH   1  18
BRANCH   1  21
ATOM     21  C   UNL     1       0.481  11.508  19.789  0.00  0.00    +0.000 C 
ATOM     22  O   UNL     1       0.763  12.703  19.778  0.00  0.00    +0.000 OA
BRANCH  21  23
ATOM     23  O   UNL     1       0.731  10.717  20.850  0.00  0.00    +0.000 OA
BRANCH  23  24
ATOM     24  C   UNL     1      -0.359  10.382  21.697  0.00  0.00    +0.000 C 
BRANCH  24  25
ATOM     25  C   UNL     1      -0.959  11.642  22.317  0.00  0.00    +0.000 C 
ATOM     26  O   UNL     1      -0.287  12.453  22.928  0.00  0.00    +0.000 OA
ATOM     27  N   UNL     1      -2.317  11.772  22.107  0.00  0.00    +0.000 N 
ATOM     28  H   UNL     1      -2.815  11.069  21.579  0.00  0.00    +0.000 HD
BRANCH  27  29
ATOM     29  C   UNL     1      -3.067  12.923  22.632  0.00  0.00    +0.000 C 
ATOM     30  C   UNL     1      -3.939  13.549  21.533  0.00  0.00    +0.000 C 
ATOM     31  C   UNL     1      -5.204  12.757  21.203  0.00  0.00    +0.000 C 
ATOM     32  C   UNL     1      -6.409  13.163  22.050  0.00  0.00    +0.000 C 
ATOM     33  C   UNL     1      -6.317  12.826  23.535  0.00  0.00    +0.000 C 
ATOM     34  C   UNL     1      -5.067  13.338  24.248  0.00  0.00    +0.000 C 
ATOM     35  C   UNL     1      -3.820  12.521  23.911  0.00  0.00    +0.000 C 
ENDBRANCH  27  29
ENDBRANCH  24  25
ENDBRANCH  23  24
ENDBRANCH  21  23
ENDBRANCH   1  21
TORSDOF 11
ENDMDL
MODEL 9
REMARK VINA RESULT:      -7.2      3.095      6.453
REMARK  Name = 
REMARK  16 active torsions:
REMARK  status: ('A' for Active; 'I' for Inactive)
REMARK    1  A    between atoms: C_1  and  O_2
REMARK    2  A    between atoms: O_2  and  C_3
REMARK    3  A    between atoms: C_5  and  C_6
REMARK    4  A    between atoms: N_8  and  C_9
REMARK    5  A    between atoms: C_9  and  C_10
REMARK    6  A    between atoms: C_9  and  C_24
REMARK    7  A    between atoms: C_10  and  O_12
REMARK    8  A    between atoms: O_12  and  C_13
REMARK    9  A    between atoms: C_13  and  C_14
REMARK   10  A    between atoms: N_16  and  C_17
REMARK   11  A    between atoms: C_24  and  C_25
REMARK   12  A    between atoms: C_24  and  C_26
REMARK   13  A    between atoms: C_28  and  O_29
REMARK   14  A    between atoms: O_29  and  C_30
REMARK   15  A    between atoms: C_31  and  O_32
REMARK   16  A    between atoms: O_32  and  C_33
REMARK                            x       y       z     vdW  Elec       q    Type
REMARK                         _______ _______ _______ _____ _____    ______ ____
ROOT
ATOM      1  C   UNL     1       0.751  10.763  19.555  0.00  0.00    +0.000 C 
ENDROOT
BRANCH   1   4
ATOM      2  C   UNL     1       1.497   8.391  20.408  0.00  0.00    +0.000 C 
ATOM      3  O   UNL     1       1.114   8.548  21.528  0.00  0.00    +0.000 OA
ATOM      4  N   UNL     1       1.376   9.403  19.441  0.00  0.00    +0.000 N 
ATOM      5  H   UNL     1       1.602   9.123  18.504  0.00  0.00    +0.000 HD
BRANCH   2   8
ATOM      6  C   UNL     1       1.719   4.597  20.030  0.00  0.00    +0.000 A 
ATOM      7  C   UNL     1       1.527   5.884  20.588  0.00  0.00    +0.000 A 
ATOM      8  C   UNL     1       2.052   7.037  19.991  0.00  0.00    +0.000 A 
ATOM      9  C   UNL     1       2.963   6.846  18.961  0.00  0.00    +0.000 A 
ATOM     10  C   UNL     1       3.091   5.604  18.316  0.00  0.00    +0.000 A 
ATOM     11  C   UNL     1       2.465   4.457  18.843  0.00  0.00    +0.000 A 
BRANCH   6  13
ATOM     12  C   UNL     1       1.770   2.870  21.640  0.00  0.00    +0.000 C 
ATOM     13  O   UNL     1       1.044   3.542  20.604  0.00  0.00    +0.000 OA
ENDBRANCH   6  13
BRANCH  10  14
ATOM     14  O   UNL     1       3.757   5.762  17.122  0.00  0.00    +0.000 OA
ATOM     15  C   UNL     1       5.097   6.220  17.111  0.00  0.00    +0.000 C 
ENDBRANCH  10  14
BRANCH  11  16
ATOM     16  O   UNL     1       2.569   3.343  18.060  0.00  0.00    +0.000 OA
ATOM     17  C   UNL     1       3.590   2.395  18.263  0.00  0.00    +0.000 C 
ENDBRANCH  11  16
ENDBRANCH   2   8
ENDBRANCH   1   4
BRANCH   1  18
ATOM     18  C   UNL     1       1.445  11.892  18.741  0.00  0.00    +0.000 C 
ATOM     19  C   UNL     1       2.076  12.942  19.650  0.00  0.00    +0.000 C 
ATOM     20  C   UNL     1       2.553  11.322  17.829  0.00  0.00    +0.000 C 
ENDBRANCH   1  18
BRANCH   1  21
ATOM     21  C   UNL     1      -0.777  10.623  19.271  0.00  0.00    +0.000 C 
ATOM     22  O   UNL     1      -1.579  10.098  20.038  0.00  0.00    +0.000 OA
BRANCH  21  23
ATOM     23  O   UNL     1      -1.118  11.020  18.030  0.00  0.00    +0.000 OA
BRANCH  23  24
ATOM     24  C   UNL     1      -2.054  10.227  17.315  0.00  0.00    +0.000 C 
BRANCH  24  25
ATOM     25  C   UNL     1      -3.374  10.976  17.154  0.00  0.00    +0.000 C 
ATOM     26  O   UNL     1      -3.786  11.352  16.072  0.00  0.00    +0.000 OA
ATOM     27  N   UNL     1      -4.050  11.170  18.343  0.00  0.00    +0.000 N 
ATOM     28  H   UNL     1      -3.661  10.821  19.208  0.00  0.00    +0.000 HD
BRANCH  27  29
ATOM     29  C   UNL     1      -5.341  11.874  18.384  0.00  0.00    +0.000 C 
ATOM     30  C   UNL     1      -6.506  10.876  18.312  0.00  0.00    +0.000 C 
ATOM     31  C   UNL     1      -6.771  10.120  19.614  0.00  0.00    +0.000 C 
ATOM     32  C   UNL     1      -7.760  10.832  20.535  0.00  0.00    +0.000 C 
ATOM     33  C   UNL     1      -7.274  12.146  21.137  0.00  0.00    +0.000 C 
ATOM     34  C   UNL     1      -6.763  13.179  20.134  0.00  0.00    +0.000 C 
ATOM     35  C   UNL     1      -5.379  12.834  19.586  0.00  0.00    +0.000 C 
ENDBRANCH  27  29
ENDBRANCH  24  25
ENDBRANCH  23  24
ENDBRANCH  21  23
ENDBRANCH   1  21
TORSDOF 11
ENDMDL
