MODEL 1
REMARK VINA RESULT:      -7.6      0.000      0.000
REMARK  Name = 
REMARK  4 active torsions:
REMARK  status: ('A' for Active; 'I' for Inactive)
REMARK    1  A    between atoms: C_1  and  C_2
REMARK    2  A    between atoms: P_6  and  C_7
REMARK    3  A    between atoms: P_6  and  C_14
REMARK    4  A    between atoms: C_7  and  C_8
REMARK                            x       y       z     vdW  Elec       q    Type
REMARK                         _______ _______ _______ _____ _____    ______ ____
ROOT
ATOM      1  C   UNL     1       0.835   1.367  18.544  0.00  0.00    +0.000 C 
ATOM      2  C   UNL     1       0.953   2.875  18.817  0.00  0.00    +0.000 C 
ATOM      3  C   UNL     1       1.046   3.087  20.339  0.00  0.00    +0.000 C 
ATOM      4  C   UNL     1       1.188   4.530  20.821  0.00  0.00    +0.000 C 
ATOM      5  C   UNL     1       2.601   5.076  20.649  0.00  0.00    +0.000 C 
ATOM      6  P   UNL     1       2.878   5.942  19.113  0.00  0.00    +0.000 P 
ATOM      7  C   UNL     1       2.093   4.954  17.835  0.00  0.00    +0.000 C 
ATOM      8  C   UNL     1       2.139   3.441  18.013  0.00  0.00    +0.000 C 
ENDROOT
BRANCH   6   9
ATOM      9  C   UNL     1       2.232   7.571  19.080  0.00  0.00    +0.000 A 
ATOM     10  C   UNL     1       1.625   8.133  20.207  0.00  0.00    +0.000 A 
ATOM     11  C   UNL     1       1.073   9.417  20.166  0.00  0.00    +0.000 A 
ATOM     12  C   UNL     1       1.130  10.156  18.989  0.00  0.00    +0.000 A 
ATOM     13  C   UNL     1       1.738   9.613  17.859  0.00  0.00    +0.000 A 
ATOM     14  C   UNL     1       2.287   8.329  17.906  0.00  0.00    +0.000 A 
ENDBRANCH   6   9
BRANCH   6  15
ATOM     15  C   UNL     1       4.636   5.841  18.778  0.00  0.00    +0.000 C 
BRANCH  15  16
ATOM     16  C   UNL     1       5.112   5.475  17.391  0.00  0.00    +0.000 A 
ATOM     17  C   UNL     1       5.570   4.179  17.110  0.00  0.00    +0.000 A 
ATOM     18  C   UNL     1       5.906   3.812  15.803  0.00  0.00    +0.000 A 
ATOM     19  C   UNL     1       5.791   4.733  14.765  0.00  0.00    +0.000 A 
ATOM     20  C   UNL     1       5.359   6.029  15.037  0.00  0.00    +0.000 A 
ATOM     21  C   UNL     1       5.023   6.397  16.341  0.00  0.00    +0.000 A 
ENDBRANCH  15  16
ENDBRANCH   6  15
TORSDOF 3
ENDMDL
MODEL 2
REMARK VINA RESULT:      -7.5      0.110      1.489
REMARK  Name = 
REMARK  4 active torsions:
REMARK  status: ('A' for Active; 'I' for Inactive)
REMARK    1  A    between atoms: C_1  and  C_2
REMARK    2  A    between atoms: P_6  and  C_7
REMARK    3  A    between atoms: P_6  and  C_14
REMARK    4  A    between atoms: C_7  and  C_8
REMARK                            x       y       z     vdW  Elec       q    Type
REMARK                         _______ _______ _______ _____ _____    ______ ____
ROOT
ATOM      1  C   UNL     1       0.877   1.354  18.599  0.00  0.00    +0.000 C 
ATOM      2  C   UNL     1       0.975   2.865  18.863  0.00  0.00    +0.000 C 
ATOM      3  C   UNL     1       1.108   3.085  20.381  0.00  0.00    +0.000 C 
ATOM      4  C   UNL     1       1.239   4.533  20.853  0.00  0.00    +0.000 C 
ATOM      5  C   UNL     1       2.636   5.102  20.638  0.00  0.00    +0.000 C 
ATOM      6  P   UNL     1       2.854   5.966  19.092  0.00  0.00    +0.000 P 
ATOM      7  C   UNL     1       2.049   4.960  17.841  0.00  0.00    +0.000 C 
ATOM      8  C   UNL     1       2.127   3.448  18.022  0.00  0.00    +0.000 C 
ENDROOT
BRANCH   6   9
ATOM      9  C   UNL     1       2.178   7.584  19.072  0.00  0.00    +0.000 A 
ATOM     10  C   UNL     1       2.249   8.385  17.929  0.00  0.00    +0.000 A 
ATOM     11  C   UNL     1       1.747   9.690  17.928  0.00  0.00    +0.000 A 
ATOM     12  C   UNL     1       1.160  10.204  19.079  0.00  0.00    +0.000 A 
ATOM     13  C   UNL     1       1.074   9.417  20.225  0.00  0.00    +0.000 A 
ATOM     14  C   UNL     1       1.579   8.114  20.219  0.00  0.00    +0.000 A 
ENDBRANCH   6   9
BRANCH   6  15
ATOM     15  C   UNL     1       4.603   5.895  18.706  0.00  0.00    +0.000 C 
BRANCH  15  16
ATOM     16  C   UNL     1       5.046   5.491  17.320  0.00  0.00    +0.000 A 
ATOM     17  C   UNL     1       4.970   6.397  16.251  0.00  0.00    +0.000 A 
ATOM     18  C   UNL     1       5.481   6.059  14.994  0.00  0.00    +0.000 A 
ATOM     19  C   UNL     1       6.069   4.813  14.789  0.00  0.00    +0.000 A 
ATOM     20  C   UNL     1       6.129   3.898  15.837  0.00  0.00    +0.000 A 
ATOM     21  C   UNL     1       5.619   4.234  17.092  0.00  0.00    +0.000 A 
ENDBRANCH  15  16
ENDBRANCH   6  15
TORSDOF 3
ENDMDL
MODEL 3
REMARK VINA RESULT:      -7.4      0.367      1.076
REMARK  Name = 
REMARK  4 active torsions:
REMARK  status: ('A' for Active; 'I' for Inactive)
REMARK    1  A    between atoms: C_1  and  C_2
REMARK    2  A    between atoms: P_6  and  C_7
REMARK    3  A    between atoms: P_6  and  C_14
REMARK    4  A    between atoms: C_7  and  C_8
REMARK                            x       y       z     vdW  Elec       q    Type
REMARK                         _______ _______ _______ _____ _____    ______ ____
ROOT
ATOM      1  C   UNL     1       1.049   1.338  18.539  0.00  0.00    +0.000 C 
ATOM      2  C   UNL     1       1.103   2.850  18.812  0.00  0.00    +0.000 C 
ATOM      3  C   UNL     1       1.111   3.067  20.336  0.00  0.00    +0.000 C 
ATOM      4  C   UNL     1       1.181   4.515  20.820  0.00  0.00    +0.000 C 
ATOM      5  C   UNL     1       2.583   5.106  20.718  0.00  0.00    +0.000 C 
ATOM      6  P   UNL     1       2.910   5.978  19.196  0.00  0.00    +0.000 P 
ATOM      7  C   UNL     1       2.224   4.963  17.883  0.00  0.00    +0.000 C 
ATOM      8  C   UNL     1       2.310   3.453  18.068  0.00  0.00    +0.000 C 
ENDROOT
BRANCH   6   9
ATOM      9  C   UNL     1       2.213   7.586  19.125  0.00  0.00    +0.000 A 
ATOM     10  C   UNL     1       1.583   8.153  20.236  0.00  0.00    +0.000 A 
ATOM     11  C   UNL     1       0.992   9.418  20.164  0.00  0.00    +0.000 A 
ATOM     12  C   UNL     1       1.032  10.132  18.971  0.00  0.00    +0.000 A 
ATOM     13  C   UNL     1       1.664   9.585  17.857  0.00  0.00    +0.000 A 
ATOM     14  C   UNL     1       2.252   8.320  17.935  0.00  0.00    +0.000 A 
ENDBRANCH   6   9
BRANCH   6  15
ATOM     15  C   UNL     1       4.685   5.935  18.952  0.00  0.00    +0.000 C 
BRANCH  15  16
ATOM     16  C   UNL     1       5.243   5.556  17.600  0.00  0.00    +0.000 A 
ATOM     17  C   UNL     1       4.889   6.279  16.451  0.00  0.00    +0.000 A 
ATOM     18  C   UNL     1       5.489   5.997  15.220  0.00  0.00    +0.000 A 
ATOM     19  C   UNL     1       6.447   4.990  15.121  0.00  0.00    +0.000 A 
ATOM     20  C   UNL     1       6.790   4.252  16.251  0.00  0.00    +0.000 A 
ATOM     21  C   UNL     1       6.191   4.533  17.481  0.00  0.00    +0.000 A 
ENDBRANCH  15  16
ENDBRANCH   6  15
TORSDOF 3
ENDMDL
MODEL 4
REMARK VINA RESULT:      -7.3      0.995      5.410
REMARK  Name = 
REMARK  4 active torsions:
REMARK  status: ('A' for Active; 'I' for Inactive)
REMARK    1  A    between atoms: C_1  and  C_2
REMARK    2  A    between atoms: P_6  and  C_7
REMARK    3  A    between atoms: P_6  and  C_14
REMARK    4  A    between atoms: C_7  and  C_8
REMARK                            x       y       z     vdW  Elec       q    Type
REMARK                         _______ _______ _______ _____ _____    ______ ____
ROOT
ATOM      1  C   UNL     1       1.365   2.940  21.739  0.00  0.00    +0.000 C 
ATOM      2  C   UNL     1       2.067   3.248  20.406  0.00  0.00    +0.000 C 
ATOM      3  C   UNL     1       0.993   3.382  19.311  0.00  0.00    +0.000 C 
ATOM      4  C   UNL     1       1.489   3.709  17.903  0.00  0.00    +0.000 C 
ATOM      5  C   UNL     1       1.861   5.178  17.732  0.00  0.00    +0.000 C 
ATOM      6  P   UNL     1       3.581   5.546  18.033  0.00  0.00    +0.000 P 
ATOM      7  C   UNL     1       4.036   4.630  19.510  0.00  0.00    +0.000 C 
ATOM      8  C   UNL     1       2.965   4.488  20.585  0.00  0.00    +0.000 C 
ENDROOT
BRANCH   6   9
ATOM      9  C   UNL     1       4.651   5.109  16.715  0.00  0.00    +0.000 A 
ATOM     10  C   UNL     1       5.158   6.076  15.843  0.00  0.00    +0.000 A 
ATOM     11  C   UNL     1       5.978   5.720  14.767  0.00  0.00    +0.000 A 
ATOM     12  C   UNL     1       6.303   4.383  14.559  0.00  0.00    +0.000 A 
ATOM     13  C   UNL     1       5.812   3.408  15.425  0.00  0.00    +0.000 A 
ATOM     14  C   UNL     1       4.993   3.770  16.497  0.00  0.00    +0.000 A 
ENDBRANCH   6   9
BRANCH   6  15
ATOM     15  C   UNL     1       3.661   7.274  18.504  0.00  0.00    +0.000 C 
BRANCH  15  16
ATOM     16  C   UNL     1       2.387   8.021  18.821  0.00  0.00    +0.000 A 
ATOM     17  C   UNL     1       1.842   7.991  20.114  0.00  0.00    +0.000 A 
ATOM     18  C   UNL     1       0.725   8.769  20.434  0.00  0.00    +0.000 A 
ATOM     19  C   UNL     1       0.139   9.584  19.467  0.00  0.00    +0.000 A 
ATOM     20  C   UNL     1       0.658   9.605  18.176  0.00  0.00    +0.000 A 
ATOM     21  C   UNL     1       1.773   8.827  17.855  0.00  0.00    +0.000 A 
ENDBRANCH  15  16
ENDBRANCH   6  15
TORSDOF 3
ENDMDL
MODEL 5
REMARK VINA RESULT:      -7.2      0.994      5.391
REMARK  Name = 
REMARK  4 active torsions:
REMARK  status: ('A' for Active; 'I' for Inactive)
REMARK    1  A    between atoms: C_1  and  C_2
REMARK    2  A    between atoms: P_6  and  C_7
REMARK    3  A    between atoms: P_6  and  C_14
REMARK    4  A    between atoms: C_7  and  C_8
REMARK                            x       y       z     vdW  Elec       q    Type
REMARK                         _______ _______ _______ _____ _____    ______ ____
ROOT
ATOM      1  C   UNL     1       1.343   2.904  21.805  0.00  0.00    +0.000 C 
ATOM      2  C   UNL     1       2.035   3.208  20.466  0.00  0.00    +0.000 C 
ATOM      3  C   UNL     1       0.952   3.337  19.379  0.00  0.00    +0.000 C 
ATOM      4  C   UNL     1       1.438   3.659  17.966  0.00  0.00    +0.000 C 
ATOM      5  C   UNL     1       1.807   5.127  17.786  0.00  0.00    +0.000 C 
ATOM      6  P   UNL     1       3.529   5.497  18.073  0.00  0.00    +0.000 P 
ATOM      7  C   UNL     1       3.996   4.587  19.550  0.00  0.00    +0.000 C 
ATOM      8  C   UNL     1       2.933   4.448  20.634  0.00  0.00    +0.000 C 
ENDROOT
BRANCH   6   9
ATOM      9  C   UNL     1       4.590   5.055  16.749  0.00  0.00    +0.000 A 
ATOM     10  C   UNL     1       4.992   3.731  16.553  0.00  0.00    +0.000 A 
ATOM     11  C   UNL     1       5.871   3.388  15.521  0.00  0.00    +0.000 A 
ATOM     12  C   UNL     1       6.353   4.375  14.668  0.00  0.00    +0.000 A 
ATOM     13  C   UNL     1       5.955   5.698  14.844  0.00  0.00    +0.000 A 
ATOM     14  C   UNL     1       5.077   6.035  15.877  0.00  0.00    +0.000 A 
ENDBRANCH   6   9
BRANCH   6  15
ATOM     15  C   UNL     1       3.612   7.227  18.536  0.00  0.00    +0.000 C 
BRANCH  15  16
ATOM     16  C   UNL     1       2.355   7.945  18.968  0.00  0.00    +0.000 A 
ATOM     17  C   UNL     1       1.844   7.776  20.264  0.00  0.00    +0.000 A 
ATOM     18  C   UNL     1       0.745   8.524  20.698  0.00  0.00    +0.000 A 
ATOM     19  C   UNL     1       0.142   9.445  19.844  0.00  0.00    +0.000 A 
ATOM     20  C   UNL     1       0.628   9.604  18.548  0.00  0.00    +0.000 A 
ATOM     21  C   UNL     1       1.725   8.858  18.114  0.00  0.00    +0.000 A 
ENDBRANCH  15  16
ENDBRANCH   6  15
TORSDOF 3
ENDMDL
MODEL 6
REMARK VINA RESULT:      -7.2      1.467      1.890
REMARK  Name = 
REMARK  4 active torsions:
REMARK  status: ('A' for Active; 'I' for Inactive)
REMARK    1  A    between atoms: C_1  and  C_2
REMARK    2  A    between atoms: P_6  and  C_7
REMARK    3  A    between atoms: P_6  and  C_14
REMARK    4  A    between atoms: C_7  and  C_8
REMARK                            x       y       z     vdW  Elec       q    Type
REMARK                         _______ _______ _______ _____ _____    ______ ____
ROOT
ATOM      1  C   UNL     1       0.800   1.322  19.025  0.00  0.00    +0.000 C 
ATOM      2  C   UNL     1       1.040   2.832  19.184  0.00  0.00    +0.000 C 
ATOM      3  C   UNL     1       1.824   3.064  20.489  0.00  0.00    +0.000 C 
ATOM      4  C   UNL     1       2.181   4.512  20.823  0.00  0.00    +0.000 C 
ATOM      5  C   UNL     1       3.361   5.034  20.010  0.00  0.00    +0.000 C 
ATOM      6  P   UNL     1       2.908   5.873  18.502  0.00  0.00    +0.000 P 
ATOM      7  C   UNL     1       1.616   4.880  17.747  0.00  0.00    +0.000 C 
ATOM      8  C   UNL     1       1.727   3.369  17.914  0.00  0.00    +0.000 C 
ENDROOT
BRANCH   6   9
ATOM      9  C   UNL     1       2.330   7.512  18.738  0.00  0.00    +0.000 A 
ATOM     10  C   UNL     1       1.761   7.913  19.950  0.00  0.00    +0.000 A 
ATOM     11  C   UNL     1       1.263   9.208  20.121  0.00  0.00    +0.000 A 
ATOM     12  C   UNL     1       1.337  10.120  19.074  0.00  0.00    +0.000 A 
ATOM     13  C   UNL     1       1.909   9.739  17.862  0.00  0.00    +0.000 A 
ATOM     14  C   UNL     1       2.404   8.443  17.697  0.00  0.00    +0.000 A 
ENDBRANCH   6   9
BRANCH   6  15
ATOM     15  C   UNL     1       4.314   5.741  17.398  0.00  0.00    +0.000 C 
BRANCH  15  16
ATOM     16  C   UNL     1       5.667   6.237  17.850  0.00  0.00    +0.000 A 
ATOM     17  C   UNL     1       6.403   5.532  18.815  0.00  0.00    +0.000 A 
ATOM     18  C   UNL     1       7.700   5.931  19.152  0.00  0.00    +0.000 A 
ATOM     19  C   UNL     1       8.275   7.039  18.533  0.00  0.00    +0.000 A 
ATOM     20  C   UNL     1       7.546   7.758  17.590  0.00  0.00    +0.000 A 
ATOM     21  C   UNL     1       6.250   7.361  17.253  0.00  0.00    +0.000 A 
ENDBRANCH  15  16
ENDBRANCH   6  15
TORSDOF 3
ENDMDL
MODEL 7
REMARK VINA RESULT:      -7.2      1.455      2.141
REMARK  Name = 
REMARK  4 active torsions:
REMARK  status: ('A' for Active; 'I' for Inactive)
REMARK    1  A    between atoms: C_1  and  C_2
REMARK    2  A    between atoms: P_6  and  C_7
REMARK    3  A    between atoms: P_6  and  C_14
REMARK    4  A    between atoms: C_7  and  C_8
REMARK                            x       y       z     vdW  Elec       q    Type
REMARK                         _______ _______ _______ _____ _____    ______ ____
ROOT
ATOM      1  C   UNL     1       0.892   1.436  19.191  0.00  0.00    +0.000 C 
ATOM      2  C   UNL     1       1.120   2.952  19.303  0.00  0.00    +0.000 C 
ATOM      3  C   UNL     1       1.974   3.223  20.555  0.00  0.00    +0.000 C 
ATOM      4  C   UNL     1       2.330   4.682  20.837  0.00  0.00    +0.000 C 
ATOM      5  C   UNL     1       3.453   5.201  19.946  0.00  0.00    +0.000 C 
ATOM      6  P   UNL     1       2.902   6.001  18.450  0.00  0.00    +0.000 P 
ATOM      7  C   UNL     1       1.583   4.974  17.792  0.00  0.00    +0.000 C 
ATOM      8  C   UNL     1       1.726   3.469  17.984  0.00  0.00    +0.000 C 
ENDROOT
BRANCH   6   9
ATOM      9  C   UNL     1       2.316   7.636  18.683  0.00  0.00    +0.000 A 
ATOM     10  C   UNL     1       1.681   8.017  19.869  0.00  0.00    +0.000 A 
ATOM     11  C   UNL     1       1.177   9.310  20.036  0.00  0.00    +0.000 A 
ATOM     12  C   UNL     1       1.311  10.241  19.011  0.00  0.00    +0.000 A 
ATOM     13  C   UNL     1       1.948   9.881  17.826  0.00  0.00    +0.000 A 
ATOM     14  C   UNL     1       2.448   8.586  17.665  0.00  0.00    +0.000 A 
ENDBRANCH   6   9
BRANCH   6  15
ATOM     15  C   UNL     1       4.245   5.862  17.269  0.00  0.00    +0.000 C 
BRANCH  15  16
ATOM     16  C   UNL     1       5.656   6.178  17.704  0.00  0.00    +0.000 A 
ATOM     17  C   UNL     1       6.325   7.304  17.202  0.00  0.00    +0.000 A 
ATOM     18  C   UNL     1       7.589   7.656  17.687  0.00  0.00    +0.000 A 
ATOM     19  C   UNL     1       8.199   6.887  18.675  0.00  0.00    +0.000 A 
ATOM     20  C   UNL     1       7.554   5.754  19.165  0.00  0.00    +0.000 A 
ATOM     21  C   UNL     1       6.292   5.402  18.681  0.00  0.00    +0.000 A 
ENDBRANCH  15  16
ENDBRANCH   6  15
TORSDOF 3
ENDMDL
MODEL 8
REMARK VINA RESULT:      -7.1      1.120      1.444
REMARK  Name = 
REMARK  4 active torsions:
REMARK  status: ('A' for Active; 'I' for Inactive)
REMARK    1  A    between atoms: C_1  and  C_2
REMARK    2  A    between atoms: P_6  and  C_7
REMARK    3  A    between atoms: P_6  and  C_14
REMARK    4  A    between atoms: C_7  and  C_8
REMARK                            x       y       z     vdW  Elec       q    Type
REMARK                         _______ _______ _______ _____ _____    ______ ____
ROOT
ATOM      1  C   UNL     1       1.522   1.752  18.623  0.00  0.00    +0.000 C 
ATOM      2  C   UNL     1       1.526   3.249  18.971  0.00  0.00    +0.000 C 
ATOM      3  C   UNL     1       2.440   3.462  20.191  0.00  0.00    +0.000 C 
ATOM      4  C   UNL     1       2.595   4.900  20.687  0.00  0.00    +0.000 C 
ATOM      5  C   UNL     1       3.540   5.727  19.822  0.00  0.00    +0.000 C 
ATOM      6  P   UNL     1       2.737   6.645  18.519  0.00  0.00    +0.000 P 
ATOM      7  C   UNL     1       1.534   5.528  17.790  0.00  0.00    +0.000 C 
ATOM      8  C   UNL     1       1.921   4.055  17.719  0.00  0.00    +0.000 C 
ENDROOT
BRANCH   6   9
ATOM      9  C   UNL     1       1.933   8.106  19.060  0.00  0.00    +0.000 A 
ATOM     10  C   UNL     1       1.532   8.263  20.390  0.00  0.00    +0.000 A 
ATOM     11  C   UNL     1       0.854   9.412  20.809  0.00  0.00    +0.000 A 
ATOM     12  C   UNL     1       0.575  10.422  19.894  0.00  0.00    +0.000 A 
ATOM     13  C   UNL     1       0.975  10.285  18.567  0.00  0.00    +0.000 A 
ATOM     14  C   UNL     1       1.652   9.134  18.154  0.00  0.00    +0.000 A 
ENDBRANCH   6   9
BRANCH   6  15
ATOM     15  C   UNL     1       3.970   6.912  17.246  0.00  0.00    +0.000 C 
BRANCH  15  16
ATOM     16  C   UNL     1       5.181   6.011  17.178  0.00  0.00    +0.000 A 
ATOM     17  C   UNL     1       5.187   4.882  16.344  0.00  0.00    +0.000 A 
ATOM     18  C   UNL     1       6.345   4.112  16.199  0.00  0.00    +0.000 A 
ATOM     19  C   UNL     1       7.507   4.458  16.886  0.00  0.00    +0.000 A 
ATOM     20  C   UNL     1       7.505   5.563  17.732  0.00  0.00    +0.000 A 
ATOM     21  C   UNL     1       6.349   6.333  17.878  0.00  0.00    +0.000 A 
ENDBRANCH  15  16
ENDBRANCH   6  15
TORSDOF 3
ENDMDL
MODEL 9
REMARK VINA RESULT:      -7.1      1.110      1.755
REMARK  Name = 
REMARK  4 active torsions:
REMARK  status: ('A' for Active; 'I' for Inactive)
REMARK    1  A    between atoms: C_1  and  C_2
REMARK    2  A    between atoms: P_6  and  C_7
REMARK    3  A    between atoms: P_6  and  C_14
REMARK    4  A    between atoms: C_7  and  C_8
REMARK                            x       y       z     vdW  Elec       q    Type
REMARK                         _______ _______ _______ _____ _____    ______ ____
ROOT
ATOM      1  C   UNL     1       1.507   1.726  18.568  0.00  0.00    +0.000 C 
ATOM      2  C   UNL     1       1.507   3.214  18.954  0.00  0.00    +0.000 C 
ATOM      3  C   UNL     1       2.427   3.398  20.175  0.00  0.00    +0.000 C 
ATOM      4  C   UNL     1       2.579   4.823  20.707  0.00  0.00    +0.000 C 
ATOM      5  C   UNL     1       3.517   5.675  19.859  0.00  0.00    +0.000 C 
ATOM      6  P   UNL     1       2.704   6.624  18.585  0.00  0.00    +0.000 P 
ATOM      7  C   UNL     1       1.502   5.522  17.833  0.00  0.00    +0.000 C 
ATOM      8  C   UNL     1       1.893   4.053  17.721  0.00  0.00    +0.000 C 
ENDROOT
BRANCH   6   9
ATOM      9  C   UNL     1       1.898   8.068  19.167  0.00  0.00    +0.000 A 
ATOM     10  C   UNL     1       1.643   9.148  18.318  0.00  0.00    +0.000 A 
ATOM     11  C   UNL     1       1.037  10.315  18.794  0.00  0.00    +0.000 A 
ATOM     12  C   UNL     1       0.675  10.407  20.134  0.00  0.00    +0.000 A 
ATOM     13  C   UNL     1       0.915   9.336  20.992  0.00  0.00    +0.000 A 
ATOM     14  C   UNL     1       1.521   8.174  20.510  0.00  0.00    +0.000 A 
ENDBRANCH   6   9
BRANCH   6  15
ATOM     15  C   UNL     1       3.930   6.929  17.313  0.00  0.00    +0.000 C 
BRANCH  15  16
ATOM     16  C   UNL     1       5.132   6.021  17.202  0.00  0.00    +0.000 A 
ATOM     17  C   UNL     1       5.109   4.902  16.356  0.00  0.00    +0.000 A 
ATOM     18  C   UNL     1       6.258   4.126  16.171  0.00  0.00    +0.000 A 
ATOM     19  C   UNL     1       7.440   4.457  16.829  0.00  0.00    +0.000 A 
ATOM     20  C   UNL     1       7.468   5.553  17.688  0.00  0.00    +0.000 A 
ATOM     21  C   UNL     1       6.321   6.328  17.873  0.00  0.00    +0.000 A 
ENDBRANCH  15  16
ENDBRANCH   6  15
TORSDOF 3
ENDMDL
