MODEL 1
REMARK VINA RESULT:      -8.1      0.000      0.000
REMARK  Name = 
REMARK  6 active torsions:
REMARK  status: ('A' for Active; 'I' for Inactive)
REMARK    1  A    between atoms: C_2  and  C_3
REMARK    2  A    between atoms: C_2  and  C_10
REMARK    3  A    between atoms: N_13  and  C_14
REMARK    4  A    between atoms: C_14  and  C_15
REMARK    5  A    between atoms: C_15  and  C_16
REMARK    6  A    between atoms: C_16  and  N_17
REMARK                            x       y       z     vdW  Elec       q    Type
REMARK                         _______ _______ _______ _____ _____    ______ ____
ROOT
ATOM      1  C   UNL     1      -0.019   9.619  19.885  0.00  0.00    +0.000 C 
ENDROOT
BRANCH   1   2
ATOM      2  C   UNL     1       1.405   9.053  19.819  0.00  0.00    +0.000 C 
BRANCH   2   6
ATOM      3  C   UNL     1       2.764   5.078  18.748  0.00  0.00    +0.000 C 
ATOM      4  C   UNL     1       2.234   6.040  17.688  0.00  0.00    +0.000 C 
ATOM      5  C   UNL     1       2.282   7.486  18.177  0.00  0.00    +0.000 C 
ATOM      6  N   UNL     1       1.458   7.646  19.384  0.00  0.00    +0.000 NA
ATOM      7  C   UNL     1       1.986   6.808  20.478  0.00  0.00    +0.000 C 
ATOM      8  C   UNL     1       2.048   5.327  20.083  0.00  0.00    +0.000 C 
BRANCH   3  10
ATOM      9  O   UNL     1       4.813   5.407  19.987  0.00  0.00    +0.000 OA
ATOM     10  C   UNL     1       4.280   5.223  18.892  0.00  0.00    +0.000 C 
BRANCH  10  11
ATOM     11  C   UNL     1       5.167   5.162  17.687  0.00  0.00    +0.000 A 
ATOM     12  C   UNL     1       5.063   4.028  16.863  0.00  0.00    +0.000 A 
ATOM     13  C   UNL     1       5.841   3.911  15.709  0.00  0.00    +0.000 A 
ATOM     14  C   UNL     1       6.726   4.928  15.383  0.00  0.00    +0.000 A 
ATOM     15  F   UNL     1       7.469   4.825  14.273  0.00  0.00    +0.000 F 
ATOM     16  C   UNL     1       6.852   6.054  16.189  0.00  0.00    +0.000 A 
ATOM     17  C   UNL     1       6.075   6.172  17.347  0.00  0.00    +0.000 A 
ENDBRANCH  10  11
ENDBRANCH   3  10
ENDBRANCH   2   6
ENDBRANCH   1   2
BRANCH   1  18
ATOM     18  C   UNL     1      -0.120  10.996  19.213  0.00  0.00    +0.000 C 
BRANCH  18  19
ATOM     19  N   UNL     1      -1.452  11.608  19.447  0.00  0.00    +0.000 N 
ATOM     20  C   UNL     1      -1.654  12.226  20.718  0.00  0.00    +0.000 A 
ATOM     21  C   UNL     1      -0.595  12.442  21.632  0.00  0.00    +0.000 A 
ATOM     22  C   UNL     1      -0.791  12.986  22.907  0.00  0.00    +0.000 A 
ATOM     23  C   UNL     1      -2.063  13.354  23.309  0.00  0.00    +0.000 A 
ATOM     24  C   UNL     1      -3.121  13.205  22.424  0.00  0.00    +0.000 A 
ATOM     25  C   UNL     1      -2.928  12.659  21.138  0.00  0.00    +0.000 A 
ATOM     26  S   UNL     1      -4.387  12.569  20.132  0.00  0.00    +0.000 S 
ATOM     27  C   UNL     1      -3.778  11.860  18.623  0.00  0.00    +0.000 A 
ATOM     28  C   UNL     1      -4.747  11.706  17.607  0.00  0.00    +0.000 A 
ATOM     29  C   UNL     1      -4.422  11.130  16.384  0.00  0.00    +0.000 A 
ATOM     30  C   UNL     1      -3.123  10.707  16.176  0.00  0.00    +0.000 A 
ATOM     31 CL   UNL     1      -2.690   9.976  14.677  0.00  0.00    +0.000 Cl
ATOM     32  C   UNL     1      -2.157  10.864  17.176  0.00  0.00    +0.000 A 
ATOM     33  C   UNL     1      -2.444  11.444  18.433  0.00  0.00    +0.000 A 
ENDBRANCH  18  19
ENDBRANCH   1  18
TORSDOF 6
ENDMDL
MODEL 2
REMARK VINA RESULT:      -7.9      4.793     10.229
REMARK  Name = 
REMARK  6 active torsions:
REMARK  status: ('A' for Active; 'I' for Inactive)
REMARK    1  A    between atoms: C_2  and  C_3
REMARK    2  A    between atoms: C_2  and  C_10
REMARK    3  A    between atoms: N_13  and  C_14
REMARK    4  A    between atoms: C_14  and  C_15
REMARK    5  A    between atoms: C_15  and  C_16
REMARK    6  A    between atoms: C_16  and  N_17
REMARK                            x       y       z     vdW  Elec       q    Type
REMARK                         _______ _______ _______ _____ _____    ______ ____
ROOT
ATOM      1  C   UNL     1       2.539   7.753  18.561  0.00  0.00    +0.000 C 
ENDROOT
BRANCH   1   2
ATOM      2  C   UNL     1       2.091   9.111  18.004  0.00  0.00    +0.000 C 
BRANCH   2   6
ATOM      3  C   UNL     1      -0.419  12.026  20.002  0.00  0.00    +0.000 C 
ATOM      4  C   UNL     1       1.071  12.284  19.791  0.00  0.00    +0.000 C 
ATOM      5  C   UNL     1       1.634  11.403  18.677  0.00  0.00    +0.000 C 
ATOM      6  N   UNL     1       1.465   9.982  19.014  0.00  0.00    +0.000 NA
ATOM      7  C   UNL     1       0.032   9.652  19.136  0.00  0.00    +0.000 C 
ATOM      8  C   UNL     1      -0.667  10.522  20.187  0.00  0.00    +0.000 C 
BRANCH   3  10
ATOM      9  O   UNL     1      -0.784  13.467  18.096  0.00  0.00    +0.000 OA
ATOM     10  C   UNL     1      -1.230  12.586  18.832  0.00  0.00    +0.000 C 
BRANCH  10  11
ATOM     11  C   UNL     1      -2.614  12.084  18.559  0.00  0.00    +0.000 A 
ATOM     12  C   UNL     1      -3.611  12.385  19.503  0.00  0.00    +0.000 A 
ATOM     13  C   UNL     1      -4.929  11.970  19.306  0.00  0.00    +0.000 A 
ATOM     14  C   UNL     1      -5.249  11.250  18.164  0.00  0.00    +0.000 A 
ATOM     15  F   UNL     1      -6.514  10.856  17.966  0.00  0.00    +0.000 F 
ATOM     16  C   UNL     1      -4.277  10.931  17.223  0.00  0.00    +0.000 A 
ATOM     17  C   UNL     1      -2.954  11.344  17.419  0.00  0.00    +0.000 A 
ENDBRANCH  10  11
ENDBRANCH   3  10
ENDBRANCH   2   6
ENDBRANCH   1   2
BRANCH   1  18
ATOM     18  C   UNL     1       2.844   6.747  17.441  0.00  0.00    +0.000 C 
BRANCH  18  19
ATOM     19  N   UNL     1       3.612   5.588  17.961  0.00  0.00    +0.000 N 
ATOM     20  C   UNL     1       2.855   4.428  18.309  0.00  0.00    +0.000 A 
ATOM     21  C   UNL     1       1.484   4.294  17.987  0.00  0.00    +0.000 A 
ATOM     22  C   UNL     1       0.716   3.192  18.382  0.00  0.00    +0.000 A 
ATOM     23  C   UNL     1       1.302   2.167  19.102  0.00  0.00    +0.000 A 
ATOM     24  C   UNL     1       2.657   2.237  19.395  0.00  0.00    +0.000 A 
ATOM     25  C   UNL     1       3.435   3.344  18.998  0.00  0.00    +0.000 A 
ATOM     26  S   UNL     1       5.153   3.250  19.434  0.00  0.00    +0.000 S 
ATOM     27  C   UNL     1       5.804   4.769  18.784  0.00  0.00    +0.000 A 
ATOM     28  C   UNL     1       7.194   4.943  18.962  0.00  0.00    +0.000 A 
ATOM     29  C   UNL     1       7.835   6.101  18.537  0.00  0.00    +0.000 A 
ATOM     30  C   UNL     1       7.083   7.088  17.931  0.00  0.00    +0.000 A 
ATOM     31 CL   UNL     1       7.844   8.542  17.404  0.00  0.00    +0.000 Cl
ATOM     32  C   UNL     1       5.707   6.919  17.743  0.00  0.00    +0.000 A 
ATOM     33  C   UNL     1       5.016   5.758  18.160  0.00  0.00    +0.000 A 
ENDBRANCH  18  19
ENDBRANCH   1  18
TORSDOF 6
ENDMDL
MODEL 3
REMARK VINA RESULT:      -7.9      4.749     10.244
REMARK  Name = 
REMARK  6 active torsions:
REMARK  status: ('A' for Active; 'I' for Inactive)
REMARK    1  A    between atoms: C_2  and  C_3
REMARK    2  A    between atoms: C_2  and  C_10
REMARK    3  A    between atoms: N_13  and  C_14
REMARK    4  A    between atoms: C_14  and  C_15
REMARK    5  A    between atoms: C_15  and  C_16
REMARK    6  A    between atoms: C_16  and  N_17
REMARK                            x       y       z     vdW  Elec       q    Type
REMARK                         _______ _______ _______ _____ _____    ______ ____
ROOT
ATOM      1  C   UNL     1       2.397   7.454  19.287  0.00  0.00    +0.000 C 
ENDROOT
BRANCH   1   2
ATOM      2  C   UNL     1       1.446   7.967  20.377  0.00  0.00    +0.000 C 
BRANCH   2   6
ATOM      3  C   UNL     1      -0.640  11.576  19.188  0.00  0.00    +0.000 C 
ATOM      4  C   UNL     1       0.734  11.237  18.616  0.00  0.00    +0.000 C 
ATOM      5  C   UNL     1       1.049   9.750  18.772  0.00  0.00    +0.000 C 
ATOM      6  N   UNL     1       1.046   9.373  20.192  0.00  0.00    +0.000 NA
ATOM      7  C   UNL     1      -0.292   9.588  20.776  0.00  0.00    +0.000 C 
ATOM      8  C   UNL     1      -0.753  11.043  20.624  0.00  0.00    +0.000 C 
BRANCH   3  10
ATOM      9  O   UNL     1      -1.505  10.205  17.395  0.00  0.00    +0.000 OA
ATOM     10  C   UNL     1      -1.746  11.011  18.295  0.00  0.00    +0.000 C 
BRANCH  10  11
ATOM     11  C   UNL     1      -3.167  11.443  18.481  0.00  0.00    +0.000 A 
ATOM     12  C   UNL     1      -4.124  10.925  17.591  0.00  0.00    +0.000 A 
ATOM     13  C   UNL     1      -5.472  11.264  17.717  0.00  0.00    +0.000 A 
ATOM     14  C   UNL     1      -5.863  12.126  18.731  0.00  0.00    +0.000 A 
ATOM     15  F   UNL     1      -7.156  12.449  18.861  0.00  0.00    +0.000 F 
ATOM     16  C   UNL     1      -4.931  12.659  19.615  0.00  0.00    +0.000 A 
ATOM     17  C   UNL     1      -3.579  12.322  19.491  0.00  0.00    +0.000 A 
ENDBRANCH  10  11
ENDBRANCH   3  10
ENDBRANCH   2   6
ENDBRANCH   1   2
BRANCH   1  18
ATOM     18  C   UNL     1       3.360   6.385  19.824  0.00  0.00    +0.000 C 
BRANCH  18  19
ATOM     19  N   UNL     1       3.583   5.315  18.819  0.00  0.00    +0.000 N 
ATOM     20  C   UNL     1       2.649   4.236  18.820  0.00  0.00    +0.000 A 
ATOM     21  C   UNL     1       1.455   4.269  19.579  0.00  0.00    +0.000 A 
ATOM     22  C   UNL     1       0.564   3.190  19.640  0.00  0.00    +0.000 A 
ATOM     23  C   UNL     1       0.829   2.037  18.923  0.00  0.00    +0.000 A 
ATOM     24  C   UNL     1       1.965   1.984  18.127  0.00  0.00    +0.000 A 
ATOM     25  C   UNL     1       2.864   3.068  18.060  0.00  0.00    +0.000 A 
ATOM     26  S   UNL     1       4.245   2.834  16.970  0.00  0.00    +0.000 S 
ATOM     27  C   UNL     1       5.131   4.364  17.130  0.00  0.00    +0.000 A 
ATOM     28  C   UNL     1       6.286   4.468  16.323  0.00  0.00    +0.000 A 
ATOM     29  C   UNL     1       7.100   5.594  16.371  0.00  0.00    +0.000 A 
ATOM     30  C   UNL     1       6.757   6.621  17.230  0.00  0.00    +0.000 A 
ATOM     31 CL   UNL     1       7.751   8.025  17.325  0.00  0.00    +0.000 Cl
ATOM     32  C   UNL     1       5.611   6.528  18.026  0.00  0.00    +0.000 A 
ATOM     33  C   UNL     1       4.756   5.402  18.008  0.00  0.00    +0.000 A 
ENDBRANCH  18  19
ENDBRANCH   1  18
TORSDOF 6
ENDMDL
MODEL 4
REMARK VINA RESULT:      -7.9      4.781     10.021
REMARK  Name = 
REMARK  6 active torsions:
REMARK  status: ('A' for Active; 'I' for Inactive)
REMARK    1  A    between atoms: C_2  and  C_3
REMARK    2  A    between atoms: C_2  and  C_10
REMARK    3  A    between atoms: N_13  and  C_14
REMARK    4  A    between atoms: C_14  and  C_15
REMARK    5  A    between atoms: C_15  and  C_16
REMARK    6  A    between atoms: C_16  and  N_17
REMARK                            x       y       z     vdW  Elec       q    Type
REMARK                         _______ _______ _______ _____ _____    ______ ____
ROOT
ATOM      1  C   UNL     1       2.062   7.538  19.107  0.00  0.00    +0.000 C 
ENDROOT
BRANCH   1   2
ATOM      2  C   UNL     1       2.525   8.505  18.009  0.00  0.00    +0.000 C 
BRANCH   2   6
ATOM      3  C   UNL     1       0.356  12.149  18.909  0.00  0.00    +0.000 C 
ATOM      4  C   UNL     1      -0.383  10.856  18.572  0.00  0.00    +0.000 C 
ATOM      5  C   UNL     1       0.513   9.636  18.776  0.00  0.00    +0.000 C 
ATOM      6  N   UNL     1       1.696   9.719  17.907  0.00  0.00    +0.000 NA
ATOM      7  C   UNL     1       2.504  10.902  18.255  0.00  0.00    +0.000 C 
ATOM      8  C   UNL     1       1.691  12.199  18.151  0.00  0.00    +0.000 C 
BRANCH   3  10
ATOM      9  O   UNL     1       1.691  12.398  20.909  0.00  0.00    +0.000 OA
ATOM     10  C   UNL     1       0.568  12.267  20.420  0.00  0.00    +0.000 C 
BRANCH  10  11
ATOM     11  C   UNL     1      -0.598  12.205  21.357  0.00  0.00    +0.000 A 
ATOM     12  C   UNL     1      -0.543  11.264  22.400  0.00  0.00    +0.000 A 
ATOM     13  C   UNL     1      -1.582  11.164  23.326  0.00  0.00    +0.000 A 
ATOM     14  C   UNL     1      -2.680  12.003  23.206  0.00  0.00    +0.000 A 
ATOM     15  F   UNL     1      -3.677  11.916  24.096  0.00  0.00    +0.000 F 
ATOM     16  C   UNL     1      -2.761  12.933  22.175  0.00  0.00    +0.000 A 
ATOM     17  C   UNL     1      -1.721  13.034  21.244  0.00  0.00    +0.000 A 
ENDBRANCH  10  11
ENDBRANCH   3  10
ENDBRANCH   2   6
ENDBRANCH   1   2
BRANCH   1  18
ATOM     18  C   UNL     1       3.224   6.702  19.661  0.00  0.00    +0.000 C 
BRANCH  18  19
ATOM     19  N   UNL     1       3.549   5.572  18.754  0.00  0.00    +0.000 N 
ATOM     20  C   UNL     1       2.644   4.468  18.764  0.00  0.00    +0.000 A 
ATOM     21  C   UNL     1       1.396   4.517  19.430  0.00  0.00    +0.000 A 
ATOM     22  C   UNL     1       0.530   3.419  19.503  0.00  0.00    +0.000 A 
ATOM     23  C   UNL     1       0.877   2.228  18.891  0.00  0.00    +0.000 A 
ATOM     24  C   UNL     1       2.070   2.154  18.185  0.00  0.00    +0.000 A 
ATOM     25  C   UNL     1       2.944   3.258  18.107  0.00  0.00    +0.000 A 
ATOM     26  S   UNL     1       4.408   2.990  17.140  0.00  0.00    +0.000 S 
ATOM     27  C   UNL     1       5.242   4.553  17.255  0.00  0.00    +0.000 A 
ATOM     28  C   UNL     1       6.451   4.635  16.529  0.00  0.00    +0.000 A 
ATOM     29  C   UNL     1       7.230   5.786  16.556  0.00  0.00    +0.000 A 
ATOM     30  C   UNL     1       6.800   6.859  17.312  0.00  0.00    +0.000 A 
ATOM     31 CL   UNL     1       7.748   8.296  17.379  0.00  0.00    +0.000 Cl
ATOM     32  C   UNL     1       5.599   6.787  18.027  0.00  0.00    +0.000 A 
ATOM     33  C   UNL     1       4.776   5.638  18.027  0.00  0.00    +0.000 A 
ENDBRANCH  18  19
ENDBRANCH   1  18
TORSDOF 6
ENDMDL
MODEL 5
REMARK VINA RESULT:      -7.8      4.762      9.654
REMARK  Name = 
REMARK  6 active torsions:
REMARK  status: ('A' for Active; 'I' for Inactive)
REMARK    1  A    between atoms: C_2  and  C_3
REMARK    2  A    between atoms: C_2  and  C_10
REMARK    3  A    between atoms: N_13  and  C_14
REMARK    4  A    between atoms: C_14  and  C_15
REMARK    5  A    between atoms: C_15  and  C_16
REMARK    6  A    between atoms: C_16  and  N_17
REMARK                            x       y       z     vdW  Elec       q    Type
REMARK                         _______ _______ _______ _____ _____    ______ ____
ROOT
ATOM      1  C   UNL     1       2.264   7.483  19.423  0.00  0.00    +0.000 C 
ENDROOT
BRANCH   1   2
ATOM      2  C   UNL     1       1.437   8.021  20.598  0.00  0.00    +0.000 C 
BRANCH   2   6
ATOM      3  C   UNL     1       0.139  12.090  19.854  0.00  0.00    +0.000 C 
ATOM      4  C   UNL     1      -0.390  11.302  21.050  0.00  0.00    +0.000 C 
ATOM      5  C   UNL     1       0.532  10.134  21.396  0.00  0.00    +0.000 C 
ATOM      6  N   UNL     1       0.635   9.210  20.257  0.00  0.00    +0.000 NA
ATOM      7  C   UNL     1       1.234   9.895  19.096  0.00  0.00    +0.000 C 
ATOM      8  C   UNL     1       0.428  11.135  18.687  0.00  0.00    +0.000 C 
BRANCH   3  10
ATOM      9  O   UNL     1       2.043  12.609  21.250  0.00  0.00    +0.000 OA
ATOM     10  C   UNL     1       1.385  12.886  20.246  0.00  0.00    +0.000 C 
BRANCH  10  11
ATOM     11  C   UNL     1       1.833  14.051  19.418  0.00  0.00    +0.000 A 
ATOM     12  C   UNL     1       3.000  13.889  18.651  0.00  0.00    +0.000 A 
ATOM     13  C   UNL     1       3.467  14.923  17.837  0.00  0.00    +0.000 A 
ATOM     14  C   UNL     1       2.767  16.121  17.794  0.00  0.00    +0.000 A 
ATOM     15  F   UNL     1       3.206  17.113  17.009  0.00  0.00    +0.000 F 
ATOM     16  C   UNL     1       1.617  16.305  18.553  0.00  0.00    +0.000 A 
ATOM     17  C   UNL     1       1.148  15.271  19.372  0.00  0.00    +0.000 A 
ENDBRANCH  10  11
ENDBRANCH   3  10
ENDBRANCH   2   6
ENDBRANCH   1   2
BRANCH   1  18
ATOM     18  C   UNL     1       3.327   6.476  19.885  0.00  0.00    +0.000 C 
BRANCH  18  19
ATOM     19  N   UNL     1       3.550   5.428  18.858  0.00  0.00    +0.000 N 
ATOM     20  C   UNL     1       2.619   4.345  18.841  0.00  0.00    +0.000 A 
ATOM     21  C   UNL     1       1.429   4.358  19.606  0.00  0.00    +0.000 A 
ATOM     22  C   UNL     1       0.542   3.275  19.649  0.00  0.00    +0.000 A 
ATOM     23  C   UNL     1       0.809   2.138  18.908  0.00  0.00    +0.000 A 
ATOM     24  C   UNL     1       1.941   2.105  18.106  0.00  0.00    +0.000 A 
ATOM     25  C   UNL     1       2.836   3.194  18.058  0.00  0.00    +0.000 A 
ATOM     26  S   UNL     1       4.213   2.987  16.958  0.00  0.00    +0.000 S 
ATOM     27  C   UNL     1       5.095   4.516  17.145  0.00  0.00    +0.000 A 
ATOM     28  C   UNL     1       6.246   4.640  16.335  0.00  0.00    +0.000 A 
ATOM     29  C   UNL     1       7.056   5.768  16.403  0.00  0.00    +0.000 A 
ATOM     30  C   UNL     1       6.713   6.776  17.283  0.00  0.00    +0.000 A 
ATOM     31 CL   UNL     1       7.702   8.182  17.402  0.00  0.00    +0.000 Cl
ATOM     32  C   UNL     1       5.570   6.663  18.082  0.00  0.00    +0.000 A 
ATOM     33  C   UNL     1       4.719   5.535  18.045  0.00  0.00    +0.000 A 
ENDBRANCH  18  19
ENDBRANCH   1  18
TORSDOF 6
ENDMDL
MODEL 6
REMARK VINA RESULT:      -7.7      1.940      3.853
REMARK  Name = 
REMARK  6 active torsions:
REMARK  status: ('A' for Active; 'I' for Inactive)
REMARK    1  A    between atoms: C_2  and  C_3
REMARK    2  A    between atoms: C_2  and  C_10
REMARK    3  A    between atoms: N_13  and  C_14
REMARK    4  A    between atoms: C_14  and  C_15
REMARK    5  A    between atoms: C_15  and  C_16
REMARK    6  A    between atoms: C_16  and  N_17
REMARK                            x       y       z     vdW  Elec       q    Type
REMARK                         _______ _______ _______ _____ _____    ______ ____
ROOT
ATOM      1  C   UNL     1       0.054  10.096  20.526  0.00  0.00    +0.000 C 
ENDROOT
BRANCH   1   2
ATOM      2  C   UNL     1       1.433   9.499  20.218  0.00  0.00    +0.000 C 
BRANCH   2   6
ATOM      3  C   UNL     1       2.458   5.579  18.675  0.00  0.00    +0.000 C 
ATOM      4  C   UNL     1       2.029   6.706  17.738  0.00  0.00    +0.000 C 
ATOM      5  C   UNL     1       2.195   8.072  18.401  0.00  0.00    +0.000 C 
ATOM      6  N   UNL     1       1.370   8.155  19.615  0.00  0.00    +0.000 NA
ATOM      7  C   UNL     1       1.807   7.148  20.600  0.00  0.00    +0.000 C 
ATOM      8  C   UNL     1       1.747   5.727  20.028  0.00  0.00    +0.000 C 
BRANCH   3  10
ATOM      9  O   UNL     1       4.512   5.761  19.936  0.00  0.00    +0.000 OA
ATOM     10  C   UNL     1       3.979   5.572  18.842  0.00  0.00    +0.000 C 
BRANCH  10  11
ATOM     11  C   UNL     1       4.871   5.350  17.661  0.00  0.00    +0.000 A 
ATOM     12  C   UNL     1       5.993   6.187  17.530  0.00  0.00    +0.000 A 
ATOM     13  C   UNL     1       6.884   6.025  16.466  0.00  0.00    +0.000 A 
ATOM     14  C   UNL     1       6.648   5.027  15.531  0.00  0.00    +0.000 A 
ATOM     15  F   UNL     1       7.503   4.862  14.513  0.00  0.00    +0.000 F 
ATOM     16  C   UNL     1       5.539   4.195  15.636  0.00  0.00    +0.000 A 
ATOM     17  C   UNL     1       4.644   4.357  16.699  0.00  0.00    +0.000 A 
ENDBRANCH  10  11
ENDBRANCH   3  10
ENDBRANCH   2   6
ENDBRANCH   1   2
BRANCH   1  18
ATOM     18  C   UNL     1      -0.221  11.359  19.698  0.00  0.00    +0.000 C 
BRANCH  18  19
ATOM     19  N   UNL     1      -1.680  11.602  19.563  0.00  0.00    +0.000 N 
ATOM     20  C   UNL     1      -2.306  11.082  18.390  0.00  0.00    +0.000 A 
ATOM     21  C   UNL     1      -1.640  10.204  17.502  0.00  0.00    +0.000 A 
ATOM     22  C   UNL     1      -2.220   9.741  16.315  0.00  0.00    +0.000 A 
ATOM     23  C   UNL     1      -3.505  10.129  15.980  0.00  0.00    +0.000 A 
ATOM     24  C   UNL     1      -4.210  10.950  16.849  0.00  0.00    +0.000 A 
ATOM     25  C   UNL     1      -3.631  11.417  18.047  0.00  0.00    +0.000 A 
ATOM     26  S   UNL     1      -4.689  12.433  19.048  0.00  0.00    +0.000 S 
ATOM     27  C   UNL     1      -3.657  12.817  20.439  0.00  0.00    +0.000 A 
ATOM     28  C   UNL     1      -4.274  13.604  21.437  0.00  0.00    +0.000 A 
ATOM     29  C   UNL     1      -3.576  14.014  22.566  0.00  0.00    +0.000 A 
ATOM     30  C   UNL     1      -2.254  13.635  22.700  0.00  0.00    +0.000 A 
ATOM     31 CL   UNL     1      -1.354  14.136  24.082  0.00  0.00    +0.000 Cl
ATOM     32  C   UNL     1      -1.639  12.848  21.721  0.00  0.00    +0.000 A 
ATOM     33  C   UNL     1      -2.311  12.410  20.557  0.00  0.00    +0.000 A 
ENDBRANCH  18  19
ENDBRANCH   1  18
TORSDOF 6
ENDMDL
MODEL 7
REMARK VINA RESULT:      -7.7      4.930     10.415
REMARK  Name = 
REMARK  6 active torsions:
REMARK  status: ('A' for Active; 'I' for Inactive)
REMARK    1  A    between atoms: C_2  and  C_3
REMARK    2  A    between atoms: C_2  and  C_10
REMARK    3  A    between atoms: N_13  and  C_14
REMARK    4  A    between atoms: C_14  and  C_15
REMARK    5  A    between atoms: C_15  and  C_16
REMARK    6  A    between atoms: C_16  and  N_17
REMARK                            x       y       z     vdW  Elec       q    Type
REMARK                         _______ _______ _______ _____ _____    ______ ____
ROOT
ATOM      1  C   UNL     1       1.962   7.558  18.372  0.00  0.00    +0.000 C 
ENDROOT
BRANCH   1   2
ATOM      2  C   UNL     1       2.423   9.000  18.123  0.00  0.00    +0.000 C 
BRANCH   2   6
ATOM      3  C   UNL     1      -0.325  12.014  19.592  0.00  0.00    +0.000 C 
ATOM      4  C   UNL     1      -0.802  10.595  19.289  0.00  0.00    +0.000 C 
ATOM      5  C   UNL     1       0.366   9.611  19.268  0.00  0.00    +0.000 C 
ATOM      6  N   UNL     1       1.338   9.991  18.233  0.00  0.00    +0.000 NA
ATOM      7  C   UNL     1       1.906  11.319  18.529  0.00  0.00    +0.000 C 
ATOM      8  C   UNL     1       0.818  12.394  18.640  0.00  0.00    +0.000 C 
BRANCH   3  10
ATOM      9  O   UNL     1       1.236  11.822  21.427  0.00  0.00    +0.000 OA
ATOM     10  C   UNL     1       0.104  12.134  21.055  0.00  0.00    +0.000 C 
BRANCH  10  11
ATOM     11  C   UNL     1      -0.860  12.622  22.092  0.00  0.00    +0.000 A 
ATOM     12  C   UNL     1      -0.627  13.892  22.647  0.00  0.00    +0.000 A 
ATOM     13  C   UNL     1      -1.495  14.423  23.602  0.00  0.00    +0.000 A 
ATOM     14  C   UNL     1      -2.596  13.682  24.004  0.00  0.00    +0.000 A 
ATOM     15  F   UNL     1      -3.437  14.190  24.915  0.00  0.00    +0.000 F 
ATOM     16  C   UNL     1      -2.840  12.419  23.476  0.00  0.00    +0.000 A 
ATOM     17  C   UNL     1      -1.970  11.882  22.520  0.00  0.00    +0.000 A 
ENDBRANCH  10  11
ENDBRANCH   3  10
ENDBRANCH   2   6
ENDBRANCH   1   2
BRANCH   1  18
ATOM     18  C   UNL     1       2.951   6.785  19.257  0.00  0.00    +0.000 C 
BRANCH  18  19
ATOM     19  N   UNL     1       3.470   5.585  18.555  0.00  0.00    +0.000 N 
ATOM     20  C   UNL     1       2.648   4.418  18.598  0.00  0.00    +0.000 A 
ATOM     21  C   UNL     1       1.321   4.444  19.090  0.00  0.00    +0.000 A 
ATOM     22  C   UNL     1       0.529   3.294  19.199  0.00  0.00    +0.000 A 
ATOM     23  C   UNL     1       1.034   2.070  18.798  0.00  0.00    +0.000 A 
ATOM     24  C   UNL     1       2.313   2.011  18.263  0.00  0.00    +0.000 A 
ATOM     25  C   UNL     1       3.114   3.166  18.149  0.00  0.00    +0.000 A 
ATOM     26  S   UNL     1       4.710   2.906  17.416  0.00  0.00    +0.000 S 
ATOM     27  C   UNL     1       5.413   4.535  17.426  0.00  0.00    +0.000 A 
ATOM     28  C   UNL     1       6.700   4.629  16.851  0.00  0.00    +0.000 A 
ATOM     29  C   UNL     1       7.390   5.836  16.823  0.00  0.00    +0.000 A 
ATOM     30  C   UNL     1       6.791   6.953  17.371  0.00  0.00    +0.000 A 
ATOM     31 CL   UNL     1       7.623   8.462  17.365  0.00  0.00    +0.000 Cl
ATOM     32  C   UNL     1       5.513   6.869  17.934  0.00  0.00    +0.000 A 
ATOM     33  C   UNL     1       4.776   5.663  17.984  0.00  0.00    +0.000 A 
ENDBRANCH  18  19
ENDBRANCH   1  18
TORSDOF 6
ENDMDL
MODEL 8
REMARK VINA RESULT:      -7.5      4.725     10.001
REMARK  Name = 
REMARK  6 active torsions:
REMARK  status: ('A' for Active; 'I' for Inactive)
REMARK    1  A    between atoms: C_2  and  C_3
REMARK    2  A    between atoms: C_2  and  C_10
REMARK    3  A    between atoms: N_13  and  C_14
REMARK    4  A    between atoms: C_14  and  C_15
REMARK    5  A    between atoms: C_15  and  C_16
REMARK    6  A    between atoms: C_16  and  N_17
REMARK                            x       y       z     vdW  Elec       q    Type
REMARK                         _______ _______ _______ _____ _____    ______ ____
ROOT
ATOM      1  C   UNL     1       2.375   7.704  18.652  0.00  0.00    +0.000 C 
ENDROOT
BRANCH   1   2
ATOM      2  C   UNL     1       2.003   9.121  18.199  0.00  0.00    +0.000 C 
BRANCH   2   6
ATOM      3  C   UNL     1      -0.947  11.476  20.332  0.00  0.00    +0.000 C 
ATOM      4  C   UNL     1      -0.507  10.110  20.851  0.00  0.00    +0.000 C 
ATOM      5  C   UNL     1       0.839   9.697  20.256  0.00  0.00    +0.000 C 
ATOM      6  N   UNL     1       0.747   9.616  18.791  0.00  0.00    +0.000 NA
ATOM      7  C   UNL     1       0.418  10.938  18.225  0.00  0.00    +0.000 C 
ATOM      8  C   UNL     1      -0.892  11.494  18.797  0.00  0.00    +0.000 C 
BRANCH   3  10
ATOM      9  O   UNL     1       0.381  12.499  22.074  0.00  0.00    +0.000 OA
ATOM     10  C   UNL     1      -0.079  12.583  20.935  0.00  0.00    +0.000 C 
BRANCH  10  11
ATOM     11  C   UNL     1       0.223  13.822  20.151  0.00  0.00    +0.000 A 
ATOM     12  C   UNL     1       1.554  14.026  19.748  0.00  0.00    +0.000 A 
ATOM     13  C   UNL     1       1.907  15.147  18.995  0.00  0.00    +0.000 A 
ATOM     14  C   UNL     1       0.928  16.067  18.648  0.00  0.00    +0.000 A 
ATOM     15  F   UNL     1       1.260  17.141  17.919  0.00  0.00    +0.000 F 
ATOM     16  C   UNL     1      -0.393  15.890  19.046  0.00  0.00    +0.000 A 
ATOM     17  C   UNL     1      -0.749  14.769  19.802  0.00  0.00    +0.000 A 
ENDBRANCH  10  11
ENDBRANCH   3  10
ENDBRANCH   2   6
ENDBRANCH   1   2
BRANCH   1  18
ATOM     18  C   UNL     1       2.847   6.834  17.478  0.00  0.00    +0.000 C 
BRANCH  18  19
ATOM     19  N   UNL     1       3.614   5.657  17.960  0.00  0.00    +0.000 N 
ATOM     20  C   UNL     1       2.855   4.494  18.290  0.00  0.00    +0.000 A 
ATOM     21  C   UNL     1       1.479   4.376  17.982  0.00  0.00    +0.000 A 
ATOM     22  C   UNL     1       0.709   3.269  18.359  0.00  0.00    +0.000 A 
ATOM     23  C   UNL     1       1.298   2.224  19.048  0.00  0.00    +0.000 A 
ATOM     24  C   UNL     1       2.656   2.279  19.326  0.00  0.00    +0.000 A 
ATOM     25  C   UNL     1       3.437   3.391  18.946  0.00  0.00    +0.000 A 
ATOM     26  S   UNL     1       5.159   3.277  19.358  0.00  0.00    +0.000 S 
ATOM     27  C   UNL     1       5.811   4.806  18.737  0.00  0.00    +0.000 A 
ATOM     28  C   UNL     1       7.204   4.968  18.902  0.00  0.00    +0.000 A 
ATOM     29  C   UNL     1       7.847   6.132  18.497  0.00  0.00    +0.000 A 
ATOM     30  C   UNL     1       7.094   7.138  17.923  0.00  0.00    +0.000 A 
ATOM     31 CL   UNL     1       7.857   8.600  17.422  0.00  0.00    +0.000 Cl
ATOM     32  C   UNL     1       5.715   6.981  17.749  0.00  0.00    +0.000 A 
ATOM     33  C   UNL     1       5.021   5.815  18.146  0.00  0.00    +0.000 A 
ENDBRANCH  18  19
ENDBRANCH   1  18
TORSDOF 6
ENDMDL
MODEL 9
REMARK VINA RESULT:      -7.5      5.008     10.485
REMARK  Name = 
REMARK  6 active torsions:
REMARK  status: ('A' for Active; 'I' for Inactive)
REMARK    1  A    between atoms: C_2  and  C_3
REMARK    2  A    between atoms: C_2  and  C_10
REMARK    3  A    between atoms: N_13  and  C_14
REMARK    4  A    between atoms: C_14  and  C_15
REMARK    5  A    between atoms: C_15  and  C_16
REMARK    6  A    between atoms: C_16  and  N_17
REMARK                            x       y       z     vdW  Elec       q    Type
REMARK                         _______ _______ _______ _____ _____    ______ ____
ROOT
ATOM      1  C   UNL     1       2.506   7.826  18.518  0.00  0.00    +0.000 C 
ENDROOT
BRANCH   1   2
ATOM      2  C   UNL     1       1.749   9.049  17.982  0.00  0.00    +0.000 C 
BRANCH   2   6
ATOM      3  C   UNL     1      -0.781  11.122  20.827  0.00  0.00    +0.000 C 
ATOM      4  C   UNL     1      -0.252   9.721  21.120  0.00  0.00    +0.000 C 
ATOM      5  C   UNL     1       0.967   9.396  20.259  0.00  0.00    +0.000 C 
ATOM      6  N   UNL     1       0.617   9.457  18.833  0.00  0.00    +0.000 NA
ATOM      7  C   UNL     1       0.189  10.821  18.469  0.00  0.00    +0.000 C 
ATOM      8  C   UNL     1      -0.999  11.291  19.315  0.00  0.00    +0.000 C 
BRANCH   3  10
ATOM      9  O   UNL     1       1.387  12.141  21.148  0.00  0.00    +0.000 OA
ATOM     10  C   UNL     1       0.177  12.182  21.374  0.00  0.00    +0.000 C 
BRANCH  10  11
ATOM     11  C   UNL     1      -0.336  13.301  22.226  0.00  0.00    +0.000 A 
ATOM     12  C   UNL     1      -1.414  13.022  23.083  0.00  0.00    +0.000 A 
ATOM     13  C   UNL     1      -1.932  14.009  23.924  0.00  0.00    +0.000 A 
ATOM     14  C   UNL     1      -1.371  15.278  23.905  0.00  0.00    +0.000 A 
ATOM     15  F   UNL     1      -1.858  16.226  24.715  0.00  0.00    +0.000 F 
ATOM     16  C   UNL     1      -0.311  15.579  23.057  0.00  0.00    +0.000 A 
ATOM     17  C   UNL     1       0.208  14.592  22.211  0.00  0.00    +0.000 A 
ENDBRANCH  10  11
ENDBRANCH   3  10
ENDBRANCH   2   6
ENDBRANCH   1   2
BRANCH   1  18
ATOM     18  C   UNL     1       2.902   6.860  17.392  0.00  0.00    +0.000 C 
BRANCH  18  19
ATOM     19  N   UNL     1       3.663   5.702  17.926  0.00  0.00    +0.000 N 
ATOM     20  C   UNL     1       2.902   4.542  18.266  0.00  0.00    +0.000 A 
ATOM     21  C   UNL     1       1.536   4.406  17.924  0.00  0.00    +0.000 A 
ATOM     22  C   UNL     1       0.763   3.304  18.310  0.00  0.00    +0.000 A 
ATOM     23  C   UNL     1       1.340   2.282  19.042  0.00  0.00    +0.000 A 
ATOM     24  C   UNL     1       2.690   2.354  19.354  0.00  0.00    +0.000 A 
ATOM     25  C   UNL     1       3.473   3.461  18.966  0.00  0.00    +0.000 A 
ATOM     26  S   UNL     1       5.185   3.370  19.427  0.00  0.00    +0.000 S 
ATOM     27  C   UNL     1       5.843   4.887  18.783  0.00  0.00    +0.000 A 
ATOM     28  C   UNL     1       7.231   5.064  18.982  0.00  0.00    +0.000 A 
ATOM     29  C   UNL     1       7.877   6.221  18.564  0.00  0.00    +0.000 A 
ATOM     30  C   UNL     1       7.133   7.207  17.944  0.00  0.00    +0.000 A 
ATOM     31 CL   UNL     1       7.899   8.660  17.425  0.00  0.00    +0.000 Cl
ATOM     32  C   UNL     1       5.760   7.035  17.736  0.00  0.00    +0.000 A 
ATOM     33  C   UNL     1       5.063   5.874  18.145  0.00  0.00    +0.000 A 
ENDBRANCH  18  19
ENDBRANCH   1  18
TORSDOF 6
ENDMDL
