MODEL 1
REMARK VINA RESULT:      -9.1      0.000      0.000
REMARK  Name = 
REMARK  8 active torsions:
REMARK  status: ('A' for Active; 'I' for Inactive)
REMARK    1  A    between atoms: C_1  and  C_2
REMARK    2  A    between atoms: C_5  and  C_6
REMARK    3  A    between atoms: C_6  and  C_8
REMARK    4  A    between atoms: C_9  and  C_10
REMARK    5  A    between atoms: C_13  and  C_14
REMARK    6  A    between atoms: N_20  and  C_21
REMARK    7  A    between atoms: N_20  and  C_22
REMARK    8  A    between atoms: C_26  and  C_27
REMARK                            x       y       z     vdW  Elec       q    Type
REMARK                         _______ _______ _______ _____ _____    ______ ____
ROOT
ATOM      1  C   UNL     1       2.326   7.676  18.745  0.00  0.00    +0.000 A 
ATOM      2  C   UNL     1       1.839   7.869  20.043  0.00  0.00    +0.000 A 
ATOM      3  C   UNL     1       1.013   8.965  20.349  0.00  0.00    +0.000 A 
ATOM      4  C   UNL     1       0.685   9.882  19.346  0.00  0.00    +0.000 A 
ATOM      5  C   UNL     1       1.109   9.631  18.034  0.00  0.00    +0.000 A 
ATOM      6  C   UNL     1       1.926   8.547  17.727  0.00  0.00    +0.000 A 
ENDROOT
BRANCH   4   7
ATOM      7  C   UNL     1      -0.133  11.143  19.551  0.00  0.00    +0.000 C 
ATOM      8  N   UNL     1      -1.568  11.066  19.213  0.00  0.00    +0.000 NA
ATOM      9  C   UNL     1      -2.103  12.241  19.305  0.00  0.00    +0.000 C 
ATOM     10  N   UNL     1      -3.446  12.408  19.202  0.00  0.00    +0.000 N 
ATOM     11  N   UNL     1      -1.378  13.385  19.432  0.00  0.00    +0.000 N 
ATOM     12  C   UNL     1      -0.052  13.411  19.114  0.00  0.00    +0.000 C 
ATOM     13  N   UNL     1       0.573  14.614  18.862  0.00  0.00    +0.000 N 
ATOM     14  C   UNL     1      -0.014  15.940  18.893  0.00  0.00    +0.000 C 
ATOM     15  C   UNL     1       2.009  14.623  18.550  0.00  0.00    +0.000 C 
ATOM     16  N   UNL     1       0.603  12.297  19.024  0.00  0.00    +0.000 NA
ATOM     17  H   UNL     1      -3.951  11.534  19.321  0.00  0.00    +0.000 HD
ATOM     18  H   UNL     1      -3.888  13.192  19.658  0.00  0.00    +0.000 HD
ATOM     19  H   UNL     1      -1.881  14.245  19.493  0.00  0.00    +0.000 HD
ENDBRANCH   4   7
BRANCH   1  21
ATOM     20  C   UNL     1       3.417   5.564  19.294  0.00  0.00    +0.000 C 
ATOM     21  C   UNL     1       3.233   6.577  18.437  0.00  0.00    +0.000 C 
BRANCH  20  22
ATOM     22  C   UNL     1       4.418   4.503  18.991  0.00  0.00    +0.000 C 
ATOM     23  O   UNL     1       4.566   3.560  19.784  0.00  0.00    +0.000 OA
BRANCH  22  28
ATOM     24  C   UNL     1       7.332   4.899  13.931  0.00  0.00    +0.000 C 
ATOM     25  C   UNL     1       6.593   4.775  15.230  0.00  0.00    +0.000 A 
ATOM     26  C   UNL     1       5.328   4.199  15.293  0.00  0.00    +0.000 A 
ATOM     27  C   UNL     1       4.648   4.098  16.516  0.00  0.00    +0.000 A 
ATOM     28  C   UNL     1       5.217   4.576  17.719  0.00  0.00    +0.000 A 
ATOM     29  C   UNL     1       6.506   5.155  17.662  0.00  0.00    +0.000 A 
ATOM     30  C   UNL     1       7.281   5.704  18.832  0.00  0.00    +0.000 C 
ATOM     31  C   UNL     1       7.168   5.245  16.414  0.00  0.00    +0.000 A 
ENDBRANCH  22  28
ENDBRANCH  20  22
ENDBRANCH   1  21
TORSDOF 4
ENDMDL
MODEL 2
REMARK VINA RESULT:      -9.1      4.934     10.387
REMARK  Name = 
REMARK  8 active torsions:
REMARK  status: ('A' for Active; 'I' for Inactive)
REMARK    1  A    between atoms: C_1  and  C_2
REMARK    2  A    between atoms: C_5  and  C_6
REMARK    3  A    between atoms: C_6  and  C_8
REMARK    4  A    between atoms: C_9  and  C_10
REMARK    5  A    between atoms: C_13  and  C_14
REMARK    6  A    between atoms: N_20  and  C_21
REMARK    7  A    between atoms: N_20  and  C_22
REMARK    8  A    between atoms: C_26  and  C_27
REMARK                            x       y       z     vdW  Elec       q    Type
REMARK                         _______ _______ _______ _____ _____    ______ ____
ROOT
ATOM      1  C   UNL     1       1.512   9.251  18.748  0.00  0.00    +0.000 A 
ATOM      2  C   UNL     1       2.264   8.864  17.632  0.00  0.00    +0.000 A 
ATOM      3  C   UNL     1       3.052   7.700  17.662  0.00  0.00    +0.000 A 
ATOM      4  C   UNL     1       3.098   6.927  18.827  0.00  0.00    +0.000 A 
ATOM      5  C   UNL     1       2.276   7.280  19.906  0.00  0.00    +0.000 A 
ATOM      6  C   UNL     1       1.493   8.431  19.879  0.00  0.00    +0.000 A 
ENDROOT
BRANCH   4   7
ATOM      7  C   UNL     1       3.959   5.694  19.023  0.00  0.00    +0.000 C 
ATOM      8  N   UNL     1       5.335   5.754  18.490  0.00  0.00    +0.000 NA
ATOM      9  C   UNL     1       5.899   4.594  18.606  0.00  0.00    +0.000 C 
ATOM     10  N   UNL     1       7.219   4.430  18.337  0.00  0.00    +0.000 N 
ATOM     11  N   UNL     1       5.219   3.460  18.923  0.00  0.00    +0.000 N 
ATOM     12  C   UNL     1       3.863   3.397  18.788  0.00  0.00    +0.000 C 
ATOM     13  N   UNL     1       3.233   2.173  18.722  0.00  0.00    +0.000 N 
ATOM     14  C   UNL     1       3.844   0.858  18.782  0.00  0.00    +0.000 C 
ATOM     15  C   UNL     1       1.769   2.126  18.608  0.00  0.00    +0.000 C 
ATOM     16  N   UNL     1       3.181   4.495  18.696  0.00  0.00    +0.000 NA
ATOM     17  H   UNL     1       7.719   5.315  18.315  0.00  0.00    +0.000 HD
ATOM     18  H   UNL     1       7.733   3.691  18.793  0.00  0.00    +0.000 HD
ATOM     19  H   UNL     1       5.742   2.612  18.985  0.00  0.00    +0.000 HD
ENDBRANCH   4   7
BRANCH   1  21
ATOM     20  C   UNL     1      -0.580  10.488  18.533  0.00  0.00    +0.000 C 
ATOM     21  C   UNL     1       0.743  10.490  18.743  0.00  0.00    +0.000 C 
BRANCH  20  22
ATOM     22  C   UNL     1      -1.322  11.777  18.444  0.00  0.00    +0.000 C 
ATOM     23  O   UNL     1      -0.692  12.846  18.459  0.00  0.00    +0.000 OA
BRANCH  22  28
ATOM     24  C   UNL     1      -7.155  11.969  18.003  0.00  0.00    +0.000 C 
ATOM     25  C   UNL     1      -5.662  11.899  18.127  0.00  0.00    +0.000 A 
ATOM     26  C   UNL     1      -5.013  12.271  19.300  0.00  0.00    +0.000 A 
ATOM     27  C   UNL     1      -3.615  12.206  19.395  0.00  0.00    +0.000 A 
ATOM     28  C   UNL     1      -2.821  11.765  18.312  0.00  0.00    +0.000 A 
ATOM     29  C   UNL     1      -3.475  11.378  17.119  0.00  0.00    +0.000 A 
ATOM     30  C   UNL     1      -2.807  10.869  15.868  0.00  0.00    +0.000 C 
ATOM     31  C   UNL     1      -4.887  11.456  17.051  0.00  0.00    +0.000 A 
ENDBRANCH  22  28
ENDBRANCH  20  22
ENDBRANCH   1  21
TORSDOF 4
ENDMDL
MODEL 3
REMARK VINA RESULT:      -8.9      1.765      2.508
REMARK  Name = 
REMARK  8 active torsions:
REMARK  status: ('A' for Active; 'I' for Inactive)
REMARK    1  A    between atoms: C_1  and  C_2
REMARK    2  A    between atoms: C_5  and  C_6
REMARK    3  A    between atoms: C_6  and  C_8
REMARK    4  A    between atoms: C_9  and  C_10
REMARK    5  A    between atoms: C_13  and  C_14
REMARK    6  A    between atoms: N_20  and  C_21
REMARK    7  A    between atoms: N_20  and  C_22
REMARK    8  A    between atoms: C_26  and  C_27
REMARK                            x       y       z     vdW  Elec       q    Type
REMARK                         _______ _______ _______ _____ _____    ______ ____
ROOT
ATOM      1  C   UNL     1       2.525   7.417  18.734  0.00  0.00    +0.000 A 
ATOM      2  C   UNL     1       2.243   8.447  17.828  0.00  0.00    +0.000 A 
ATOM      3  C   UNL     1       1.444   9.540  18.206  0.00  0.00    +0.000 A 
ATOM      4  C   UNL     1       0.912   9.593  19.498  0.00  0.00    +0.000 A 
ATOM      5  C   UNL     1       1.271   8.599  20.419  0.00  0.00    +0.000 A 
ATOM      6  C   UNL     1       2.062   7.515  20.049  0.00  0.00    +0.000 A 
ENDROOT
BRANCH   4   7
ATOM      7  C   UNL     1      -0.022  10.671  20.014  0.00  0.00    +0.000 C 
ATOM      8  N   UNL     1      -0.151  10.791  21.480  0.00  0.00    +0.000 NA
ATOM      9  C   UNL     1      -1.076  11.651  21.768  0.00  0.00    +0.000 C 
ATOM     10  N   UNL     1      -1.277  12.059  23.047  0.00  0.00    +0.000 N 
ATOM     11  N   UNL     1      -1.951  12.144  20.851  0.00  0.00    +0.000 N 
ATOM     12  C   UNL     1      -2.146  11.509  19.660  0.00  0.00    +0.000 C 
ATOM     13  N   UNL     1      -3.282  11.764  18.921  0.00  0.00    +0.000 N 
ATOM     14  C   UNL     1      -4.366  12.670  19.248  0.00  0.00    +0.000 C 
ATOM     15  C   UNL     1      -3.459  11.093  17.626  0.00  0.00    +0.000 C 
ATOM     16  N   UNL     1      -1.270  10.649  19.246  0.00  0.00    +0.000 NA
ATOM     17  H   UNL     1      -0.487  11.838  23.648  0.00  0.00    +0.000 HD
ATOM     18  H   UNL     1      -1.673  12.970  23.224  0.00  0.00    +0.000 HD
ATOM     19  H   UNL     1      -2.631  12.800  21.171  0.00  0.00    +0.000 HD
ENDBRANCH   4   7
BRANCH   1  21
ATOM     20  C   UNL     1       4.006   5.539  19.217  0.00  0.00    +0.000 C 
ATOM     21  C   UNL     1       3.300   6.251  18.328  0.00  0.00    +0.000 C 
BRANCH  20  22
ATOM     22  C   UNL     1       4.859   4.408  18.757  0.00  0.00    +0.000 C 
ATOM     23  O   UNL     1       4.983   3.404  19.477  0.00  0.00    +0.000 OA
BRANCH  22  28
ATOM     24  C   UNL     1       7.293   4.806  13.449  0.00  0.00    +0.000 C 
ATOM     25  C   UNL     1       6.678   4.682  14.812  0.00  0.00    +0.000 A 
ATOM     26  C   UNL     1       5.460   4.037  15.002  0.00  0.00    +0.000 A 
ATOM     27  C   UNL     1       4.897   3.937  16.283  0.00  0.00    +0.000 A 
ATOM     28  C   UNL     1       5.538   4.485  17.417  0.00  0.00    +0.000 A 
ATOM     29  C   UNL     1       6.780   5.135  17.231  0.00  0.00    +0.000 A 
ATOM     30  C   UNL     1       7.620   5.765  18.312  0.00  0.00    +0.000 C 
ATOM     31  C   UNL     1       7.325   5.223  15.927  0.00  0.00    +0.000 A 
ENDBRANCH  22  28
ENDBRANCH  20  22
ENDBRANCH   1  21
TORSDOF 4
ENDMDL
MODEL 4
REMARK VINA RESULT:      -8.9      1.382      2.215
REMARK  Name = 
REMARK  8 active torsions:
REMARK  status: ('A' for Active; 'I' for Inactive)
REMARK    1  A    between atoms: C_1  and  C_2
REMARK    2  A    between atoms: C_5  and  C_6
REMARK    3  A    between atoms: C_6  and  C_8
REMARK    4  A    between atoms: C_9  and  C_10
REMARK    5  A    between atoms: C_13  and  C_14
REMARK    6  A    between atoms: N_20  and  C_21
REMARK    7  A    between atoms: N_20  and  C_22
REMARK    8  A    between atoms: C_26  and  C_27
REMARK                            x       y       z     vdW  Elec       q    Type
REMARK                         _______ _______ _______ _____ _____    ______ ____
ROOT
ATOM      1  C   UNL     1       2.587   7.571  18.531  0.00  0.00    +0.000 A 
ATOM      2  C   UNL     1       2.021   7.671  19.808  0.00  0.00    +0.000 A 
ATOM      3  C   UNL     1       1.111   8.699  20.115  0.00  0.00    +0.000 A 
ATOM      4  C   UNL     1       0.778   9.641  19.137  0.00  0.00    +0.000 A 
ATOM      5  C   UNL     1       1.286   9.479  17.841  0.00  0.00    +0.000 A 
ATOM      6  C   UNL     1       2.187   8.463  17.533  0.00  0.00    +0.000 A 
ENDROOT
BRANCH   4   7
ATOM      7  C   UNL     1      -0.128  10.838  19.351  0.00  0.00    +0.000 C 
ATOM      8  N   UNL     1       0.235  12.081  18.641  0.00  0.00    +0.000 NA
ATOM      9  C   UNL     1      -0.540  13.046  19.024  0.00  0.00    +0.000 C 
ATOM     10  N   UNL     1      -0.515  14.251  18.401  0.00  0.00    +0.000 N 
ATOM     11  N   UNL     1      -1.365  12.958  20.102  0.00  0.00    +0.000 N 
ATOM     12  C   UNL     1      -1.174  12.000  21.053  0.00  0.00    +0.000 C 
ATOM     13  N   UNL     1      -1.733  12.150  22.304  0.00  0.00    +0.000 N 
ATOM     14  C   UNL     1      -2.549  13.249  22.784  0.00  0.00    +0.000 C 
ATOM     15  C   UNL     1      -1.541  11.092  23.305  0.00  0.00    +0.000 C 
ATOM     16  N   UNL     1      -0.443  10.967  20.777  0.00  0.00    +0.000 NA
ATOM     17  H   UNL     1      -0.056  14.205  17.495  0.00  0.00    +0.000 HD
ATOM     18  H   UNL     1      -1.340  14.831  18.404  0.00  0.00    +0.000 HD
ATOM     19  H   UNL     1      -1.922  13.758  20.320  0.00  0.00    +0.000 HD
ENDBRANCH   4   7
BRANCH   1  21
ATOM     20  C   UNL     1       3.725   5.466  19.005  0.00  0.00    +0.000 C 
ATOM     21  C   UNL     1       3.577   6.546  18.227  0.00  0.00    +0.000 C 
BRANCH  20  22
ATOM     22  C   UNL     1       4.807   4.483  18.718  0.00  0.00    +0.000 C 
ATOM     23  O   UNL     1       5.089   3.621  19.566  0.00  0.00    +0.000 OA
BRANCH  22  28
ATOM     24  C   UNL     1       7.391   4.757  13.474  0.00  0.00    +0.000 C 
ATOM     25  C   UNL     1       6.738   4.664  14.822  0.00  0.00    +0.000 A 
ATOM     26  C   UNL     1       5.535   3.990  15.000  0.00  0.00    +0.000 A 
ATOM     27  C   UNL     1       4.935   3.921  16.266  0.00  0.00    +0.000 A 
ATOM     28  C   UNL     1       5.525   4.530  17.397  0.00  0.00    +0.000 A 
ATOM     29  C   UNL     1       6.752   5.211  17.224  0.00  0.00    +0.000 A 
ATOM     30  C   UNL     1       7.539   5.906  18.304  0.00  0.00    +0.000 C 
ATOM     31  C   UNL     1       7.334   5.266  15.934  0.00  0.00    +0.000 A 
ENDBRANCH  22  28
ENDBRANCH  20  22
ENDBRANCH   1  21
TORSDOF 4
ENDMDL
MODEL 5
REMARK VINA RESULT:      -8.8      1.590      2.354
REMARK  Name = 
REMARK  8 active torsions:
REMARK  status: ('A' for Active; 'I' for Inactive)
REMARK    1  A    between atoms: C_1  and  C_2
REMARK    2  A    between atoms: C_5  and  C_6
REMARK    3  A    between atoms: C_6  and  C_8
REMARK    4  A    between atoms: C_9  and  C_10
REMARK    5  A    between atoms: C_13  and  C_14
REMARK    6  A    between atoms: N_20  and  C_21
REMARK    7  A    between atoms: N_20  and  C_22
REMARK    8  A    between atoms: C_26  and  C_27
REMARK                            x       y       z     vdW  Elec       q    Type
REMARK                         _______ _______ _______ _____ _____    ______ ____
ROOT
ATOM      1  C   UNL     1       2.595   7.467  18.678  0.00  0.00    +0.000 A 
ATOM      2  C   UNL     1       2.085   7.554  19.979  0.00  0.00    +0.000 A 
ATOM      3  C   UNL     1       1.205   8.589  20.341  0.00  0.00    +0.000 A 
ATOM      4  C   UNL     1       0.846   9.553  19.394  0.00  0.00    +0.000 A 
ATOM      5  C   UNL     1       1.297   9.406  18.075  0.00  0.00    +0.000 A 
ATOM      6  C   UNL     1       2.167   8.383  17.712  0.00  0.00    +0.000 A 
ENDROOT
BRANCH   4   7
ATOM      7  C   UNL     1      -0.032  10.760  19.666  0.00  0.00    +0.000 C 
ATOM      8  N   UNL     1       0.024  11.327  21.029  0.00  0.00    +0.000 NA
ATOM      9  C   UNL     1      -0.871  12.255  21.153  0.00  0.00    +0.000 C 
ATOM     10  N   UNL     1      -0.914  13.040  22.259  0.00  0.00    +0.000 N 
ATOM     11  N   UNL     1      -1.863  12.463  20.246  0.00  0.00    +0.000 N 
ATOM     12  C   UNL     1      -2.197  11.499  19.341  0.00  0.00    +0.000 C 
ATOM     13  N   UNL     1      -3.421  11.542  18.708  0.00  0.00    +0.000 N 
ATOM     14  C   UNL     1      -4.470  12.530  18.876  0.00  0.00    +0.000 C 
ATOM     15  C   UNL     1      -3.751  10.510  17.715  0.00  0.00    +0.000 C 
ATOM     16  N   UNL     1      -1.367  10.532  19.105  0.00  0.00    +0.000 NA
ATOM     17  H   UNL     1      -0.051  12.995  22.794  0.00  0.00    +0.000 HD
ATOM     18  H   UNL     1      -1.299  13.970  22.195  0.00  0.00    +0.000 HD
ATOM     19  H   UNL     1      -2.508  13.202  20.431  0.00  0.00    +0.000 HD
ENDBRANCH   4   7
BRANCH   1  21
ATOM     20  C   UNL     1       3.776   5.376  19.107  0.00  0.00    +0.000 C 
ATOM     21  C   UNL     1       3.556   6.434  18.315  0.00  0.00    +0.000 C 
BRANCH  20  22
ATOM     22  C   UNL     1       4.829   4.384  18.752  0.00  0.00    +0.000 C 
ATOM     23  O   UNL     1       5.100   3.470  19.548  0.00  0.00    +0.000 OA
BRANCH  22  28
ATOM     24  C   UNL     1       7.357   4.887  13.497  0.00  0.00    +0.000 C 
ATOM     25  C   UNL     1       6.717   4.735  14.846  0.00  0.00    +0.000 A 
ATOM     26  C   UNL     1       5.495   4.091  15.001  0.00  0.00    +0.000 A 
ATOM     27  C   UNL     1       4.908   3.966  16.269  0.00  0.00    +0.000 A 
ATOM     28  C   UNL     1       5.532   4.487  17.426  0.00  0.00    +0.000 A 
ATOM     29  C   UNL     1       6.779   5.137  17.275  0.00  0.00    +0.000 A 
ATOM     30  C   UNL     1       7.602   5.740  18.384  0.00  0.00    +0.000 C 
ATOM     31  C   UNL     1       7.347   5.250  15.983  0.00  0.00    +0.000 A 
ENDBRANCH  22  28
ENDBRANCH  20  22
ENDBRANCH   1  21
TORSDOF 4
ENDMDL
MODEL 6
REMARK VINA RESULT:      -8.8      0.991      1.345
REMARK  Name = 
REMARK  8 active torsions:
REMARK  status: ('A' for Active; 'I' for Inactive)
REMARK    1  A    between atoms: C_1  and  C_2
REMARK    2  A    between atoms: C_5  and  C_6
REMARK    3  A    between atoms: C_6  and  C_8
REMARK    4  A    between atoms: C_9  and  C_10
REMARK    5  A    between atoms: C_13  and  C_14
REMARK    6  A    between atoms: N_20  and  C_21
REMARK    7  A    between atoms: N_20  and  C_22
REMARK    8  A    between atoms: C_26  and  C_27
REMARK                            x       y       z     vdW  Elec       q    Type
REMARK                         _______ _______ _______ _____ _____    ______ ____
ROOT
ATOM      1  C   UNL     1       2.433   7.679  18.697  0.00  0.00    +0.000 A 
ATOM      2  C   UNL     1       2.117   8.658  17.747  0.00  0.00    +0.000 A 
ATOM      3  C   UNL     1       1.244   9.714  18.064  0.00  0.00    +0.000 A 
ATOM      4  C   UNL     1       0.674   9.779  19.339  0.00  0.00    +0.000 A 
ATOM      5  C   UNL     1       1.065   8.842  20.304  0.00  0.00    +0.000 A 
ATOM      6  C   UNL     1       1.928   7.795  19.995  0.00  0.00    +0.000 A 
ENDROOT
BRANCH   4   7
ATOM      7  C   UNL     1      -0.336  10.818  19.790  0.00  0.00    +0.000 C 
ATOM      8  N   UNL     1      -1.544  10.976  18.955  0.00  0.00    +0.000 NA
ATOM      9  C   UNL     1      -2.240  11.981  19.380  0.00  0.00    +0.000 C 
ATOM     10  N   UNL     1      -3.476  12.236  18.882  0.00  0.00    +0.000 N 
ATOM     11  N   UNL     1      -1.773  12.887  20.281  0.00  0.00    +0.000 N 
ATOM     12  C   UNL     1      -0.436  13.007  20.523  0.00  0.00    +0.000 C 
ATOM     13  N   UNL     1       0.059  14.152  21.109  0.00  0.00    +0.000 N 
ATOM     14  C   UNL     1      -0.686  15.322  21.535  0.00  0.00    +0.000 C 
ATOM     15  C   UNL     1       1.498  14.249  21.389  0.00  0.00    +0.000 C 
ATOM     16  N   UNL     1       0.362  12.048  20.173  0.00  0.00    +0.000 NA
ATOM     17  H   UNL     1      -3.861  11.436  18.386  0.00  0.00    +0.000 HD
ATOM     18  H   UNL     1      -4.155  12.718  19.452  0.00  0.00    +0.000 HD
ATOM     19  H   UNL     1      -2.384  13.631  20.545  0.00  0.00    +0.000 HD
ENDBRANCH   4   7
BRANCH   1  21
ATOM     20  C   UNL     1       3.524   5.562  19.230  0.00  0.00    +0.000 C 
ATOM     21  C   UNL     1       3.287   6.548  18.354  0.00  0.00    +0.000 C 
BRANCH  20  22
ATOM     22  C   UNL     1       4.472   4.467  18.882  0.00  0.00    +0.000 C 
ATOM     23  O   UNL     1       4.584   3.492  19.642  0.00  0.00    +0.000 OA
BRANCH  22  28
ATOM     24  C   UNL     1       7.350   4.884  13.803  0.00  0.00    +0.000 C 
ATOM     25  C   UNL     1       6.619   4.754  15.107  0.00  0.00    +0.000 A 
ATOM     26  C   UNL     1       5.353   4.183  15.175  0.00  0.00    +0.000 A 
ATOM     27  C   UNL     1       4.682   4.077  16.402  0.00  0.00    +0.000 A 
ATOM     28  C   UNL     1       5.261   4.545  17.604  0.00  0.00    +0.000 A 
ATOM     29  C   UNL     1       6.552   5.120  17.542  0.00  0.00    +0.000 A 
ATOM     30  C   UNL     1       7.338   5.658  18.709  0.00  0.00    +0.000 C 
ATOM     31  C   UNL     1       7.206   5.215  16.289  0.00  0.00    +0.000 A 
ENDBRANCH  22  28
ENDBRANCH  20  22
ENDBRANCH   1  21
TORSDOF 4
ENDMDL
MODEL 7
REMARK VINA RESULT:      -8.7      4.888     10.413
REMARK  Name = 
REMARK  8 active torsions:
REMARK  status: ('A' for Active; 'I' for Inactive)
REMARK    1  A    between atoms: C_1  and  C_2
REMARK    2  A    between atoms: C_5  and  C_6
REMARK    3  A    between atoms: C_6  and  C_8
REMARK    4  A    between atoms: C_9  and  C_10
REMARK    5  A    between atoms: C_13  and  C_14
REMARK    6  A    between atoms: N_20  and  C_21
REMARK    7  A    between atoms: N_20  and  C_22
REMARK    8  A    between atoms: C_26  and  C_27
REMARK                            x       y       z     vdW  Elec       q    Type
REMARK                         _______ _______ _______ _____ _____    ______ ____
ROOT
ATOM      1  C   UNL     1       1.247   9.245  18.983  0.00  0.00    +0.000 A 
ATOM      2  C   UNL     1       1.937   8.858  17.828  0.00  0.00    +0.000 A 
ATOM      3  C   UNL     1       2.755   7.715  17.825  0.00  0.00    +0.000 A 
ATOM      4  C   UNL     1       2.893   6.962  18.996  0.00  0.00    +0.000 A 
ATOM      5  C   UNL     1       2.131   7.312  20.119  0.00  0.00    +0.000 A 
ATOM      6  C   UNL     1       1.320   8.443  20.125  0.00  0.00    +0.000 A 
ENDROOT
BRANCH   4   7
ATOM      7  C   UNL     1       3.796   5.753  19.155  0.00  0.00    +0.000 C 
ATOM      8  N   UNL     1       5.178   5.887  18.653  0.00  0.00    +0.000 NA
ATOM      9  C   UNL     1       5.783   4.745  18.729  0.00  0.00    +0.000 C 
ATOM     10  N   UNL     1       7.113   4.641  18.480  0.00  0.00    +0.000 N 
ATOM     11  N   UNL     1       5.140   3.573  18.981  0.00  0.00    +0.000 N 
ATOM     12  C   UNL     1       3.790   3.467  18.816  0.00  0.00    +0.000 C 
ATOM     13  N   UNL     1       3.207   2.225  18.684  0.00  0.00    +0.000 N 
ATOM     14  C   UNL     1       3.865   0.932  18.698  0.00  0.00    +0.000 C 
ATOM     15  C   UNL     1       1.748   2.130  18.538  0.00  0.00    +0.000 C 
ATOM     16  N   UNL     1       3.070   4.543  18.759  0.00  0.00    +0.000 NA
ATOM     17  H   UNL     1       7.580   5.544  18.507  0.00  0.00    +0.000 HD
ATOM     18  H   UNL     1       7.646   3.901  18.913  0.00  0.00    +0.000 HD
ATOM     19  H   UNL     1       5.693   2.743  19.017  0.00  0.00    +0.000 HD
ENDBRANCH   4   7
BRANCH   1  21
ATOM     20  C   UNL     1      -0.676  10.577  18.288  0.00  0.00    +0.000 C 
ATOM     21  C   UNL     1       0.448  10.464  19.009  0.00  0.00    +0.000 C 
BRANCH  20  22
ATOM     22  C   UNL     1      -1.421  11.866  18.266  0.00  0.00    +0.000 C 
ATOM     23  O   UNL     1      -0.806  12.922  18.044  0.00  0.00    +0.000 OA
BRANCH  22  28
ATOM     24  C   UNL     1      -7.213  11.638  19.071  0.00  0.00    +0.000 C 
ATOM     25  C   UNL     1      -5.731  11.717  18.852  0.00  0.00    +0.000 A 
ATOM     26  C   UNL     1      -5.145  11.240  17.684  0.00  0.00    +0.000 A 
ATOM     27  C   UNL     1      -3.756  11.315  17.500  0.00  0.00    +0.000 A 
ATOM     28  C   UNL     1      -2.909  11.870  18.485  0.00  0.00    +0.000 A 
ATOM     29  C   UNL     1      -3.500  12.363  19.672  0.00  0.00    +0.000 A 
ATOM     30  C   UNL     1      -2.771  13.002  20.825  0.00  0.00    +0.000 C 
ATOM     31  C   UNL     1      -4.905  12.273  19.832  0.00  0.00    +0.000 A 
ENDBRANCH  22  28
ENDBRANCH  20  22
ENDBRANCH   1  21
TORSDOF 4
ENDMDL
MODEL 8
REMARK VINA RESULT:      -8.7      0.561      1.362
REMARK  Name = 
REMARK  8 active torsions:
REMARK  status: ('A' for Active; 'I' for Inactive)
REMARK    1  A    between atoms: C_1  and  C_2
REMARK    2  A    between atoms: C_5  and  C_6
REMARK    3  A    between atoms: C_6  and  C_8
REMARK    4  A    between atoms: C_9  and  C_10
REMARK    5  A    between atoms: C_13  and  C_14
REMARK    6  A    between atoms: N_20  and  C_21
REMARK    7  A    between atoms: N_20  and  C_22
REMARK    8  A    between atoms: C_26  and  C_27
REMARK                            x       y       z     vdW  Elec       q    Type
REMARK                         _______ _______ _______ _____ _____    ______ ____
ROOT
ATOM      1  C   UNL     1       2.320   7.691  18.719  0.00  0.00    +0.000 A 
ATOM      2  C   UNL     1       1.845   7.882  20.022  0.00  0.00    +0.000 A 
ATOM      3  C   UNL     1       1.013   8.972  20.334  0.00  0.00    +0.000 A 
ATOM      4  C   UNL     1       0.666   9.885  19.333  0.00  0.00    +0.000 A 
ATOM      5  C   UNL     1       1.079   9.635  18.017  0.00  0.00    +0.000 A 
ATOM      6  C   UNL     1       1.902   8.557  17.704  0.00  0.00    +0.000 A 
ENDROOT
BRANCH   4   7
ATOM      7  C   UNL     1      -0.160  11.139  19.545  0.00  0.00    +0.000 C 
ATOM      8  N   UNL     1      -1.587  11.065  19.170  0.00  0.00    +0.000 NA
ATOM      9  C   UNL     1      -2.128  12.237  19.274  0.00  0.00    +0.000 C 
ATOM     10  N   UNL     1      -3.468  12.402  19.142  0.00  0.00    +0.000 N 
ATOM     11  N   UNL     1      -1.409  13.379  19.443  0.00  0.00    +0.000 N 
ATOM     12  C   UNL     1      -0.076  13.416  19.157  0.00  0.00    +0.000 C 
ATOM     13  N   UNL     1       0.551  14.625  18.946  0.00  0.00    +0.000 N 
ATOM     14  C   UNL     1      -0.041  15.949  18.990  0.00  0.00    +0.000 C 
ATOM     15  C   UNL     1       1.994  14.645  18.670  0.00  0.00    +0.000 C 
ATOM     16  N   UNL     1       0.584  12.305  19.060  0.00  0.00    +0.000 NA
ATOM     17  H   UNL     1      -3.973  11.523  19.230  0.00  0.00    +0.000 HD
ATOM     18  H   UNL     1      -3.924  13.175  19.604  0.00  0.00    +0.000 HD
ATOM     19  H   UNL     1      -1.917  14.236  19.509  0.00  0.00    +0.000 HD
ENDBRANCH   4   7
BRANCH   1  21
ATOM     20  C   UNL     1       3.988   6.027  19.351  0.00  0.00    +0.000 C 
ATOM     21  C   UNL     1       3.234   6.600  18.404  0.00  0.00    +0.000 C 
BRANCH  20  22
ATOM     22  C   UNL     1       4.977   4.976  18.982  0.00  0.00    +0.000 C 
ATOM     23  O   UNL     1       5.451   4.246  19.867  0.00  0.00    +0.000 OA
BRANCH  22  28
ATOM     24  C   UNL     1       6.729   4.206  13.451  0.00  0.00    +0.000 C 
ATOM     25  C   UNL     1       6.270   4.425  14.863  0.00  0.00    +0.000 A 
ATOM     26  C   UNL     1       6.989   5.225  15.743  0.00  0.00    +0.000 A 
ATOM     27  C   UNL     1       6.549   5.412  17.062  0.00  0.00    +0.000 A 
ATOM     28  C   UNL     1       5.369   4.797  17.541  0.00  0.00    +0.000 A 
ATOM     29  C   UNL     1       4.630   3.988  16.647  0.00  0.00    +0.000 A 
ATOM     30  C   UNL     1       3.346   3.265  16.964  0.00  0.00    +0.000 C 
ATOM     31  C   UNL     1       5.099   3.816  15.322  0.00  0.00    +0.000 A 
ENDBRANCH  22  28
ENDBRANCH  20  22
ENDBRANCH   1  21
TORSDOF 4
ENDMDL
MODEL 9
REMARK VINA RESULT:      -8.7      5.733      7.772
REMARK  Name = 
REMARK  8 active torsions:
REMARK  status: ('A' for Active; 'I' for Inactive)
REMARK    1  A    between atoms: C_1  and  C_2
REMARK    2  A    between atoms: C_5  and  C_6
REMARK    3  A    between atoms: C_6  and  C_8
REMARK    4  A    between atoms: C_9  and  C_10
REMARK    5  A    between atoms: C_13  and  C_14
REMARK    6  A    between atoms: N_20  and  C_21
REMARK    7  A    between atoms: N_20  and  C_22
REMARK    8  A    between atoms: C_26  and  C_27
REMARK                            x       y       z     vdW  Elec       q    Type
REMARK                         _______ _______ _______ _____ _____    ______ ____
ROOT
ATOM      1  C   UNL     1       8.492   8.914  18.512  0.00  0.00    +0.000 A 
ATOM      2  C   UNL     1       9.412   9.585  19.326  0.00  0.00    +0.000 A 
ATOM      3  C   UNL     1       9.718  10.940  19.104  0.00  0.00    +0.000 A 
ATOM      4  C   UNL     1       9.107  11.621  18.046  0.00  0.00    +0.000 A 
ATOM      5  C   UNL     1       8.127  10.961  17.292  0.00  0.00    +0.000 A 
ATOM      6  C   UNL     1       7.821   9.621  17.510  0.00  0.00    +0.000 A 
ENDROOT
BRANCH   4   7
ATOM      7  C   UNL     1       9.398  13.055  17.648  0.00  0.00    +0.000 C 
ATOM      8  N   UNL     1      10.809  13.395  17.375  0.00  0.00    +0.000 NA
ATOM      9  C   UNL     1      10.923  14.671  17.185  0.00  0.00    +0.000 C 
ATOM     10  N   UNL     1      12.091  15.212  16.757  0.00  0.00    +0.000 N 
ATOM     11  N   UNL     1       9.932  15.559  17.465  0.00  0.00    +0.000 N 
ATOM     12  C   UNL     1       8.900  15.219  18.288  0.00  0.00    +0.000 C 
ATOM     13  N   UNL     1       8.135  16.203  18.878  0.00  0.00    +0.000 N 
ATOM     14  C   UNL     1       8.279  17.640  18.738  0.00  0.00    +0.000 C 
ATOM     15  C   UNL     1       7.009  15.816  19.738  0.00  0.00    +0.000 C 
ATOM     16  N   UNL     1       8.664  13.968  18.529  0.00  0.00    +0.000 NA
ATOM     17  H   UNL     1      12.717  14.512  16.366  0.00  0.00    +0.000 HD
ATOM     18  H   UNL     1      12.080  16.076  16.236  0.00  0.00    +0.000 HD
ATOM     19  H   UNL     1      10.116  16.524  17.287  0.00  0.00    +0.000 HD
ENDBRANCH   4   7
BRANCH   1  21
ATOM     20  C   UNL     1       7.505   6.798  17.804  0.00  0.00    +0.000 C 
ATOM     21  C   UNL     1       8.219   7.495  18.699  0.00  0.00    +0.000 C 
BRANCH  20  22
ATOM     22  C   UNL     1       7.167   5.371  18.068  0.00  0.00    +0.000 C 
ATOM     23  O   UNL     1       8.076   4.566  18.326  0.00  0.00    +0.000 OA
BRANCH  22  28
ATOM     24  C   UNL     1       1.504   3.892  18.035  0.00  0.00    +0.000 C 
ATOM     25  C   UNL     1       2.961   4.251  18.056  0.00  0.00    +0.000 A 
ATOM     26  C   UNL     1       3.535   4.886  19.152  0.00  0.00    +0.000 A 
ATOM     27  C   UNL     1       4.897   5.222  19.151  0.00  0.00    +0.000 A 
ATOM     28  C   UNL     1       5.728   4.931  18.045  0.00  0.00    +0.000 A 
ATOM     29  C   UNL     1       5.151   4.279  16.931  0.00  0.00    +0.000 A 
ATOM     30  C   UNL     1       5.873   3.874  15.671  0.00  0.00    +0.000 C 
ATOM     31  C   UNL     1       3.773   3.954  16.959  0.00  0.00    +0.000 A 
ENDBRANCH  22  28
ENDBRANCH  20  22
ENDBRANCH   1  21
TORSDOF 4
ENDMDL
