MODEL 1
REMARK VINA RESULT:      -8.1      0.000      0.000
REMARK  Name = 
REMARK  4 active torsions:
REMARK  status: ('A' for Active; 'I' for Inactive)
REMARK    1  A    between atoms: C_1  and  C_2
REMARK    2  A    between atoms: N_4  and  C_5
REMARK    3  A    between atoms: C_13  and  N_14
REMARK    4  A    between atoms: C_18  and  C_19
REMARK                            x       y       z     vdW  Elec       q    Type
REMARK                         _______ _______ _______ _____ _____    ______ ____
ROOT
ATOM      1  C   UNL     1       4.509   5.550  18.363  0.00  0.00    +0.000 C 
ATOM      2  C   UNL     1       3.702   5.943  19.622  0.00  0.00    +0.000 C 
ATOM      3  C   UNL     1       2.886   4.716  19.878  0.00  0.00    +0.000 A 
ATOM      4  C   UNL     1       1.799   4.598  20.731  0.00  0.00    +0.000 A 
ATOM      5  C   UNL     1       1.209   3.342  20.884  0.00  0.00    +0.000 A 
ATOM      6  C   UNL     1       1.717   2.228  20.199  0.00  0.00    +0.000 A 
ATOM      7  C   UNL     1       2.819   2.356  19.348  0.00  0.00    +0.000 A 
ATOM      8  C   UNL     1       3.391   3.610  19.185  0.00  0.00    +0.000 A 
ATOM      9  C   UNL     1       4.606   3.985  18.377  0.00  0.00    +0.000 C 
ENDROOT
BRANCH   9  10
ATOM     10  N   UNL     1       4.543   3.410  17.040  0.00  0.00    +0.000 N 
ATOM     11  C   UNL     1       5.503   3.730  16.157  0.00  0.00    +0.000 A 
ATOM     12  N   UNL     1       6.720   4.189  16.350  0.00  0.00    +0.000 NA
ATOM     13  N   UNL     1       7.272   4.364  15.100  0.00  0.00    +0.000 NA
ATOM     14  C   UNL     1       6.344   4.020  14.227  0.00  0.00    +0.000 A 
ATOM     15  O   UNL     1       5.185   3.610  14.835  0.00  0.00    +0.000 OA
ATOM     16  H   UNL     1       3.610   3.272  16.672  0.00  0.00    +0.000 HD
BRANCH  14  17
ATOM     17  C   UNL     1       6.572   4.093  12.725  0.00  0.00    +0.000 C 
ATOM     18  C   UNL     1       6.795   2.813  11.945  0.00  0.00    +0.000 C 
ATOM     19  C   UNL     1       5.507   3.546  11.796  0.00  0.00    +0.000 C 
ENDBRANCH  14  17
ENDBRANCH   9  10
BRANCH   1  23
ATOM     20  C   UNL     1       7.573   7.528  17.323  0.00  0.00    +0.000 C 
ATOM     21  C   UNL     1       6.160   7.019  17.254  0.00  0.00    +0.000 C 
ATOM     22  O   UNL     1       5.393   7.319  16.345  0.00  0.00    +0.000 OA
ATOM     23  N   UNL     1       5.817   6.205  18.305  0.00  0.00    +0.000 N 
ATOM     24  H   UNL     1       6.578   5.779  18.831  0.00  0.00    +0.000 HD
ENDBRANCH   1  23
TORSDOF 3
ENDMDL
MODEL 2
REMARK VINA RESULT:      -8.0      1.079      1.079
REMARK  Name = 
REMARK  4 active torsions:
REMARK  status: ('A' for Active; 'I' for Inactive)
REMARK    1  A    between atoms: C_1  and  C_2
REMARK    2  A    between atoms: N_4  and  C_5
REMARK    3  A    between atoms: C_13  and  N_14
REMARK    4  A    between atoms: C_18  and  C_19
REMARK                            x       y       z     vdW  Elec       q    Type
REMARK                         _______ _______ _______ _____ _____    ______ ____
ROOT
ATOM      1  C   UNL     1       4.492   5.620  18.147  0.00  0.00    +0.000 C 
ATOM      2  C   UNL     1       3.731   6.084  19.410  0.00  0.00    +0.000 C 
ATOM      3  C   UNL     1       2.948   4.865  19.781  0.00  0.00    +0.000 A 
ATOM      4  C   UNL     1       1.899   4.788  20.685  0.00  0.00    +0.000 A 
ATOM      5  C   UNL     1       1.339   3.537  20.946  0.00  0.00    +0.000 A 
ATOM      6  C   UNL     1       1.838   2.387  20.316  0.00  0.00    +0.000 A 
ATOM      7  C   UNL     1       2.901   2.474  19.412  0.00  0.00    +0.000 A 
ATOM      8  C   UNL     1       3.444   3.723  19.142  0.00  0.00    +0.000 A 
ATOM      9  C   UNL     1       4.618   4.061  18.261  0.00  0.00    +0.000 C 
ENDROOT
BRANCH   9  10
ATOM     10  N   UNL     1       4.510   3.397  16.968  0.00  0.00    +0.000 N 
ATOM     11  C   UNL     1       5.404   3.700  16.013  0.00  0.00    +0.000 A 
ATOM     12  N   UNL     1       6.607   4.224  16.108  0.00  0.00    +0.000 NA
ATOM     13  N   UNL     1       7.082   4.340  14.819  0.00  0.00    +0.000 NA
ATOM     14  C   UNL     1       6.125   3.899  14.024  0.00  0.00    +0.000 A 
ATOM     15  O   UNL     1       5.021   3.479  14.722  0.00  0.00    +0.000 OA
ATOM     16  H   UNL     1       3.566   3.194  16.663  0.00  0.00    +0.000 HD
BRANCH  14  17
ATOM     17  C   UNL     1       6.268   3.882  12.510  0.00  0.00    +0.000 C 
ATOM     18  C   UNL     1       6.520   2.566  11.802  0.00  0.00    +0.000 C 
ATOM     19  C   UNL     1       5.187   3.220  11.681  0.00  0.00    +0.000 C 
ENDBRANCH  14  17
ENDBRANCH   9  10
BRANCH   1  23
ATOM     20  C   UNL     1       8.039   6.886  18.593  0.00  0.00    +0.000 C 
ATOM     21  C   UNL     1       6.823   6.042  18.857  0.00  0.00    +0.000 C 
ATOM     22  O   UNL     1       6.778   5.211  19.757  0.00  0.00    +0.000 OA
ATOM     23  N   UNL     1       5.785   6.288  17.991  0.00  0.00    +0.000 N 
ATOM     24  H   UNL     1       5.798   7.174  17.489  0.00  0.00    +0.000 HD
ENDBRANCH   1  23
TORSDOF 3
ENDMDL
MODEL 3
REMARK VINA RESULT:      -7.9      1.801      6.412
REMARK  Name = 
REMARK  4 active torsions:
REMARK  status: ('A' for Active; 'I' for Inactive)
REMARK    1  A    between atoms: C_1  and  C_2
REMARK    2  A    between atoms: N_4  and  C_5
REMARK    3  A    between atoms: C_13  and  N_14
REMARK    4  A    between atoms: C_18  and  C_19
REMARK                            x       y       z     vdW  Elec       q    Type
REMARK                         _______ _______ _______ _____ _____    ______ ____
ROOT
ATOM      1  C   UNL     1       7.071   4.793  15.576  0.00  0.00    +0.000 C 
ATOM      2  C   UNL     1       7.777   4.846  14.201  0.00  0.00    +0.000 C 
ATOM      3  C   UNL     1       6.776   4.195  13.300  0.00  0.00    +0.000 A 
ATOM      4  C   UNL     1       6.986   3.745  12.005  0.00  0.00    +0.000 A 
ATOM      5  C   UNL     1       5.900   3.225  11.300  0.00  0.00    +0.000 A 
ATOM      6  C   UNL     1       4.628   3.172  11.887  0.00  0.00    +0.000 A 
ATOM      7  C   UNL     1       4.425   3.635  13.191  0.00  0.00    +0.000 A 
ATOM      8  C   UNL     1       5.511   4.136  13.895  0.00  0.00    +0.000 A 
ATOM      9  C   UNL     1       5.532   4.740  15.275  0.00  0.00    +0.000 C 
ENDROOT
BRANCH   9  10
ATOM     10  N   UNL     1       4.807   3.905  16.223  0.00  0.00    +0.000 N 
ATOM     11  C   UNL     1       4.127   4.500  17.216  0.00  0.00    +0.000 A 
ATOM     12  N   UNL     1       3.670   5.729  17.318  0.00  0.00    +0.000 NA
ATOM     13  N   UNL     1       3.063   5.816  18.552  0.00  0.00    +0.000 NA
ATOM     14  C   UNL     1       3.212   4.639  19.129  0.00  0.00    +0.000 A 
ATOM     15  O   UNL     1       3.888   3.750  18.332  0.00  0.00    +0.000 OA
ATOM     16  H   UNL     1       5.241   3.014  16.435  0.00  0.00    +0.000 HD
BRANCH  14  17
ATOM     17  C   UNL     1       2.684   4.343  20.524  0.00  0.00    +0.000 C 
ATOM     18  C   UNL     1       1.259   3.856  20.692  0.00  0.00    +0.000 C 
ATOM     19  C   UNL     1       2.388   2.907  20.905  0.00  0.00    +0.000 C 
ENDBRANCH  14  17
ENDBRANCH   9  10
BRANCH   1  23
ATOM     20  C   UNL     1       7.855   7.026  18.539  0.00  0.00    +0.000 C 
ATOM     21  C   UNL     1       7.550   5.749  17.805  0.00  0.00    +0.000 C 
ATOM     22  O   UNL     1       7.419   4.673  18.377  0.00  0.00    +0.000 OA
ATOM     23  N   UNL     1       7.445   5.910  16.445  0.00  0.00    +0.000 N 
ATOM     24  H   UNL     1       7.271   6.852  16.100  0.00  0.00    +0.000 HD
ENDBRANCH   1  23
TORSDOF 3
ENDMDL
MODEL 4
REMARK VINA RESULT:      -7.7      1.575      1.762
REMARK  Name = 
REMARK  4 active torsions:
REMARK  status: ('A' for Active; 'I' for Inactive)
REMARK    1  A    between atoms: C_1  and  C_2
REMARK    2  A    between atoms: N_4  and  C_5
REMARK    3  A    between atoms: C_13  and  N_14
REMARK    4  A    between atoms: C_18  and  C_19
REMARK                            x       y       z     vdW  Elec       q    Type
REMARK                         _______ _______ _______ _____ _____    ______ ____
ROOT
ATOM      1  C   UNL     1       5.239   6.028  17.579  0.00  0.00    +0.000 C 
ATOM      2  C   UNL     1       3.809   6.279  18.110  0.00  0.00    +0.000 C 
ATOM      3  C   UNL     1       3.183   4.925  18.003  0.00  0.00    +0.000 A 
ATOM      4  C   UNL     1       1.835   4.617  18.103  0.00  0.00    +0.000 A 
ATOM      5  C   UNL     1       1.454   3.276  18.042  0.00  0.00    +0.000 A 
ATOM      6  C   UNL     1       2.418   2.267  17.898  0.00  0.00    +0.000 A 
ATOM      7  C   UNL     1       3.776   2.588  17.807  0.00  0.00    +0.000 A 
ATOM      8  C   UNL     1       4.148   3.924  17.849  0.00  0.00    +0.000 A 
ATOM      9  C   UNL     1       5.537   4.508  17.828  0.00  0.00    +0.000 C 
ENDROOT
BRANCH   9  10
ATOM     10  N   UNL     1       6.338   3.916  16.765  0.00  0.00    +0.000 N 
ATOM     11  C   UNL     1       6.026   4.199  15.490  0.00  0.00    +0.000 A 
ATOM     12  N   UNL     1       5.349   5.205  14.982  0.00  0.00    +0.000 NA
ATOM     13  N   UNL     1       5.308   4.996  13.620  0.00  0.00    +0.000 NA
ATOM     14  C   UNL     1       5.945   3.863  13.394  0.00  0.00    +0.000 A 
ATOM     15  O   UNL     1       6.426   3.297  14.547  0.00  0.00    +0.000 OA
ATOM     16  H   UNL     1       6.689   2.985  16.955  0.00  0.00    +0.000 HD
BRANCH  14  17
ATOM     17  C   UNL     1       6.100   3.281  11.997  0.00  0.00    +0.000 C 
ATOM     18  C   UNL     1       5.799   1.815  11.765  0.00  0.00    +0.000 C 
ATOM     19  C   UNL     1       4.860   2.846  11.244  0.00  0.00    +0.000 C 
ENDBRANCH  14  17
ENDBRANCH   9  10
BRANCH   1  23
ATOM     20  C   UNL     1       8.338   8.065  18.371  0.00  0.00    +0.000 C 
ATOM     21  C   UNL     1       7.407   7.217  17.551  0.00  0.00    +0.000 C 
ATOM     22  O   UNL     1       7.680   6.845  16.415  0.00  0.00    +0.000 OA
ATOM     23  N   UNL     1       6.231   6.913  18.192  0.00  0.00    +0.000 N 
ATOM     24  H   UNL     1       6.218   7.001  19.206  0.00  0.00    +0.000 HD
ENDBRANCH   1  23
TORSDOF 3
ENDMDL
MODEL 5
REMARK VINA RESULT:      -7.7      3.615      7.239
REMARK  Name = 
REMARK  4 active torsions:
REMARK  status: ('A' for Active; 'I' for Inactive)
REMARK    1  A    between atoms: C_1  and  C_2
REMARK    2  A    between atoms: N_4  and  C_5
REMARK    3  A    between atoms: C_13  and  N_14
REMARK    4  A    between atoms: C_18  and  C_19
REMARK                            x       y       z     vdW  Elec       q    Type
REMARK                         _______ _______ _______ _____ _____    ______ ____
ROOT
ATOM      1  C   UNL     1       2.611   4.807  17.750  0.00  0.00    +0.000 C 
ATOM      2  C   UNL     1       3.422   3.634  17.153  0.00  0.00    +0.000 C 
ATOM      3  C   UNL     1       4.676   4.310  16.695  0.00  0.00    +0.000 A 
ATOM      4  C   UNL     1       5.650   3.786  15.860  0.00  0.00    +0.000 A 
ATOM      5  C   UNL     1       6.787   4.553  15.604  0.00  0.00    +0.000 A 
ATOM      6  C   UNL     1       6.940   5.818  16.191  0.00  0.00    +0.000 A 
ATOM      7  C   UNL     1       5.956   6.334  17.039  0.00  0.00    +0.000 A 
ATOM      8  C   UNL     1       4.819   5.574  17.277  0.00  0.00    +0.000 A 
ATOM      9  C   UNL     1       3.661   5.886  18.188  0.00  0.00    +0.000 C 
ENDROOT
BRANCH   9  10
ATOM     10  N   UNL     1       3.182   7.247  17.980  0.00  0.00    +0.000 N 
ATOM     11  C   UNL     1       2.364   7.789  18.896  0.00  0.00    +0.000 A 
ATOM     12  N   UNL     1       2.173   7.475  20.159  0.00  0.00    +0.000 NA
ATOM     13  N   UNL     1       1.208   8.338  20.632  0.00  0.00    +0.000 NA
ATOM     14  C   UNL     1       0.861   9.106  19.617  0.00  0.00    +0.000 A 
ATOM     15  O   UNL     1       1.557   8.805  18.474  0.00  0.00    +0.000 OA
ATOM     16  H   UNL     1       3.023   7.506  17.014  0.00  0.00    +0.000 HD
BRANCH  14  17
ATOM     17  C   UNL     1      -0.203  10.187  19.740  0.00  0.00    +0.000 C 
ATOM     18  C   UNL     1       0.126  11.605  19.319  0.00  0.00    +0.000 C 
ATOM     19  C   UNL     1      -0.789  10.784  18.477  0.00  0.00    +0.000 C 
ENDBRANCH  14  17
ENDBRANCH   9  10
BRANCH   1  23
ATOM     20  C   UNL     1       1.167   3.295  20.914  0.00  0.00    +0.000 C 
ATOM     21  C   UNL     1       2.229   3.725  19.941  0.00  0.00    +0.000 C 
ATOM     22  O   UNL     1       3.421   3.510  20.126  0.00  0.00    +0.000 OA
ATOM     23  N   UNL     1       1.732   4.386  18.844  0.00  0.00    +0.000 N 
ATOM     24  H   UNL     1       0.746   4.256  18.629  0.00  0.00    +0.000 HD
ENDBRANCH   1  23
TORSDOF 3
ENDMDL
MODEL 6
REMARK VINA RESULT:      -7.5      1.924      5.180
REMARK  Name = 
REMARK  4 active torsions:
REMARK  status: ('A' for Active; 'I' for Inactive)
REMARK    1  A    between atoms: C_1  and  C_2
REMARK    2  A    between atoms: N_4  and  C_5
REMARK    3  A    between atoms: C_13  and  N_14
REMARK    4  A    between atoms: C_18  and  C_19
REMARK                            x       y       z     vdW  Elec       q    Type
REMARK                         _______ _______ _______ _____ _____    ______ ____
ROOT
ATOM      1  C   UNL     1       5.587   4.582  16.267  0.00  0.00    +0.000 C 
ATOM      2  C   UNL     1       4.779   3.667  17.215  0.00  0.00    +0.000 C 
ATOM      3  C   UNL     1       4.071   4.653  18.088  0.00  0.00    +0.000 A 
ATOM      4  C   UNL     1       3.406   4.391  19.276  0.00  0.00    +0.000 A 
ATOM      5  C   UNL     1       2.745   5.443  19.913  0.00  0.00    +0.000 A 
ATOM      6  C   UNL     1       2.746   6.729  19.352  0.00  0.00    +0.000 A 
ATOM      7  C   UNL     1       3.413   6.981  18.149  0.00  0.00    +0.000 A 
ATOM      8  C   UNL     1       4.083   5.935  17.529  0.00  0.00    +0.000 A 
ATOM      9  C   UNL     1       4.816   5.946  16.213  0.00  0.00    +0.000 C 
ENDROOT
BRANCH   9  10
ATOM     10  N   UNL     1       5.712   7.091  16.121  0.00  0.00    +0.000 N 
ATOM     11  C   UNL     1       6.685   7.221  17.038  0.00  0.00    +0.000 A 
ATOM     12  N   UNL     1       7.242   6.324  17.822  0.00  0.00    +0.000 NA
ATOM     13  N   UNL     1       8.174   6.998  18.582  0.00  0.00    +0.000 NA
ATOM     14  C   UNL     1       8.105   8.266  18.224  0.00  0.00    +0.000 A 
ATOM     15  O   UNL     1       7.169   8.480  17.244  0.00  0.00    +0.000 OA
ATOM     16  H   UNL     1       5.291   7.945  15.777  0.00  0.00    +0.000 HD
BRANCH  14  17
ATOM     17  C   UNL     1       8.978   9.339  18.857  0.00  0.00    +0.000 C 
ATOM     18  C   UNL     1       9.638  10.377  17.972  0.00  0.00    +0.000 C 
ATOM     19  C   UNL     1       8.497  10.776  18.842  0.00  0.00    +0.000 C 
ENDBRANCH  14  17
ENDBRANCH   9  10
BRANCH   1  23
ATOM     20  C   UNL     1       6.758   3.781  12.749  0.00  0.00    +0.000 C 
ATOM     21  C   UNL     1       6.759   4.456  14.093  0.00  0.00    +0.000 C 
ATOM     22  O   UNL     1       7.561   5.334  14.390  0.00  0.00    +0.000 OA
ATOM     23  N   UNL     1       5.790   3.986  14.945  0.00  0.00    +0.000 N 
ATOM     24  H   UNL     1       5.003   3.493  14.527  0.00  0.00    +0.000 HD
ENDBRANCH   1  23
TORSDOF 3
ENDMDL
MODEL 7
REMARK VINA RESULT:      -7.4      1.874      6.177
REMARK  Name = 
REMARK  4 active torsions:
REMARK  status: ('A' for Active; 'I' for Inactive)
REMARK    1  A    between atoms: C_1  and  C_2
REMARK    2  A    between atoms: N_4  and  C_5
REMARK    3  A    between atoms: C_13  and  N_14
REMARK    4  A    between atoms: C_18  and  C_19
REMARK                            x       y       z     vdW  Elec       q    Type
REMARK                         _______ _______ _______ _____ _____    ______ ____
ROOT
ATOM      1  C   UNL     1       5.295   4.960  15.579  0.00  0.00    +0.000 C 
ATOM      2  C   UNL     1       6.076   6.282  15.398  0.00  0.00    +0.000 C 
ATOM      3  C   UNL     1       6.784   6.420  16.709  0.00  0.00    +0.000 A 
ATOM      4  C   UNL     1       7.426   7.547  17.197  0.00  0.00    +0.000 A 
ATOM      5  C   UNL     1       8.091   7.454  18.420  0.00  0.00    +0.000 A 
ATOM      6  C   UNL     1       8.117   6.243  19.128  0.00  0.00    +0.000 A 
ATOM      7  C   UNL     1       7.473   5.109  18.622  0.00  0.00    +0.000 A 
ATOM      8  C   UNL     1       6.798   5.211  17.414  0.00  0.00    +0.000 A 
ATOM      9  C   UNL     1       6.087   4.127  16.647  0.00  0.00    +0.000 C 
ENDROOT
BRANCH   9  10
ATOM     10  N   UNL     1       5.208   3.359  17.519  0.00  0.00    +0.000 N 
ATOM     11  C   UNL     1       4.153   3.977  18.074  0.00  0.00    +0.000 A 
ATOM     12  N   UNL     1       3.519   5.072  17.714  0.00  0.00    +0.000 NA
ATOM     13  N   UNL     1       2.522   5.268  18.645  0.00  0.00    +0.000 NA
ATOM     14  C   UNL     1       2.630   4.290  19.524  0.00  0.00    +0.000 A 
ATOM     15  O   UNL     1       3.656   3.431  19.223  0.00  0.00    +0.000 OA
ATOM     16  H   UNL     1       5.664   2.646  18.074  0.00  0.00    +0.000 HD
BRANCH  14  17
ATOM     17  C   UNL     1       1.706   4.170  20.726  0.00  0.00    +0.000 C 
ATOM     18  C   UNL     1       0.942   2.881  20.949  0.00  0.00    +0.000 C 
ATOM     19  C   UNL     1       2.082   3.221  21.846  0.00  0.00    +0.000 C 
ENDBRANCH  14  17
ENDBRANCH   9  10
BRANCH   1  23
ATOM     20  C   UNL     1       5.757   3.328  12.187  0.00  0.00    +0.000 C 
ATOM     21  C   UNL     1       6.160   3.999  13.471  0.00  0.00    +0.000 C 
ATOM     22  O   UNL     1       7.323   4.288  13.729  0.00  0.00    +0.000 OA
ATOM     23  N   UNL     1       5.106   4.240  14.318  0.00  0.00    +0.000 N 
ATOM     24  H   UNL     1       4.173   4.246  13.910  0.00  0.00    +0.000 HD
ENDBRANCH   1  23
TORSDOF 3
ENDMDL
MODEL 8
REMARK VINA RESULT:      -7.2      3.497      6.272
REMARK  Name = 
REMARK  4 active torsions:
REMARK  status: ('A' for Active; 'I' for Inactive)
REMARK    1  A    between atoms: C_1  and  C_2
REMARK    2  A    between atoms: N_4  and  C_5
REMARK    3  A    between atoms: C_13  and  N_14
REMARK    4  A    between atoms: C_18  and  C_19
REMARK                            x       y       z     vdW  Elec       q    Type
REMARK                         _______ _______ _______ _____ _____    ______ ____
ROOT
ATOM      1  C   UNL     1       4.870   5.537  18.516  0.00  0.00    +0.000 C 
ATOM      2  C   UNL     1       5.153   4.075  18.099  0.00  0.00    +0.000 C 
ATOM      3  C   UNL     1       3.815   3.428  18.265  0.00  0.00    +0.000 A 
ATOM      4  C   UNL     1       3.539   2.069  18.274  0.00  0.00    +0.000 A 
ATOM      5  C   UNL     1       2.207   1.663  18.373  0.00  0.00    +0.000 A 
ATOM      6  C   UNL     1       1.177   2.612  18.448  0.00  0.00    +0.000 A 
ATOM      7  C   UNL     1       1.465   3.980  18.430  0.00  0.00    +0.000 A 
ATOM      8  C   UNL     1       2.792   4.379  18.349  0.00  0.00    +0.000 A 
ATOM      9  C   UNL     1       3.343   5.778  18.256  0.00  0.00    +0.000 C 
ENDROOT
BRANCH   9  10
ATOM     10  N   UNL     1       2.737   6.647  19.256  0.00  0.00    +0.000 N 
ATOM     11  C   UNL     1       2.115   7.764  18.846  0.00  0.00    +0.000 A 
ATOM     12  N   UNL     1       1.614   8.078  17.671  0.00  0.00    +0.000 NA
ATOM     13  N   UNL     1       1.108   9.354  17.793  0.00  0.00    +0.000 NA
ATOM     14  C   UNL     1       1.356   9.740  19.030  0.00  0.00    +0.000 A 
ATOM     15  O   UNL     1       2.003   8.774  19.757  0.00  0.00    +0.000 OA
ATOM     16  H   UNL     1       3.226   6.695  20.141  0.00  0.00    +0.000 HD
BRANCH  14  17
ATOM     17  C   UNL     1       0.960  11.114  19.549  0.00  0.00    +0.000 C 
ATOM     18  C   UNL     1      -0.446  11.335  20.068  0.00  0.00    +0.000 C 
ATOM     19  C   UNL     1       0.690  11.288  21.030  0.00  0.00    +0.000 C 
ENDBRANCH  14  17
ENDBRANCH   9  10
BRANCH   1  23
ATOM     20  C   UNL     1       7.736   7.766  17.420  0.00  0.00    +0.000 C 
ATOM     21  C   UNL     1       7.040   6.675  18.187  0.00  0.00    +0.000 C 
ATOM     22  O   UNL     1       7.605   6.009  19.047  0.00  0.00    +0.000 OA
ATOM     23  N   UNL     1       5.728   6.498  17.821  0.00  0.00    +0.000 N 
ATOM     24  H   UNL     1       5.273   7.267  17.335  0.00  0.00    +0.000 HD
ENDBRANCH   1  23
TORSDOF 3
ENDMDL
MODEL 9
REMARK VINA RESULT:      -7.2      1.590      4.462
REMARK  Name = 
REMARK  4 active torsions:
REMARK  status: ('A' for Active; 'I' for Inactive)
REMARK    1  A    between atoms: C_1  and  C_2
REMARK    2  A    between atoms: N_4  and  C_5
REMARK    3  A    between atoms: C_13  and  N_14
REMARK    4  A    between atoms: C_18  and  C_19
REMARK                            x       y       z     vdW  Elec       q    Type
REMARK                         _______ _______ _______ _____ _____    ______ ____
ROOT
ATOM      1  C   UNL     1       4.442   3.325  17.371  0.00  0.00    +0.000 C 
ATOM      2  C   UNL     1       3.337   2.254  17.519  0.00  0.00    +0.000 C 
ATOM      3  C   UNL     1       2.574   2.741  18.711  0.00  0.00    +0.000 A 
ATOM      4  C   UNL     1       1.632   2.037  19.445  0.00  0.00    +0.000 A 
ATOM      5  C   UNL     1       0.976   2.694  20.487  0.00  0.00    +0.000 A 
ATOM      6  C   UNL     1       1.258   4.039  20.770  0.00  0.00    +0.000 A 
ATOM      7  C   UNL     1       2.203   4.743  20.018  0.00  0.00    +0.000 A 
ATOM      8  C   UNL     1       2.866   4.080  18.994  0.00  0.00    +0.000 A 
ATOM      9  C   UNL     1       3.872   4.634  18.019  0.00  0.00    +0.000 C 
ENDROOT
BRANCH   9  10
ATOM     10  N   UNL     1       4.897   5.408  18.708  0.00  0.00    +0.000 N 
ATOM     11  C   UNL     1       5.516   6.393  18.039  0.00  0.00    +0.000 A 
ATOM     12  N   UNL     1       5.142   7.064  16.971  0.00  0.00    +0.000 NA
ATOM     13  N   UNL     1       6.161   7.950  16.692  0.00  0.00    +0.000 NA
ATOM     14  C   UNL     1       7.098   7.742  17.598  0.00  0.00    +0.000 A 
ATOM     15  O   UNL     1       6.754   6.756  18.487  0.00  0.00    +0.000 OA
ATOM     16  H   UNL     1       5.452   4.891  19.378  0.00  0.00    +0.000 HD
BRANCH  14  17
ATOM     17  C   UNL     1       8.403   8.524  17.614  0.00  0.00    +0.000 C 
ATOM     18  C   UNL     1       8.370  10.020  17.850  0.00  0.00    +0.000 C 
ATOM     19  C   UNL     1       8.882   9.121  18.921  0.00  0.00    +0.000 C 
ENDBRANCH  14  17
ENDBRANCH   9  10
BRANCH   1  23
ATOM     20  C   UNL     1       6.360   4.140  14.202  0.00  0.00    +0.000 C 
ATOM     21  C   UNL     1       6.139   3.917  15.673  0.00  0.00    +0.000 C 
ATOM     22  O   UNL     1       7.025   4.076  16.506  0.00  0.00    +0.000 OA
ATOM     23  N   UNL     1       4.864   3.511  15.981  0.00  0.00    +0.000 N 
ATOM     24  H   UNL     1       4.138   3.694  15.292  0.00  0.00    +0.000 HD
ENDBRANCH   1  23
TORSDOF 3
ENDMDL
