MODEL 1
REMARK VINA RESULT:      -8.2      0.000      0.000
REMARK  Name = 
REMARK  4 active torsions:
REMARK  status: ('A' for Active; 'I' for Inactive)
REMARK    1  A    between atoms: C_2  and  C_3
REMARK    2  A    between atoms: C_3  and  S_4
REMARK    3  A    between atoms: S_4  and  C_7
REMARK    4  A    between atoms: N_19  and  C_20
REMARK                            x       y       z     vdW  Elec       q    Type
REMARK                         _______ _______ _______ _____ _____    ______ ____
ROOT
ATOM      1  O   UNL     1       1.514   5.077  20.393  0.00  0.00    +0.000 OA
ATOM      2  C   UNL     1       1.883   5.646  19.362  0.00  0.00    +0.000 C 
ATOM      3  N   UNL     1       1.983   7.023  19.300  0.00  0.00    +0.000 N 
ATOM      4  C   UNL     1       2.403   7.813  18.130  0.00  0.00    +0.000 C 
ATOM      5  C   UNL     1       1.481   9.025  17.893  0.00  0.00    +0.000 C 
ATOM      6  N   UNL     1       1.388   9.808  19.133  0.00  0.00    +0.000 N 
ATOM      7  C   UNL     1       0.901   9.048  20.299  0.00  0.00    +0.000 C 
ATOM      8  C   UNL     1       1.789   7.815  20.529  0.00  0.00    +0.000 C 
ENDROOT
BRANCH   6   9
ATOM      9  C   UNL     1       1.603  11.168  19.172  0.00  0.00    +0.000 A 
ATOM     10  C   UNL     1       2.275  11.841  18.139  0.00  0.00    +0.000 A 
ATOM     11  C   UNL     1       2.512  13.219  18.184  0.00  0.00    +0.000 A 
ATOM     12  C   UNL     1       2.086  13.961  19.279  0.00  0.00    +0.000 A 
ATOM     13  C   UNL     1       1.424  13.318  20.318  0.00  0.00    +0.000 A 
ATOM     14 CL   UNL     1       0.908  14.220  21.690  0.00  0.00    +0.000 Cl
ATOM     15  C   UNL     1       1.184  11.944  20.264  0.00  0.00    +0.000 A 
ENDBRANCH   6   9
BRANCH   2  16
ATOM     16  C   UNL     1       2.320   4.823  18.187  0.00  0.00    +0.000 C 
BRANCH  16  17
ATOM     17  S   UNL     1       3.629   3.733  18.637  0.00  0.00    +0.000 S 
ATOM     18  O   UNL     1       3.650   3.571  20.079  0.00  0.00    +0.000 OA
ATOM     19  O   UNL     1       3.573   2.573  17.763  0.00  0.00    +0.000 OA
BRANCH  17  20
ATOM     20  C   UNL     1       5.163   4.522  18.252  0.00  0.00    +0.000 A 
ATOM     21  C   UNL     1       5.893   5.112  19.313  0.00  0.00    +0.000 A 
ATOM     22  C   UNL     1       7.113   5.804  19.124  0.00  0.00    +0.000 A 
ATOM     23  C   UNL     1       7.709   5.970  17.864  0.00  0.00    +0.000 A 
ATOM     24  C   UNL     1       7.023   5.396  16.769  0.00  0.00    +0.000 A 
ATOM     25  N   UNL     1       7.423   5.449  15.491  0.00  0.00    +0.000 NA
ATOM     26  S   UNL     1       6.280   4.647  14.600  0.00  0.00    +0.000 S 
ATOM     27  N   UNL     1       5.243   4.170  15.802  0.00  0.00    +0.000 NA
ATOM     28  C   UNL     1       5.720   4.647  16.960  0.00  0.00    +0.000 A 
ENDBRANCH  17  20
ENDBRANCH  16  17
ENDBRANCH   2  16
TORSDOF 4
ENDMDL
MODEL 2
REMARK VINA RESULT:      -8.0      2.463      3.331
REMARK  Name = 
REMARK  4 active torsions:
REMARK  status: ('A' for Active; 'I' for Inactive)
REMARK    1  A    between atoms: C_2  and  C_3
REMARK    2  A    between atoms: C_3  and  S_4
REMARK    3  A    between atoms: S_4  and  C_7
REMARK    4  A    between atoms: N_19  and  C_20
REMARK                            x       y       z     vdW  Elec       q    Type
REMARK                         _______ _______ _______ _____ _____    ______ ____
ROOT
ATOM      1  O   UNL     1       3.027   7.375  18.057  0.00  0.00    +0.000 OA
ATOM      2  C   UNL     1       2.625   7.195  19.210  0.00  0.00    +0.000 C 
ATOM      3  N   UNL     1       1.748   8.080  19.809  0.00  0.00    +0.000 N 
ATOM      4  C   UNL     1       1.205   7.975  21.174  0.00  0.00    +0.000 C 
ATOM      5  C   UNL     1       1.258   9.323  21.919  0.00  0.00    +0.000 C 
ATOM      6  N   UNL     1       0.604  10.352  21.099  0.00  0.00    +0.000 N 
ATOM      7  C   UNL     1       1.182  10.518  19.753  0.00  0.00    +0.000 C 
ATOM      8  C   UNL     1       1.169   9.174  19.008  0.00  0.00    +0.000 C 
ENDROOT
BRANCH   6   9
ATOM      9  C   UNL     1      -0.374  11.187  21.594  0.00  0.00    +0.000 A 
ATOM     10  C   UNL     1      -1.088  10.879  22.763  0.00  0.00    +0.000 A 
ATOM     11  C   UNL     1      -2.095  11.714  23.257  0.00  0.00    +0.000 A 
ATOM     12  C   UNL     1      -2.420  12.884  22.583  0.00  0.00    +0.000 A 
ATOM     13  C   UNL     1      -1.733  13.209  21.419  0.00  0.00    +0.000 A 
ATOM     14 CL   UNL     1      -2.138  14.644  20.560  0.00  0.00    +0.000 Cl
ATOM     15  C   UNL     1      -0.724  12.375  20.934  0.00  0.00    +0.000 A 
ENDBRANCH   6   9
BRANCH   2  16
ATOM     16  C   UNL     1       3.021   5.945  19.937  0.00  0.00    +0.000 C 
BRANCH  16  17
ATOM     17  S   UNL     1       2.939   4.546  18.869  0.00  0.00    +0.000 S 
ATOM     18  O   UNL     1       3.034   3.330  19.656  0.00  0.00    +0.000 OA
ATOM     19  O   UNL     1       1.834   4.745  17.946  0.00  0.00    +0.000 OA
BRANCH  17  20
ATOM     20  C   UNL     1       4.386   4.538  17.855  0.00  0.00    +0.000 A 
ATOM     21  C   UNL     1       4.245   4.158  16.497  0.00  0.00    +0.000 A 
ATOM     22  C   UNL     1       5.335   4.077  15.597  0.00  0.00    +0.000 A 
ATOM     23  C   UNL     1       6.657   4.365  15.972  0.00  0.00    +0.000 A 
ATOM     24  C   UNL     1       6.853   4.754  17.317  0.00  0.00    +0.000 A 
ATOM     25  N   UNL     1       8.035   5.064  17.869  0.00  0.00    +0.000 NA
ATOM     26  S   UNL     1       7.738   5.435  19.455  0.00  0.00    +0.000 S 
ATOM     27  N   UNL     1       6.091   5.251  19.503  0.00  0.00    +0.000 NA
ATOM     28  C   UNL     1       5.694   4.852  18.287  0.00  0.00    +0.000 A 
ENDBRANCH  17  20
ENDBRANCH  16  17
ENDBRANCH   2  16
TORSDOF 4
ENDMDL
MODEL 3
REMARK VINA RESULT:      -7.9      2.361      3.111
REMARK  Name = 
REMARK  4 active torsions:
REMARK  status: ('A' for Active; 'I' for Inactive)
REMARK    1  A    between atoms: C_2  and  C_3
REMARK    2  A    between atoms: C_3  and  S_4
REMARK    3  A    between atoms: S_4  and  C_7
REMARK    4  A    between atoms: N_19  and  C_20
REMARK                            x       y       z     vdW  Elec       q    Type
REMARK                         _______ _______ _______ _____ _____    ______ ____
ROOT
ATOM      1  O   UNL     1       3.134   7.474  17.793  0.00  0.00    +0.000 OA
ATOM      2  C   UNL     1       2.630   7.378  18.915  0.00  0.00    +0.000 C 
ATOM      3  N   UNL     1       1.717   8.309  19.372  0.00  0.00    +0.000 N 
ATOM      4  C   UNL     1       1.054   8.304  20.688  0.00  0.00    +0.000 C 
ATOM      5  C   UNL     1       1.062   9.700  21.341  0.00  0.00    +0.000 C 
ATOM      6  N   UNL     1       0.498  10.676  20.398  0.00  0.00    +0.000 N 
ATOM      7  C   UNL     1       1.195  10.743  19.100  0.00  0.00    +0.000 C 
ATOM      8  C   UNL     1       1.227   9.351  18.450  0.00  0.00    +0.000 C 
ENDROOT
BRANCH   6   9
ATOM      9  C   UNL     1      -0.507  11.552  20.746  0.00  0.00    +0.000 A 
ATOM     10  C   UNL     1      -1.604  11.793  19.904  0.00  0.00    +0.000 A 
ATOM     11  C   UNL     1      -2.615  12.696  20.246  0.00  0.00    +0.000 A 
ATOM     12  C   UNL     1      -2.547  13.393  21.446  0.00  0.00    +0.000 A 
ATOM     13  C   UNL     1      -1.468  13.178  22.294  0.00  0.00    +0.000 A 
ATOM     14 CL   UNL     1      -1.359  14.049  23.775  0.00  0.00    +0.000 Cl
ATOM     15  C   UNL     1      -0.464  12.270  21.951  0.00  0.00    +0.000 A 
ENDBRANCH   6   9
BRANCH   2  16
ATOM     16  C   UNL     1       2.942   6.177  19.758  0.00  0.00    +0.000 C 
BRANCH  16  17
ATOM     17  S   UNL     1       2.866   4.701  18.799  0.00  0.00    +0.000 S 
ATOM     18  O   UNL     1       2.928   3.549  19.679  0.00  0.00    +0.000 OA
ATOM     19  O   UNL     1       1.785   4.841  17.837  0.00  0.00    +0.000 OA
BRANCH  17  20
ATOM     20  C   UNL     1       4.336   4.600  17.823  0.00  0.00    +0.000 A 
ATOM     21  C   UNL     1       4.218   4.136  16.489  0.00  0.00    +0.000 A 
ATOM     22  C   UNL     1       5.327   3.976  15.623  0.00  0.00    +0.000 A 
ATOM     23  C   UNL     1       6.645   4.260  16.011  0.00  0.00    +0.000 A 
ATOM     24  C   UNL     1       6.819   4.731  17.333  0.00  0.00    +0.000 A 
ATOM     25  N   UNL     1       7.994   5.051  17.893  0.00  0.00    +0.000 NA
ATOM     26  S   UNL     1       7.668   5.529  19.445  0.00  0.00    +0.000 S 
ATOM     27  N   UNL     1       6.017   5.381  19.464  0.00  0.00    +0.000 NA
ATOM     28  C   UNL     1       5.640   4.914  18.266  0.00  0.00    +0.000 A 
ENDBRANCH  17  20
ENDBRANCH  16  17
ENDBRANCH   2  16
TORSDOF 4
ENDMDL
MODEL 4
REMARK VINA RESULT:      -7.8      2.049      2.807
REMARK  Name = 
REMARK  4 active torsions:
REMARK  status: ('A' for Active; 'I' for Inactive)
REMARK    1  A    between atoms: C_2  and  C_3
REMARK    2  A    between atoms: C_3  and  S_4
REMARK    3  A    between atoms: S_4  and  C_7
REMARK    4  A    between atoms: N_19  and  C_20
REMARK                            x       y       z     vdW  Elec       q    Type
REMARK                         _______ _______ _______ _____ _____    ______ ____
ROOT
ATOM      1  O   UNL     1       2.845   7.367  18.185  0.00  0.00    +0.000 OA
ATOM      2  C   UNL     1       2.410   7.163  19.321  0.00  0.00    +0.000 C 
ATOM      3  N   UNL     1       1.617   8.095  19.963  0.00  0.00    +0.000 N 
ATOM      4  C   UNL     1       1.045   7.968  21.314  0.00  0.00    +0.000 C 
ATOM      5  C   UNL     1       1.222   9.259  22.137  0.00  0.00    +0.000 C 
ATOM      6  N   UNL     1       0.686  10.394  21.372  0.00  0.00    +0.000 N 
ATOM      7  C   UNL     1       1.298  10.578  20.044  0.00  0.00    +0.000 C 
ATOM      8  C   UNL     1       1.162   9.287  19.221  0.00  0.00    +0.000 C 
ENDROOT
BRANCH   6   9
ATOM      9  C   UNL     1      -0.211  11.293  21.907  0.00  0.00    +0.000 A 
ATOM     10  C   UNL     1      -1.206  10.896  22.813  0.00  0.00    +0.000 A 
ATOM     11  C   UNL     1      -2.131  11.803  23.342  0.00  0.00    +0.000 A 
ATOM     12  C   UNL     1      -2.085  13.139  22.965  0.00  0.00    +0.000 A 
ATOM     13  C   UNL     1      -1.114  13.557  22.063  0.00  0.00    +0.000 A 
ATOM     14 CL   UNL     1      -1.058  15.205  21.571  0.00  0.00    +0.000 Cl
ATOM     15  C   UNL     1      -0.190  12.649  21.544  0.00  0.00    +0.000 A 
ENDBRANCH   6   9
BRANCH   2  16
ATOM     16  C   UNL     1       2.668   5.840  19.977  0.00  0.00    +0.000 C 
BRANCH  16  17
ATOM     17  S   UNL     1       3.126   4.627  18.785  0.00  0.00    +0.000 S 
ATOM     18  O   UNL     1       3.048   3.306  19.381  0.00  0.00    +0.000 OA
ATOM     19  O   UNL     1       2.425   4.922  17.546  0.00  0.00    +0.000 OA
BRANCH  17  20
ATOM     20  C   UNL     1       4.838   4.845  18.403  0.00  0.00    +0.000 A 
ATOM     21  C   UNL     1       5.691   5.330  19.426  0.00  0.00    +0.000 A 
ATOM     22  C   UNL     1       7.071   5.581  19.230  0.00  0.00    +0.000 A 
ATOM     23  C   UNL     1       7.718   5.373  18.002  0.00  0.00    +0.000 A 
ATOM     24  C   UNL     1       6.912   4.886  16.947  0.00  0.00    +0.000 A 
ATOM     25  N   UNL     1       7.338   4.629  15.702  0.00  0.00    +0.000 NA
ATOM     26  S   UNL     1       6.023   4.096  14.849  0.00  0.00    +0.000 S 
ATOM     27  N   UNL     1       4.861   4.137  16.031  0.00  0.00    +0.000 NA
ATOM     28  C   UNL     1       5.437   4.606  17.146  0.00  0.00    +0.000 A 
ENDBRANCH  17  20
ENDBRANCH  16  17
ENDBRANCH   2  16
TORSDOF 4
ENDMDL
MODEL 5
REMARK VINA RESULT:      -7.8      0.928      1.309
REMARK  Name = 
REMARK  4 active torsions:
REMARK  status: ('A' for Active; 'I' for Inactive)
REMARK    1  A    between atoms: C_2  and  C_3
REMARK    2  A    between atoms: C_3  and  S_4
REMARK    3  A    between atoms: S_4  and  C_7
REMARK    4  A    between atoms: N_19  and  C_20
REMARK                            x       y       z     vdW  Elec       q    Type
REMARK                         _______ _______ _______ _____ _____    ______ ____
ROOT
ATOM      1  O   UNL     1       1.489   5.007  20.461  0.00  0.00    +0.000 OA
ATOM      2  C   UNL     1       1.814   5.690  19.486  0.00  0.00    +0.000 C 
ATOM      3  N   UNL     1       1.837   7.070  19.554  0.00  0.00    +0.000 N 
ATOM      4  C   UNL     1       2.200   7.988  18.461  0.00  0.00    +0.000 C 
ATOM      5  C   UNL     1       1.211   9.164  18.346  0.00  0.00    +0.000 C 
ATOM      6  N   UNL     1       1.089   9.820  19.655  0.00  0.00    +0.000 N 
ATOM      7  C   UNL     1       0.658   8.929  20.747  0.00  0.00    +0.000 C 
ATOM      8  C   UNL     1       1.615   7.731  20.854  0.00  0.00    +0.000 C 
ENDROOT
BRANCH   6   9
ATOM      9  C   UNL     1       1.230  11.181  19.820  0.00  0.00    +0.000 A 
ATOM     10  C   UNL     1       0.671  11.856  20.917  0.00  0.00    +0.000 A 
ATOM     11  C   UNL     1       0.794  13.240  21.077  0.00  0.00    +0.000 A 
ATOM     12  C   UNL     1       1.479  13.990  20.129  0.00  0.00    +0.000 A 
ATOM     13  C   UNL     1       2.035  13.348  19.030  0.00  0.00    +0.000 A 
ATOM     14 CL   UNL     1       2.869  14.266  17.836  0.00  0.00    +0.000 Cl
ATOM     15  C   UNL     1       1.915  11.965  18.879  0.00  0.00    +0.000 A 
ENDBRANCH   6   9
BRANCH   2  16
ATOM     16  C   UNL     1       2.282   5.006  18.237  0.00  0.00    +0.000 C 
BRANCH  16  17
ATOM     17  S   UNL     1       3.536   3.824  18.600  0.00  0.00    +0.000 S 
ATOM     18  O   UNL     1       3.562   3.569  20.028  0.00  0.00    +0.000 OA
ATOM     19  O   UNL     1       3.413   2.728  17.654  0.00  0.00    +0.000 OA
BRANCH  17  20
ATOM     20  C   UNL     1       5.105   4.557  18.247  0.00  0.00    +0.000 A 
ATOM     21  C   UNL     1       5.829   5.131  19.322  0.00  0.00    +0.000 A 
ATOM     22  C   UNL     1       7.076   5.780  19.158  0.00  0.00    +0.000 A 
ATOM     23  C   UNL     1       7.709   5.914  17.913  0.00  0.00    +0.000 A 
ATOM     24  C   UNL     1       7.031   5.355  16.805  0.00  0.00    +0.000 A 
ATOM     25  N   UNL     1       7.464   5.383  15.537  0.00  0.00    +0.000 NA
ATOM     26  S   UNL     1       6.317   4.613  14.624  0.00  0.00    +0.000 S 
ATOM     27  N   UNL     1       5.234   4.182  15.803  0.00  0.00    +0.000 NA
ATOM     28  C   UNL     1       5.699   4.652  16.969  0.00  0.00    +0.000 A 
ENDBRANCH  17  20
ENDBRANCH  16  17
ENDBRANCH   2  16
TORSDOF 4
ENDMDL
MODEL 6
REMARK VINA RESULT:      -7.8      5.448      9.293
REMARK  Name = 
REMARK  4 active torsions:
REMARK  status: ('A' for Active; 'I' for Inactive)
REMARK    1  A    between atoms: C_2  and  C_3
REMARK    2  A    between atoms: C_3  and  S_4
REMARK    3  A    between atoms: S_4  and  C_7
REMARK    4  A    between atoms: N_19  and  C_20
REMARK                            x       y       z     vdW  Elec       q    Type
REMARK                         _______ _______ _______ _____ _____    ______ ____
ROOT
ATOM      1  O   UNL     1       0.880  11.512  21.539  0.00  0.00    +0.000 OA
ATOM      2  C   UNL     1       0.994  11.120  20.374  0.00  0.00    +0.000 C 
ATOM      3  N   UNL     1       1.094   9.774  20.078  0.00  0.00    +0.000 N 
ATOM      4  C   UNL     1       1.240   9.188  18.735  0.00  0.00    +0.000 C 
ATOM      5  C   UNL     1       2.324   8.093  18.699  0.00  0.00    +0.000 C 
ATOM      6  N   UNL     1       2.044   7.105  19.750  0.00  0.00    +0.000 N 
ATOM      7  C   UNL     1       1.965   7.665  21.111  0.00  0.00    +0.000 C 
ATOM      8  C   UNL     1       0.911   8.784  21.156  0.00  0.00    +0.000 C 
ENDROOT
BRANCH   6   9
ATOM      9  C   UNL     1       1.999   5.750  19.502  0.00  0.00    +0.000 A 
ATOM     10  C   UNL     1       2.071   5.232  18.199  0.00  0.00    +0.000 A 
ATOM     11  C   UNL     1       2.005   3.859  17.943  0.00  0.00    +0.000 A 
ATOM     12  C   UNL     1       1.856   2.963  18.994  0.00  0.00    +0.000 A 
ATOM     13  C   UNL     1       1.774   3.450  20.293  0.00  0.00    +0.000 A 
ATOM     14 CL   UNL     1       1.568   2.354  21.605  0.00  0.00    +0.000 Cl
ATOM     15  C   UNL     1       1.847   4.821  20.544  0.00  0.00    +0.000 A 
ENDBRANCH   6   9
BRANCH   2  16
ATOM     16  C   UNL     1       0.929  12.117  19.256  0.00  0.00    +0.000 C 
BRANCH  16  17
ATOM     17  S   UNL     1      -0.640  12.918  19.221  0.00  0.00    +0.000 S 
ATOM     18  O   UNL     1      -1.114  13.116  20.578  0.00  0.00    +0.000 OA
ATOM     19  O   UNL     1      -0.557  14.036  18.296  0.00  0.00    +0.000 OA
BRANCH  17  20
ATOM     20  C   UNL     1      -1.810  11.810  18.495  0.00  0.00    +0.000 A 
ATOM     21  C   UNL     1      -1.336  10.865  17.551  0.00  0.00    +0.000 A 
ATOM     22  C   UNL     1      -2.181   9.953  16.875  0.00  0.00    +0.000 A 
ATOM     23  C   UNL     1      -3.569   9.904  17.078  0.00  0.00    +0.000 A 
ATOM     24  C   UNL     1      -4.095  10.824  18.014  0.00  0.00    +0.000 A 
ATOM     25  N   UNL     1      -5.390  10.940  18.343  0.00  0.00    +0.000 NA
ATOM     26  S   UNL     1      -5.491  12.159  19.460  0.00  0.00    +0.000 S 
ATOM     27  N   UNL     1      -3.891  12.572  19.599  0.00  0.00    +0.000 NA
ATOM     28  C   UNL     1      -3.199  11.801  18.749  0.00  0.00    +0.000 A 
ENDBRANCH  17  20
ENDBRANCH  16  17
ENDBRANCH   2  16
TORSDOF 4
ENDMDL
MODEL 7
REMARK VINA RESULT:      -7.8      5.510      9.416
REMARK  Name = 
REMARK  4 active torsions:
REMARK  status: ('A' for Active; 'I' for Inactive)
REMARK    1  A    between atoms: C_2  and  C_3
REMARK    2  A    between atoms: C_3  and  S_4
REMARK    3  A    between atoms: S_4  and  C_7
REMARK    4  A    between atoms: N_19  and  C_20
REMARK                            x       y       z     vdW  Elec       q    Type
REMARK                         _______ _______ _______ _____ _____    ______ ____
ROOT
ATOM      1  O   UNL     1       0.549  10.552  21.607  0.00  0.00    +0.000 OA
ATOM      2  C   UNL     1       0.768  10.515  20.393  0.00  0.00    +0.000 C 
ATOM      3  N   UNL     1       1.120   9.336  19.765  0.00  0.00    +0.000 N 
ATOM      4  C   UNL     1       1.410   9.169  18.330  0.00  0.00    +0.000 C 
ATOM      5  C   UNL     1       2.676   8.322  18.094  0.00  0.00    +0.000 C 
ATOM      6  N   UNL     1       2.549   7.054  18.825  0.00  0.00    +0.000 N 
ATOM      7  C   UNL     1       2.329   7.204  20.275  0.00  0.00    +0.000 C 
ATOM      8  C   UNL     1       1.089   8.075  20.529  0.00  0.00    +0.000 C 
ENDROOT
BRANCH   6   9
ATOM      9  C   UNL     1       2.759   5.829  18.229  0.00  0.00    +0.000 A 
ATOM     10  C   UNL     1       1.853   4.768  18.379  0.00  0.00    +0.000 A 
ATOM     11  C   UNL     1       2.072   3.517  17.793  0.00  0.00    +0.000 A 
ATOM     12  C   UNL     1       3.220   3.295  17.042  0.00  0.00    +0.000 A 
ATOM     13  C   UNL     1       4.138   4.326  16.884  0.00  0.00    +0.000 A 
ATOM     14 CL   UNL     1       5.574   4.060  15.975  0.00  0.00    +0.000 Cl
ATOM     15  C   UNL     1       3.910   5.575  17.467  0.00  0.00    +0.000 A 
ENDBRANCH   6   9
BRANCH   2  16
ATOM     16  C   UNL     1       0.555  11.752  19.573  0.00  0.00    +0.000 C 
BRANCH  16  17
ATOM     17  S   UNL     1      -1.050  12.421  19.852  0.00  0.00    +0.000 S 
ATOM     18  O   UNL     1      -1.507  12.049  21.178  0.00  0.00    +0.000 OA
ATOM     19  O   UNL     1      -1.038  13.814  19.438  0.00  0.00    +0.000 OA
BRANCH  17  20
ATOM     20  C   UNL     1      -2.180  11.627  18.749  0.00  0.00    +0.000 A 
ATOM     21  C   UNL     1      -1.645  10.796  17.733  0.00  0.00    +0.000 A 
ATOM     22  C   UNL     1      -2.446  10.138  16.769  0.00  0.00    +0.000 A 
ATOM     23  C   UNL     1      -3.844  10.251  16.732  0.00  0.00    +0.000 A 
ATOM     24  C   UNL     1      -4.430  11.066  17.727  0.00  0.00    +0.000 A 
ATOM     25  N   UNL     1      -5.743  11.306  17.859  0.00  0.00    +0.000 NA
ATOM     26  S   UNL     1      -5.915  12.321  19.155  0.00  0.00    +0.000 S 
ATOM     27  N   UNL     1      -4.333  12.477  19.627  0.00  0.00    +0.000 NA
ATOM     28  C   UNL     1      -3.585  11.770  18.769  0.00  0.00    +0.000 A 
ENDBRANCH  17  20
ENDBRANCH  16  17
ENDBRANCH   2  16
TORSDOF 4
ENDMDL
MODEL 8
REMARK VINA RESULT:      -7.7      2.501      3.235
REMARK  Name = 
REMARK  4 active torsions:
REMARK  status: ('A' for Active; 'I' for Inactive)
REMARK    1  A    between atoms: C_2  and  C_3
REMARK    2  A    between atoms: C_3  and  S_4
REMARK    3  A    between atoms: S_4  and  C_7
REMARK    4  A    between atoms: N_19  and  C_20
REMARK                            x       y       z     vdW  Elec       q    Type
REMARK                         _______ _______ _______ _____ _____    ______ ____
ROOT
ATOM      1  O   UNL     1       3.198   7.421  17.688  0.00  0.00    +0.000 OA
ATOM      2  C   UNL     1       2.655   7.415  18.796  0.00  0.00    +0.000 C 
ATOM      3  N   UNL     1       1.753   8.399  19.156  0.00  0.00    +0.000 N 
ATOM      4  C   UNL     1       1.048   8.501  20.445  0.00  0.00    +0.000 C 
ATOM      5  C   UNL     1       1.072   9.939  21.001  0.00  0.00    +0.000 C 
ATOM      6  N   UNL     1       0.566  10.860  19.974  0.00  0.00    +0.000 N 
ATOM      7  C   UNL     1       1.307  10.820  18.700  0.00  0.00    +0.000 C 
ATOM      8  C   UNL     1       1.323   9.385  18.148  0.00  0.00    +0.000 C 
ENDROOT
BRANCH   6   9
ATOM      9  C   UNL     1      -0.425  11.783  20.226  0.00  0.00    +0.000 A 
ATOM     10  C   UNL     1      -0.197  12.916  21.023  0.00  0.00    +0.000 A 
ATOM     11  C   UNL     1      -1.207  13.844  21.298  0.00  0.00    +0.000 A 
ATOM     12  C   UNL     1      -2.483  13.653  20.783  0.00  0.00    +0.000 A 
ATOM     13  C   UNL     1      -2.738  12.536  19.997  0.00  0.00    +0.000 A 
ATOM     14 CL   UNL     1      -4.319  12.275  19.370  0.00  0.00    +0.000 Cl
ATOM     15  C   UNL     1      -1.724  11.616  19.721  0.00  0.00    +0.000 A 
ENDBRANCH   6   9
BRANCH   2  16
ATOM     16  C   UNL     1       2.906   6.268  19.729  0.00  0.00    +0.000 C 
BRANCH  16  17
ATOM     17  S   UNL     1       2.862   4.734  18.865  0.00  0.00    +0.000 S 
ATOM     18  O   UNL     1       2.975   3.641  19.812  0.00  0.00    +0.000 OA
ATOM     19  O   UNL     1       1.762   4.781  17.916  0.00  0.00    +0.000 OA
BRANCH  17  20
ATOM     20  C   UNL     1       4.318   4.618  17.870  0.00  0.00    +0.000 A 
ATOM     21  C   UNL     1       4.179   4.153  16.538  0.00  0.00    +0.000 A 
ATOM     22  C   UNL     1       5.275   3.981  15.659  0.00  0.00    +0.000 A 
ATOM     23  C   UNL     1       6.601   4.255  16.029  0.00  0.00    +0.000 A 
ATOM     24  C   UNL     1       6.795   4.727  17.347  0.00  0.00    +0.000 A 
ATOM     25  N   UNL     1       7.980   5.039  17.892  0.00  0.00    +0.000 NA
ATOM     26  S   UNL     1       7.679   5.523  19.446  0.00  0.00    +0.000 S 
ATOM     27  N   UNL     1       6.026   5.389  19.487  0.00  0.00    +0.000 NA
ATOM     28  C   UNL     1       5.630   4.922  18.295  0.00  0.00    +0.000 A 
ENDBRANCH  17  20
ENDBRANCH  16  17
ENDBRANCH   2  16
TORSDOF 4
ENDMDL
MODEL 9
REMARK VINA RESULT:      -7.6      1.920      2.513
REMARK  Name = 
REMARK  4 active torsions:
REMARK  status: ('A' for Active; 'I' for Inactive)
REMARK    1  A    between atoms: C_2  and  C_3
REMARK    2  A    between atoms: C_3  and  S_4
REMARK    3  A    between atoms: S_4  and  C_7
REMARK    4  A    between atoms: N_19  and  C_20
REMARK                            x       y       z     vdW  Elec       q    Type
REMARK                         _______ _______ _______ _____ _____    ______ ____
ROOT
ATOM      1  O   UNL     1       3.087   7.392  17.935  0.00  0.00    +0.000 OA
ATOM      2  C   UNL     1       2.520   7.299  19.027  0.00  0.00    +0.000 C 
ATOM      3  N   UNL     1       1.640   8.271  19.462  0.00  0.00    +0.000 N 
ATOM      4  C   UNL     1       0.911   8.274  20.742  0.00  0.00    +0.000 C 
ATOM      5  C   UNL     1       0.965   9.652  21.432  0.00  0.00    +0.000 C 
ATOM      6  N   UNL     1       0.507  10.680  20.487  0.00  0.00    +0.000 N 
ATOM      7  C   UNL     1       1.272  10.737  19.229  0.00  0.00    +0.000 C 
ATOM      8  C   UNL     1       1.259   9.361  18.544  0.00  0.00    +0.000 C 
ENDROOT
BRANCH   6   9
ATOM      9  C   UNL     1      -0.463  11.605  20.808  0.00  0.00    +0.000 A 
ATOM     10  C   UNL     1      -1.513  11.911  19.929  0.00  0.00    +0.000 A 
ATOM     11  C   UNL     1      -2.488  12.864  20.243  0.00  0.00    +0.000 A 
ATOM     12  C   UNL     1      -2.429  13.545  21.452  0.00  0.00    +0.000 A 
ATOM     13  C   UNL     1      -1.395  13.265  22.338  0.00  0.00    +0.000 A 
ATOM     14 CL   UNL     1      -1.296  14.116  23.831  0.00  0.00    +0.000 Cl
ATOM     15  C   UNL     1      -0.428  12.309  22.022  0.00  0.00    +0.000 A 
ENDBRANCH   6   9
BRANCH   2  16
ATOM     16  C   UNL     1       2.720   6.063  19.853  0.00  0.00    +0.000 C 
BRANCH  16  17
ATOM     17  S   UNL     1       3.189   4.701  18.839  0.00  0.00    +0.000 S 
ATOM     18  O   UNL     1       3.132   3.476  19.616  0.00  0.00    +0.000 OA
ATOM     19  O   UNL     1       2.479   4.810  17.576  0.00  0.00    +0.000 OA
BRANCH  17  20
ATOM     20  C   UNL     1       4.896   4.886  18.420  0.00  0.00    +0.000 A 
ATOM     21  C   UNL     1       5.782   5.350  19.425  0.00  0.00    +0.000 A 
ATOM     22  C   UNL     1       7.161   5.574  19.199  0.00  0.00    +0.000 A 
ATOM     23  C   UNL     1       7.776   5.358  17.956  0.00  0.00    +0.000 A 
ATOM     24  C   UNL     1       6.938   4.890  16.918  0.00  0.00    +0.000 A 
ATOM     25  N   UNL     1       7.330   4.629  15.663  0.00  0.00    +0.000 NA
ATOM     26  S   UNL     1       5.986   4.126  14.838  0.00  0.00    +0.000 S 
ATOM     27  N   UNL     1       4.852   4.185  16.046  0.00  0.00    +0.000 NA
ATOM     28  C   UNL     1       5.462   4.639  17.150  0.00  0.00    +0.000 A 
ENDBRANCH  17  20
ENDBRANCH  16  17
ENDBRANCH   2  16
TORSDOF 4
ENDMDL
