MODEL 1
REMARK VINA RESULT:      -6.2      0.000      0.000
REMARK  Name = 
REMARK  5 active torsions:
REMARK  status: ('A' for Active; 'I' for Inactive)
REMARK    1  A    between atoms: O_1  and  N_2
REMARK    2  A    between atoms: C_3  and  C_4
REMARK    3  A    between atoms: C_3  and  C_12
REMARK    4  A    between atoms: C_4  and  S_5
REMARK    5  A    between atoms: S_5  and  C_6
REMARK                            x       y       z     vdW  Elec       q    Type
REMARK                         _______ _______ _______ _____ _____    ______ ____
ROOT
ATOM      1  N   UNL     1       5.445   3.318  18.766  0.00  0.00    +0.000 NA
ATOM      2  C   UNL     1       5.356   4.544  18.329  0.00  0.00    +0.000 C 
ENDROOT
BRANCH   2   3
ATOM      3  C   UNL     1       5.864   4.674  16.943  0.00  0.00    +0.000 A 
ATOM      4  C   UNL     1       5.385   3.865  15.840  0.00  0.00    +0.000 A 
ATOM      5  C   UNL     1       5.983   4.189  14.651  0.00  0.00    +0.000 A 
ATOM      6 CL   UNL     1       5.701   3.456  13.127  0.00  0.00    +0.000 Cl
ATOM      7  S   UNL     1       7.091   5.452  14.790  0.00  0.00    +0.000 S 
ATOM      8  C   UNL     1       6.787   5.586  16.461  0.00  0.00    +0.000 A 
ATOM      9 CL   UNL     1       7.621   6.855  17.280  0.00  0.00    +0.000 Cl
ENDBRANCH   2   3
BRANCH   1  10
ATOM     10  O   UNL     1       4.862   3.113  20.012  0.00  0.00    +0.000 OA
ATOM     11  H   UNL     1       5.597   3.307  20.625  0.00  0.00    +0.000 HD
ENDBRANCH   1  10
BRANCH   2  12
ATOM     12  C   UNL     1       4.742   5.752  19.027  0.00  0.00    +0.000 C 
BRANCH  12  13
ATOM     13  S   UNL     1       3.091   6.286  18.473  0.00  0.00    +0.000 S 
BRANCH  13  14
ATOM     14  C   UNL     1       2.138   4.853  18.965  0.00  0.00    +0.000 A 
ATOM     15  C   UNL     1       1.804   3.874  18.033  0.00  0.00    +0.000 A 
ATOM     16  C   UNL     1       1.064   2.786  18.463  0.00  0.00    +0.000 A 
ATOM     17  N   UNL     1       0.653   2.612  19.739  0.00  0.00    +0.000 NA
ATOM     18  C   UNL     1       1.008   3.566  20.625  0.00  0.00    +0.000 A 
ATOM     19  C   UNL     1       1.745   4.687  20.292  0.00  0.00    +0.000 A 
ENDBRANCH  13  14
ENDBRANCH  12  13
ENDBRANCH   2  12
TORSDOF 5
ENDMDL
MODEL 2
REMARK VINA RESULT:      -6.1      2.830      3.259
REMARK  Name = 
REMARK  5 active torsions:
REMARK  status: ('A' for Active; 'I' for Inactive)
REMARK    1  A    between atoms: O_1  and  N_2
REMARK    2  A    between atoms: C_3  and  C_4
REMARK    3  A    between atoms: C_3  and  C_12
REMARK    4  A    between atoms: C_4  and  S_5
REMARK    5  A    between atoms: S_5  and  C_6
REMARK                            x       y       z     vdW  Elec       q    Type
REMARK                         _______ _______ _______ _____ _____    ______ ____
ROOT
ATOM      1  N   UNL     1       3.709   2.117  18.059  0.00  0.00    +0.000 NA
ATOM      2  C   UNL     1       3.641   3.416  17.953  0.00  0.00    +0.000 C 
ENDROOT
BRANCH   2   3
ATOM      3  C   UNL     1       4.819   3.975  17.251  0.00  0.00    +0.000 A 
ATOM      4  C   UNL     1       5.026   3.855  15.820  0.00  0.00    +0.000 A 
ATOM      5  C   UNL     1       6.171   4.478  15.401  0.00  0.00    +0.000 A 
ATOM      6 CL   UNL     1       6.771   4.548  13.796  0.00  0.00    +0.000 Cl
ATOM      7  S   UNL     1       7.011   5.232  16.652  0.00  0.00    +0.000 S 
ATOM      8  C   UNL     1       5.846   4.731  17.789  0.00  0.00    +0.000 A 
ATOM      9 CL   UNL     1       6.088   5.278  19.407  0.00  0.00    +0.000 Cl
ENDBRANCH   2   3
BRANCH   1  10
ATOM     10  O   UNL     1       2.569   1.527  18.592  0.00  0.00    +0.000 OA
ATOM     11  H   UNL     1       2.919   0.705  18.985  0.00  0.00    +0.000 HD
ENDBRANCH   1  10
BRANCH   2  12
ATOM     12  C   UNL     1       2.502   4.338  18.374  0.00  0.00    +0.000 C 
BRANCH  12  13
ATOM     13  S   UNL     1       2.655   5.169  19.988  0.00  0.00    +0.000 S 
BRANCH  13  14
ATOM     14  C   UNL     1       2.245   6.841  19.498  0.00  0.00    +0.000 A 
ATOM     15  C   UNL     1       2.490   7.274  18.197  0.00  0.00    +0.000 A 
ATOM     16  C   UNL     1       2.157   8.577  17.868  0.00  0.00    +0.000 A 
ATOM     17  N   UNL     1       1.598   9.453  18.733  0.00  0.00    +0.000 NA
ATOM     18  C   UNL     1       1.353   9.000  19.980  0.00  0.00    +0.000 A 
ATOM     19  C   UNL     1       1.649   7.717  20.403  0.00  0.00    +0.000 A 
ENDBRANCH  13  14
ENDBRANCH  12  13
ENDBRANCH   2  12
TORSDOF 5
ENDMDL
MODEL 3
REMARK VINA RESULT:      -6.0      3.263      5.882
REMARK  Name = 
REMARK  5 active torsions:
REMARK  status: ('A' for Active; 'I' for Inactive)
REMARK    1  A    between atoms: O_1  and  N_2
REMARK    2  A    between atoms: C_3  and  C_4
REMARK    3  A    between atoms: C_3  and  C_12
REMARK    4  A    between atoms: C_4  and  S_5
REMARK    5  A    between atoms: S_5  and  C_6
REMARK                            x       y       z     vdW  Elec       q    Type
REMARK                         _______ _______ _______ _____ _____    ______ ____
ROOT
ATOM      1  N   UNL     1       1.154   3.179  18.220  0.00  0.00    +0.000 NA
ATOM      2  C   UNL     1       2.318   3.765  18.154  0.00  0.00    +0.000 C 
ENDROOT
BRANCH   2   3
ATOM      3  C   UNL     1       2.260   5.165  18.634  0.00  0.00    +0.000 A 
ATOM      4  C   UNL     1       2.239   6.312  17.748  0.00  0.00    +0.000 A 
ATOM      5  C   UNL     1       2.154   7.499  18.426  0.00  0.00    +0.000 A 
ATOM      6 CL   UNL     1       2.119   9.071  17.742  0.00  0.00    +0.000 Cl
ATOM      7  S   UNL     1       2.074   7.302  20.098  0.00  0.00    +0.000 S 
ATOM      8  C   UNL     1       2.154   5.608  19.942  0.00  0.00    +0.000 A 
ATOM      9 CL   UNL     1       2.037   4.709  21.409  0.00  0.00    +0.000 Cl
ENDBRANCH   2   3
BRANCH   1  10
ATOM     10  O   UNL     1       1.178   1.825  17.906  0.00  0.00    +0.000 OA
ATOM     11  H   UNL     1       0.655   1.430  18.630  0.00  0.00    +0.000 HD
ENDBRANCH   1  10
BRANCH   2  12
ATOM     12  C   UNL     1       3.656   3.160  17.742  0.00  0.00    +0.000 C 
BRANCH  12  13
ATOM     13  S   UNL     1       5.085   3.481  18.825  0.00  0.00    +0.000 S 
BRANCH  13  14
ATOM     14  C   UNL     1       6.023   4.571  17.759  0.00  0.00    +0.000 A 
ATOM     15  C   UNL     1       6.581   5.743  18.265  0.00  0.00    +0.000 A 
ATOM     16  C   UNL     1       7.296   6.553  17.400  0.00  0.00    +0.000 A 
ATOM     17  N   UNL     1       7.494   6.271  16.093  0.00  0.00    +0.000 NA
ATOM     18  C   UNL     1       6.960   5.119  15.635  0.00  0.00    +0.000 A 
ATOM     19  C   UNL     1       6.231   4.245  16.420  0.00  0.00    +0.000 A 
ENDBRANCH  13  14
ENDBRANCH  12  13
ENDBRANCH   2  12
TORSDOF 5
ENDMDL
MODEL 4
REMARK VINA RESULT:      -6.0      3.098      5.762
REMARK  Name = 
REMARK  5 active torsions:
REMARK  status: ('A' for Active; 'I' for Inactive)
REMARK    1  A    between atoms: O_1  and  N_2
REMARK    2  A    between atoms: C_3  and  C_4
REMARK    3  A    between atoms: C_3  and  C_12
REMARK    4  A    between atoms: C_4  and  S_5
REMARK    5  A    between atoms: S_5  and  C_6
REMARK                            x       y       z     vdW  Elec       q    Type
REMARK                         _______ _______ _______ _____ _____    ______ ____
ROOT
ATOM      1  N   UNL     1       1.989   2.852  18.335  0.00  0.00    +0.000 NA
ATOM      2  C   UNL     1       2.994   3.659  18.129  0.00  0.00    +0.000 C 
ENDROOT
BRANCH   2   3
ATOM      3  C   UNL     1       2.718   5.025  18.632  0.00  0.00    +0.000 A 
ATOM      4  C   UNL     1       2.672   6.196  17.778  0.00  0.00    +0.000 A 
ATOM      5  C   UNL     1       2.370   7.339  18.469  0.00  0.00    +0.000 A 
ATOM      6 CL   UNL     1       2.238   8.923  17.824  0.00  0.00    +0.000 Cl
ATOM      7  S   UNL     1       2.113   7.071  20.113  0.00  0.00    +0.000 S 
ATOM      8  C   UNL     1       2.405   5.403  19.927  0.00  0.00    +0.000 A 
ATOM      9 CL   UNL     1       2.216   4.441  21.346  0.00  0.00    +0.000 Cl
ENDBRANCH   2   3
BRANCH   1  10
ATOM     10  O   UNL     1       2.244   1.527  18.002  0.00  0.00    +0.000 OA
ATOM     11  H   UNL     1       1.362   1.201  17.737  0.00  0.00    +0.000 HD
ENDBRANCH   1  10
BRANCH   2  12
ATOM     12  C   UNL     1       4.362   3.331  17.542  0.00  0.00    +0.000 C 
BRANCH  12  13
ATOM     13  S   UNL     1       4.997   4.434  16.239  0.00  0.00    +0.000 S 
BRANCH  13  14
ATOM     14  C   UNL     1       6.184   5.369  17.199  0.00  0.00    +0.000 A 
ATOM     15  C   UNL     1       6.718   4.839  18.371  0.00  0.00    +0.000 A 
ATOM     16  C   UNL     1       7.631   5.602  19.078  0.00  0.00    +0.000 A 
ATOM     17  N   UNL     1       8.044   6.830  18.693  0.00  0.00    +0.000 NA
ATOM     18  C   UNL     1       7.527   7.311  17.543  0.00  0.00    +0.000 A 
ATOM     19  C   UNL     1       6.610   6.625  16.768  0.00  0.00    +0.000 A 
ENDBRANCH  13  14
ENDBRANCH  12  13
ENDBRANCH   2  12
TORSDOF 5
ENDMDL
MODEL 5
REMARK VINA RESULT:      -6.0      2.556      3.195
REMARK  Name = 
REMARK  5 active torsions:
REMARK  status: ('A' for Active; 'I' for Inactive)
REMARK    1  A    between atoms: O_1  and  N_2
REMARK    2  A    between atoms: C_3  and  C_4
REMARK    3  A    between atoms: C_3  and  C_12
REMARK    4  A    between atoms: C_4  and  S_5
REMARK    5  A    between atoms: S_5  and  C_6
REMARK                            x       y       z     vdW  Elec       q    Type
REMARK                         _______ _______ _______ _____ _____    ______ ____
ROOT
ATOM      1  N   UNL     1       4.994   2.736  20.009  0.00  0.00    +0.000 NA
ATOM      2  C   UNL     1       4.320   3.535  19.229  0.00  0.00    +0.000 C 
ENDROOT
BRANCH   2   3
ATOM      3  C   UNL     1       5.138   4.018  18.092  0.00  0.00    +0.000 A 
ATOM      4  C   UNL     1       4.820   3.739  16.705  0.00  0.00    +0.000 A 
ATOM      5  C   UNL     1       5.707   4.316  15.836  0.00  0.00    +0.000 A 
ATOM      6 CL   UNL     1       5.684   4.209  14.125  0.00  0.00    +0.000 Cl
ATOM      7  S   UNL     1       6.907   5.210  16.611  0.00  0.00    +0.000 S 
ATOM      8  C   UNL     1       6.255   4.835  18.140  0.00  0.00    +0.000 A 
ATOM      9 CL   UNL     1       7.039   5.561  19.493  0.00  0.00    +0.000 Cl
ENDBRANCH   2   3
BRANCH   1  10
ATOM     10  O   UNL     1       4.238   2.149  21.017  0.00  0.00    +0.000 OA
ATOM     11  H   UNL     1       4.172   2.865  21.678  0.00  0.00    +0.000 HD
ENDBRANCH   1  10
BRANCH   2  12
ATOM     12  C   UNL     1       2.848   3.921  19.320  0.00  0.00    +0.000 C 
BRANCH  12  13
ATOM     13  S   UNL     1       2.347   4.980  20.714  0.00  0.00    +0.000 S 
BRANCH  13  14
ATOM     14  C   UNL     1       2.164   6.537  19.851  0.00  0.00    +0.000 A 
ATOM     15  C   UNL     1       1.628   7.645  20.503  0.00  0.00    +0.000 A 
ATOM     16  C   UNL     1       1.504   8.826  19.791  0.00  0.00    +0.000 A 
ATOM     17  N   UNL     1       1.883   8.972  18.502  0.00  0.00    +0.000 NA
ATOM     18  C   UNL     1       2.419   7.888  17.902  0.00  0.00    +0.000 A 
ATOM     19  C   UNL     1       2.583   6.667  18.528  0.00  0.00    +0.000 A 
ENDBRANCH  13  14
ENDBRANCH  12  13
ENDBRANCH   2  12
TORSDOF 5
ENDMDL
MODEL 6
REMARK VINA RESULT:      -6.0      1.852      2.345
REMARK  Name = 
REMARK  5 active torsions:
REMARK  status: ('A' for Active; 'I' for Inactive)
REMARK    1  A    between atoms: O_1  and  N_2
REMARK    2  A    between atoms: C_3  and  C_4
REMARK    3  A    between atoms: C_3  and  C_12
REMARK    4  A    between atoms: C_4  and  S_5
REMARK    5  A    between atoms: S_5  and  C_6
REMARK                            x       y       z     vdW  Elec       q    Type
REMARK                         _______ _______ _______ _____ _____    ______ ____
ROOT
ATOM      1  N   UNL     1       4.269   2.051  18.084  0.00  0.00    +0.000 NA
ATOM      2  C   UNL     1       3.877   3.085  17.392  0.00  0.00    +0.000 C 
ENDROOT
BRANCH   2   3
ATOM      3  C   UNL     1       5.020   3.903  16.925  0.00  0.00    +0.000 A 
ATOM      4  C   UNL     1       5.468   3.934  15.546  0.00  0.00    +0.000 A 
ATOM      5  C   UNL     1       6.523   4.786  15.355  0.00  0.00    +0.000 A 
ATOM      6 CL   UNL     1       7.342   5.090  13.879  0.00  0.00    +0.000 Cl
ATOM      7  S   UNL     1       6.996   5.581  16.763  0.00  0.00    +0.000 S 
ATOM      8  C   UNL     1       5.786   4.789  17.664  0.00  0.00    +0.000 A 
ATOM      9 CL   UNL     1       5.661   5.243  19.323  0.00  0.00    +0.000 Cl
ENDBRANCH   2   3
BRANCH   1  10
ATOM     10  O   UNL     1       3.246   1.178  18.435  0.00  0.00    +0.000 OA
ATOM     11  H   UNL     1       3.533   0.339  18.026  0.00  0.00    +0.000 HD
ENDBRANCH   1  10
BRANCH   2  12
ATOM     12  C   UNL     1       2.459   3.457  16.973  0.00  0.00    +0.000 C 
BRANCH  12  13
ATOM     13  S   UNL     1       1.645   4.806  17.886  0.00  0.00    +0.000 S 
BRANCH  13  14
ATOM     14  C   UNL     1       1.738   4.137  19.544  0.00  0.00    +0.000 A 
ATOM     15  C   UNL     1       2.530   4.753  20.509  0.00  0.00    +0.000 A 
ATOM     16  C   UNL     1       2.570   4.196  21.776  0.00  0.00    +0.000 A 
ATOM     17  N   UNL     1       1.876   3.093  22.136  0.00  0.00    +0.000 NA
ATOM     18  C   UNL     1       1.100   2.529  21.187  0.00  0.00    +0.000 A 
ATOM     19  C   UNL     1       0.995   3.011  19.895  0.00  0.00    +0.000 A 
ENDBRANCH  13  14
ENDBRANCH  12  13
ENDBRANCH   2  12
TORSDOF 5
ENDMDL
MODEL 7
REMARK VINA RESULT:      -5.9      3.297      6.237
REMARK  Name = 
REMARK  5 active torsions:
REMARK  status: ('A' for Active; 'I' for Inactive)
REMARK    1  A    between atoms: O_1  and  N_2
REMARK    2  A    between atoms: C_3  and  C_4
REMARK    3  A    between atoms: C_3  and  C_12
REMARK    4  A    between atoms: C_4  and  S_5
REMARK    5  A    between atoms: S_5  and  C_6
REMARK                            x       y       z     vdW  Elec       q    Type
REMARK                         _______ _______ _______ _____ _____    ______ ____
ROOT
ATOM      1  N   UNL     1       6.650   5.150  19.687  0.00  0.00    +0.000 NA
ATOM      2  C   UNL     1       5.929   4.840  18.645  0.00  0.00    +0.000 C 
ENDROOT
BRANCH   2   3
ATOM      3  C   UNL     1       4.499   4.671  18.994  0.00  0.00    +0.000 A 
ATOM      4  C   UNL     1       3.990   3.538  19.743  0.00  0.00    +0.000 A 
ATOM      5  C   UNL     1       2.641   3.620  19.967  0.00  0.00    +0.000 A 
ATOM      6 CL   UNL     1       1.668   2.477  20.797  0.00  0.00    +0.000 Cl
ATOM      7  S   UNL     1       1.948   5.020  19.335  0.00  0.00    +0.000 S 
ATOM      8  C   UNL     1       3.456   5.546  18.743  0.00  0.00    +0.000 A 
ATOM      9 CL   UNL     1       3.468   7.092  17.978  0.00  0.00    +0.000 Cl
ENDBRANCH   2   3
BRANCH   1  10
ATOM     10  O   UNL     1       7.976   5.450  19.394  0.00  0.00    +0.000 OA
ATOM     11  H   UNL     1       7.988   5.428  18.418  0.00  0.00    +0.000 HD
ENDBRANCH   1  10
BRANCH   2  12
ATOM     12  C   UNL     1       6.370   4.732  17.190  0.00  0.00    +0.000 C 
BRANCH  12  13
ATOM     13  S   UNL     1       5.296   3.791  16.060  0.00  0.00    +0.000 S 
BRANCH  13  14
ATOM     14  C   UNL     1       6.142   4.111  14.515  0.00  0.00    +0.000 A 
ATOM     15  C   UNL     1       7.197   5.019  14.464  0.00  0.00    +0.000 A 
ATOM     16  C   UNL     1       7.817   5.233  13.245  0.00  0.00    +0.000 A 
ATOM     17  N   UNL     1       7.466   4.604  12.100  0.00  0.00    +0.000 NA
ATOM     18  C   UNL     1       6.455   3.714  12.184  0.00  0.00    +0.000 A 
ATOM     19  C   UNL     1       5.775   3.433  13.354  0.00  0.00    +0.000 A 
ENDBRANCH  13  14
ENDBRANCH  12  13
ENDBRANCH   2  12
TORSDOF 5
ENDMDL
MODEL 8
REMARK VINA RESULT:      -5.8      2.735      4.158
REMARK  Name = 
REMARK  5 active torsions:
REMARK  status: ('A' for Active; 'I' for Inactive)
REMARK    1  A    between atoms: O_1  and  N_2
REMARK    2  A    between atoms: C_3  and  C_4
REMARK    3  A    between atoms: C_3  and  C_12
REMARK    4  A    between atoms: C_4  and  S_5
REMARK    5  A    between atoms: S_5  and  C_6
REMARK                            x       y       z     vdW  Elec       q    Type
REMARK                         _______ _______ _______ _____ _____    ______ ____
ROOT
ATOM      1  N   UNL     1       5.853   4.831  18.671  0.00  0.00    +0.000 NA
ATOM      2  C   UNL     1       4.697   4.703  18.080  0.00  0.00    +0.000 C 
ENDROOT
BRANCH   2   3
ATOM      3  C   UNL     1       3.837   5.891  18.289  0.00  0.00    +0.000 A 
ATOM      4  C   UNL     1       3.046   6.103  19.486  0.00  0.00    +0.000 A 
ATOM      5  C   UNL     1       2.358   7.287  19.458  0.00  0.00    +0.000 A 
ATOM      6 CL   UNL     1       1.305   7.890  20.671  0.00  0.00    +0.000 Cl
ATOM      7  S   UNL     1       2.634   8.182  18.057  0.00  0.00    +0.000 S 
ATOM      8  C   UNL     1       3.690   6.988  17.456  0.00  0.00    +0.000 A 
ATOM      9 CL   UNL     1       4.449   7.343  15.948  0.00  0.00    +0.000 Cl
ENDBRANCH   2   3
BRANCH   1  10
ATOM     10  O   UNL     1       6.749   3.803  18.398  0.00  0.00    +0.000 OA
ATOM     11  H   UNL     1       7.426   4.250  17.855  0.00  0.00    +0.000 HD
ENDBRANCH   1  10
BRANCH   2  12
ATOM     12  C   UNL     1       4.215   3.568  17.185  0.00  0.00    +0.000 C 
BRANCH  12  13
ATOM     13  S   UNL     1       3.938   1.947  17.969  0.00  0.00    +0.000 S 
BRANCH  13  14
ATOM     14  C   UNL     1       2.843   2.444  19.294  0.00  0.00    +0.000 A 
ATOM     15  C   UNL     1       3.307   2.506  20.606  0.00  0.00    +0.000 A 
ATOM     16  C   UNL     1       2.420   2.893  21.596  0.00  0.00    +0.000 A 
ATOM     17  N   UNL     1       1.131   3.226  21.364  0.00  0.00    +0.000 NA
ATOM     18  C   UNL     1       0.714   3.177  20.081  0.00  0.00    +0.000 A 
ATOM     19  C   UNL     1       1.524   2.803  19.025  0.00  0.00    +0.000 A 
ENDBRANCH  13  14
ENDBRANCH  12  13
ENDBRANCH   2  12
TORSDOF 5
ENDMDL
MODEL 9
REMARK VINA RESULT:      -5.8      2.537      3.150
REMARK  Name = 
REMARK  5 active torsions:
REMARK  status: ('A' for Active; 'I' for Inactive)
REMARK    1  A    between atoms: O_1  and  N_2
REMARK    2  A    between atoms: C_3  and  C_4
REMARK    3  A    between atoms: C_3  and  C_12
REMARK    4  A    between atoms: C_4  and  S_5
REMARK    5  A    between atoms: S_5  and  C_6
REMARK                            x       y       z     vdW  Elec       q    Type
REMARK                         _______ _______ _______ _____ _____    ______ ____
ROOT
ATOM      1  N   UNL     1       7.780   4.104  16.579  0.00  0.00    +0.000 NA
ATOM      2  C   UNL     1       7.095   5.028  15.960  0.00  0.00    +0.000 C 
ENDROOT
BRANCH   2   3
ATOM      3  C   UNL     1       6.872   4.688  14.536  0.00  0.00    +0.000 A 
ATOM      4  C   UNL     1       5.704   3.972  14.060  0.00  0.00    +0.000 A 
ATOM      5  C   UNL     1       5.708   3.803  12.702  0.00  0.00    +0.000 A 
ATOM      6 CL   UNL     1       4.519   2.998  11.764  0.00  0.00    +0.000 Cl
ATOM      7  S   UNL     1       7.052   4.491  11.953  0.00  0.00    +0.000 S 
ATOM      8  C   UNL     1       7.659   5.032  13.450  0.00  0.00    +0.000 A 
ATOM      9 CL   UNL     1       9.112   5.959  13.384  0.00  0.00    +0.000 Cl
ENDBRANCH   2   3
BRANCH   1  10
ATOM     10  O   UNL     1       7.905   4.308  17.948  0.00  0.00    +0.000 OA
ATOM     11  H   UNL     1       8.479   3.567  18.222  0.00  0.00    +0.000 HD
ENDBRANCH   1  10
BRANCH   2  12
ATOM     12  C   UNL     1       6.471   6.289  16.545  0.00  0.00    +0.000 C 
BRANCH  12  13
ATOM     13  S   UNL     1       4.655   6.338  16.676  0.00  0.00    +0.000 S 
BRANCH  13  14
ATOM     14  C   UNL     1       4.387   4.840  17.618  0.00  0.00    +0.000 A 
ATOM     15  C   UNL     1       4.788   4.764  18.950  0.00  0.00    +0.000 A 
ATOM     16  C   UNL     1       4.561   3.583  19.635  0.00  0.00    +0.000 A 
ATOM     17  N   UNL     1       3.961   2.500  19.091  0.00  0.00    +0.000 NA
ATOM     18  C   UNL     1       3.564   2.610  17.806  0.00  0.00    +0.000 A 
ATOM     19  C   UNL     1       3.747   3.746  17.040  0.00  0.00    +0.000 A 
ENDBRANCH  13  14
ENDBRANCH  12  13
ENDBRANCH   2  12
TORSDOF 5
ENDMDL
