MODEL 1
REMARK VINA RESULT:      -7.6      0.000      0.000
REMARK  Name = 
REMARK  8 active torsions:
REMARK  status: ('A' for Active; 'I' for Inactive)
REMARK    1  A    between atoms: C_1  and  C_2
REMARK    2  A    between atoms: C_5  and  C_6
REMARK    3  A    between atoms: C_8  and  C_9
REMARK    4  A    between atoms: N_20  and  C_21
REMARK    5  A    between atoms: C_21  and  C_22
REMARK    6  A    between atoms: N_24  and  C_25
REMARK    7  A    between atoms: C_28  and  C_29
REMARK    8  A    between atoms: C_31  and  C_32
REMARK                            x       y       z     vdW  Elec       q    Type
REMARK                         _______ _______ _______ _____ _____    ______ ____
ROOT
ATOM      1  C   UNL     1      -1.053  12.892  19.542  0.00  0.00    +0.000 C 
ATOM      2  C   UNL     1      -0.455  13.719  18.663  0.00  0.00    +0.000 C 
ATOM      3  C   UNL     1       0.839  14.437  19.050  0.00  0.00    +0.000 C 
ATOM      4  N   UNL     1       0.922  14.530  20.509  0.00  0.00    +0.000 N 
ATOM      5  N   UNL     1       1.712  15.364  21.202  0.00  0.00    +0.000 NA
ATOM      6  N   UNL     1       1.553  14.995  22.470  0.00  0.00    +0.000 NA
ATOM      7  N   UNL     1       0.698  13.914  22.577  0.00  0.00    +0.000 NA
ATOM      8  C   UNL     1       0.315  13.637  21.354  0.00  0.00    +0.000 A 
ATOM      9  N   UNL     1      -0.521  12.684  20.827  0.00  0.00    +0.000 N 
ENDROOT
BRANCH   1  14
ATOM     10  C   UNL     1      -6.298  10.726  18.287  0.00  0.00    +0.000 C 
ATOM     11  C   UNL     1      -4.934  11.273  18.600  0.00  0.00    +0.000 A 
ATOM     12  C   UNL     1      -3.797  10.825  17.916  0.00  0.00    +0.000 A 
ATOM     13  C   UNL     1      -2.530  11.350  18.210  0.00  0.00    +0.000 A 
ATOM     14  C   UNL     1      -2.375  12.320  19.203  0.00  0.00    +0.000 A 
ATOM     15  C   UNL     1      -3.515  12.769  19.888  0.00  0.00    +0.000 A 
ATOM     16  C   UNL     1      -4.783  12.254  19.587  0.00  0.00    +0.000 A 
ENDBRANCH   1  14
BRANCH   3  17
ATOM     17  C   UNL     1       1.039  15.774  18.350  0.00  0.00    +0.000 A 
ATOM     18  C   UNL     1       2.279  16.167  17.822  0.00  0.00    +0.000 A 
ATOM     19  C   UNL     1       2.423  17.401  17.179  0.00  0.00    +0.000 A 
ATOM     20  C   UNL     1       1.332  18.258  17.047  0.00  0.00    +0.000 A 
ATOM     21  C   UNL     1       0.092  17.883  17.558  0.00  0.00    +0.000 A 
ATOM     22  C   UNL     1      -0.053  16.654  18.204  0.00  0.00    +0.000 A 
ENDBRANCH   3  17
BRANCH   9  23
ATOM     23  C   UNL     1      -0.802  11.477  21.628  0.00  0.00    +0.000 C 
BRANCH  23  24
ATOM     24  C   UNL     1       0.258  10.369  21.488  0.00  0.00    +0.000 C 
ATOM     25  O   UNL     1       1.191  10.323  22.290  0.00  0.00    +0.000 OA
ATOM     26  N   UNL     1       0.085   9.541  20.378  0.00  0.00    +0.000 N 
ATOM     27  H   UNL     1      -0.730   9.702  19.802  0.00  0.00    +0.000 HD
BRANCH  26  28
ATOM     28  C   UNL     1       0.977   8.524  19.940  0.00  0.00    +0.000 A 
ATOM     29  C   UNL     1       1.178   7.360  20.692  0.00  0.00    +0.000 A 
ATOM     30  C   UNL     1       2.142   6.416  20.339  0.00  0.00    +0.000 A 
ATOM     31  C   UNL     1       2.930   6.602  19.208  0.00  0.00    +0.000 A 
ATOM     32  C   UNL     1       4.024   5.631  18.880  0.00  0.00    +0.000 C 
ATOM     33  C   UNL     1       2.687   7.719  18.400  0.00  0.00    +0.000 A 
ATOM     34  C   UNL     1       1.708   8.681  18.741  0.00  0.00    +0.000 A 
ATOM     35  C   UNL     1       1.515   9.846  17.807  0.00  0.00    +0.000 C 
ENDBRANCH  26  28
ENDBRANCH  23  24
ENDBRANCH   9  23
TORSDOF 5
ENDMDL
MODEL 2
REMARK VINA RESULT:      -7.6      0.788      1.186
REMARK  Name = 
REMARK  8 active torsions:
REMARK  status: ('A' for Active; 'I' for Inactive)
REMARK    1  A    between atoms: C_1  and  C_2
REMARK    2  A    between atoms: C_5  and  C_6
REMARK    3  A    between atoms: C_8  and  C_9
REMARK    4  A    between atoms: N_20  and  C_21
REMARK    5  A    between atoms: C_21  and  C_22
REMARK    6  A    between atoms: N_24  and  C_25
REMARK    7  A    between atoms: C_28  and  C_29
REMARK    8  A    between atoms: C_31  and  C_32
REMARK                            x       y       z     vdW  Elec       q    Type
REMARK                         _______ _______ _______ _____ _____    ______ ____
ROOT
ATOM      1  C   UNL     1      -1.474  13.241  20.048  0.00  0.00    +0.000 C 
ATOM      2  C   UNL     1      -0.788  13.938  19.121  0.00  0.00    +0.000 C 
ATOM      3  C   UNL     1       0.487  14.684  19.516  0.00  0.00    +0.000 C 
ATOM      4  N   UNL     1       0.455  14.967  20.952  0.00  0.00    +0.000 N 
ATOM      5  N   UNL     1       1.206  15.875  21.595  0.00  0.00    +0.000 NA
ATOM      6  N   UNL     1       0.938  15.677  22.882  0.00  0.00    +0.000 NA
ATOM      7  N   UNL     1       0.053  14.630  23.058  0.00  0.00    +0.000 NA
ATOM      8  C   UNL     1      -0.238  14.201  21.853  0.00  0.00    +0.000 A 
ATOM      9  N   UNL     1      -1.051  13.197  21.388  0.00  0.00    +0.000 N 
ENDROOT
BRANCH   1  14
ATOM     10  C   UNL     1      -6.538  10.836  18.518  0.00  0.00    +0.000 C 
ATOM     11  C   UNL     1      -5.238  11.469  18.925  0.00  0.00    +0.000 A 
ATOM     12  C   UNL     1      -5.177  12.386  19.982  0.00  0.00    +0.000 A 
ATOM     13  C   UNL     1      -3.955  12.964  20.360  0.00  0.00    +0.000 A 
ATOM     14  C   UNL     1      -2.778  12.647  19.679  0.00  0.00    +0.000 A 
ATOM     15  C   UNL     1      -2.840  11.727  18.621  0.00  0.00    +0.000 A 
ATOM     16  C   UNL     1      -4.058  11.140  18.250  0.00  0.00    +0.000 A 
ENDBRANCH   1  14
BRANCH   3  17
ATOM     17  C   UNL     1       0.773  15.916  18.667  0.00  0.00    +0.000 A 
ATOM     18  C   UNL     1       2.061  16.226  18.205  0.00  0.00    +0.000 A 
ATOM     19  C   UNL     1       2.285  17.362  17.421  0.00  0.00    +0.000 A 
ATOM     20  C   UNL     1       1.226  18.203  17.081  0.00  0.00    +0.000 A 
ATOM     21  C   UNL     1      -0.060  17.909  17.526  0.00  0.00    +0.000 A 
ATOM     22  C   UNL     1      -0.285  16.777  18.312  0.00  0.00    +0.000 A 
ENDBRANCH   3  17
BRANCH   9  23
ATOM     23  C   UNL     1      -1.422  12.109  22.313  0.00  0.00    +0.000 C 
BRANCH  23  24
ATOM     24  C   UNL     1      -0.546  10.850  22.187  0.00  0.00    +0.000 C 
ATOM     25  O   UNL     1       0.045  10.426  23.180  0.00  0.00    +0.000 OA
ATOM     26  N   UNL     1      -0.450  10.340  20.891  0.00  0.00    +0.000 N 
ATOM     27  H   UNL     1      -0.991  10.799  20.171  0.00  0.00    +0.000 HD
BRANCH  26  28
ATOM     28  C   UNL     1       0.384   9.268  20.468  0.00  0.00    +0.000 A 
ATOM     29  C   UNL     1       0.551   8.123  21.256  0.00  0.00    +0.000 A 
ATOM     30  C   UNL     1       1.462   7.124  20.913  0.00  0.00    +0.000 A 
ATOM     31  C   UNL     1       2.228   7.235  19.758  0.00  0.00    +0.000 A 
ATOM     32  C   UNL     1       3.268   6.204  19.438  0.00  0.00    +0.000 C 
ATOM     33  C   UNL     1       2.016   8.334  18.917  0.00  0.00    +0.000 A 
ATOM     34  C   UNL     1       1.091   9.351  19.248  0.00  0.00    +0.000 A 
ATOM     35  C   UNL     1       0.927  10.491  18.278  0.00  0.00    +0.000 C 
ENDBRANCH  26  28
ENDBRANCH  23  24
ENDBRANCH   9  23
TORSDOF 5
ENDMDL
MODEL 3
REMARK VINA RESULT:      -7.6      1.465      2.082
REMARK  Name = 
REMARK  8 active torsions:
REMARK  status: ('A' for Active; 'I' for Inactive)
REMARK    1  A    between atoms: C_1  and  C_2
REMARK    2  A    between atoms: C_5  and  C_6
REMARK    3  A    between atoms: C_8  and  C_9
REMARK    4  A    between atoms: N_20  and  C_21
REMARK    5  A    between atoms: C_21  and  C_22
REMARK    6  A    between atoms: N_24  and  C_25
REMARK    7  A    between atoms: C_28  and  C_29
REMARK    8  A    between atoms: C_31  and  C_32
REMARK                            x       y       z     vdW  Elec       q    Type
REMARK                         _______ _______ _______ _____ _____    ______ ____
ROOT
ATOM      1  C   UNL     1      -0.949  12.403  18.809  0.00  0.00    +0.000 C 
ATOM      2  C   UNL     1      -0.611  13.581  18.247  0.00  0.00    +0.000 C 
ATOM      3  C   UNL     1       0.780  14.169  18.488  0.00  0.00    +0.000 C 
ATOM      4  N   UNL     1       1.327  13.623  19.732  0.00  0.00    +0.000 N 
ATOM      5  N   UNL     1       2.346  14.136  20.439  0.00  0.00    +0.000 NA
ATOM      6  N   UNL     1       2.574  13.238  21.393  0.00  0.00    +0.000 NA
ATOM      7  N   UNL     1       1.733  12.148  21.271  0.00  0.00    +0.000 NA
ATOM      8  C   UNL     1       0.965  12.401  20.238  0.00  0.00    +0.000 A 
ATOM      9  N   UNL     1      -0.051  11.703  19.633  0.00  0.00    +0.000 N 
ENDROOT
BRANCH   1  14
ATOM     10  C   UNL     1      -6.456  10.595  18.396  0.00  0.00    +0.000 C 
ATOM     11  C   UNL     1      -5.028  11.050  18.490  0.00  0.00    +0.000 A 
ATOM     12  C   UNL     1      -4.049  10.555  17.618  0.00  0.00    +0.000 A 
ATOM     13  C   UNL     1      -2.719  10.993  17.709  0.00  0.00    +0.000 A 
ATOM     14  C   UNL     1      -2.343  11.923  18.682  0.00  0.00    +0.000 A 
ATOM     15  C   UNL     1      -3.323  12.419  19.554  0.00  0.00    +0.000 A 
ATOM     16  C   UNL     1      -4.655  11.989  19.457  0.00  0.00    +0.000 A 
ENDBRANCH   1  14
BRANCH   3  17
ATOM     17  C   UNL     1       0.829  15.690  18.427  0.00  0.00    +0.000 A 
ATOM     18  C   UNL     1       1.985  16.388  18.046  0.00  0.00    +0.000 A 
ATOM     19  C   UNL     1       1.991  17.786  17.994  0.00  0.00    +0.000 A 
ATOM     20  C   UNL     1       0.842  18.508  18.315  0.00  0.00    +0.000 A 
ATOM     21  C   UNL     1      -0.316  17.831  18.690  0.00  0.00    +0.000 A 
ATOM     22  C   UNL     1      -0.323  16.437  18.746  0.00  0.00    +0.000 A 
ENDBRANCH   3  17
BRANCH   9  23
ATOM     23  C   UNL     1      -0.136  10.248  19.863  0.00  0.00    +0.000 C 
BRANCH  23  24
ATOM     24  C   UNL     1       0.750   9.411  18.923  0.00  0.00    +0.000 C 
ATOM     25  O   UNL     1       0.618   9.531  17.705  0.00  0.00    +0.000 OA
ATOM     26  N   UNL     1       1.597   8.512  19.574  0.00  0.00    +0.000 N 
ATOM     27  H   UNL     1       1.594   8.523  20.585  0.00  0.00    +0.000 HD
BRANCH  26  28
ATOM     28  C   UNL     1       2.426   7.538  18.955  0.00  0.00    +0.000 A 
ATOM     29  C   UNL     1       3.224   7.858  17.850  0.00  0.00    +0.000 A 
ATOM     30  C   UNL     1       3.942   6.884  17.157  0.00  0.00    +0.000 A 
ATOM     31  C   UNL     1       3.895   5.554  17.559  0.00  0.00    +0.000 A 
ATOM     32  C   UNL     1       4.596   4.497  16.761  0.00  0.00    +0.000 C 
ATOM     33  C   UNL     1       3.166   5.228  18.709  0.00  0.00    +0.000 A 
ATOM     34  C   UNL     1       2.439   6.206  19.426  0.00  0.00    +0.000 A 
ATOM     35  C   UNL     1       1.691   5.761  20.655  0.00  0.00    +0.000 C 
ENDBRANCH  26  28
ENDBRANCH  23  24
ENDBRANCH   9  23
TORSDOF 5
ENDMDL
MODEL 4
REMARK VINA RESULT:      -7.5      0.079      1.171
REMARK  Name = 
REMARK  8 active torsions:
REMARK  status: ('A' for Active; 'I' for Inactive)
REMARK    1  A    between atoms: C_1  and  C_2
REMARK    2  A    between atoms: C_5  and  C_6
REMARK    3  A    between atoms: C_8  and  C_9
REMARK    4  A    between atoms: N_20  and  C_21
REMARK    5  A    between atoms: C_21  and  C_22
REMARK    6  A    between atoms: N_24  and  C_25
REMARK    7  A    between atoms: C_28  and  C_29
REMARK    8  A    between atoms: C_31  and  C_32
REMARK                            x       y       z     vdW  Elec       q    Type
REMARK                         _______ _______ _______ _____ _____    ______ ____
ROOT
ATOM      1  C   UNL     1      -1.070  12.916  19.582  0.00  0.00    +0.000 C 
ATOM      2  C   UNL     1      -0.482  13.735  18.688  0.00  0.00    +0.000 C 
ATOM      3  C   UNL     1       0.834  14.431  19.041  0.00  0.00    +0.000 C 
ATOM      4  N   UNL     1       0.957  14.520  20.497  0.00  0.00    +0.000 N 
ATOM      5  N   UNL     1       1.780  15.340  21.170  0.00  0.00    +0.000 NA
ATOM      6  N   UNL     1       1.649  14.971  22.441  0.00  0.00    +0.000 NA
ATOM      7  N   UNL     1       0.781  13.904  22.570  0.00  0.00    +0.000 NA
ATOM      8  C   UNL     1       0.359  13.636  21.357  0.00  0.00    +0.000 A 
ATOM      9  N   UNL     1      -0.506  12.697  20.852  0.00  0.00    +0.000 N 
ENDROOT
BRANCH   1  14
ATOM     10  C   UNL     1      -6.282  10.681  18.314  0.00  0.00    +0.000 C 
ATOM     11  C   UNL     1      -4.942  11.271  18.653  0.00  0.00    +0.000 A 
ATOM     12  C   UNL     1      -4.810  12.242  19.654  0.00  0.00    +0.000 A 
ATOM     13  C   UNL     1      -3.552  12.780  19.969  0.00  0.00    +0.000 A 
ATOM     14  C   UNL     1      -2.410  12.367  19.279  0.00  0.00    +0.000 A 
ATOM     15  C   UNL     1      -2.543  11.394  18.277  0.00  0.00    +0.000 A 
ATOM     16  C   UNL     1      -3.798  10.848  17.969  0.00  0.00    +0.000 A 
ENDBRANCH   1  14
BRANCH   3  17
ATOM     17  C   UNL     1       1.036  15.766  18.337  0.00  0.00    +0.000 A 
ATOM     18  C   UNL     1       0.002  16.704  18.196  0.00  0.00    +0.000 A 
ATOM     19  C   UNL     1       0.228  17.924  17.549  0.00  0.00    +0.000 A 
ATOM     20  C   UNL     1       1.490  18.229  17.040  0.00  0.00    +0.000 A 
ATOM     21  C   UNL     1       2.529  17.312  17.176  0.00  0.00    +0.000 A 
ATOM     22  C   UNL     1       2.306  16.093  17.817  0.00  0.00    +0.000 A 
ENDBRANCH   3  17
BRANCH   9  23
ATOM     23  C   UNL     1      -0.784  11.494  21.659  0.00  0.00    +0.000 C 
BRANCH  23  24
ATOM     24  C   UNL     1       0.264  10.377  21.505  0.00  0.00    +0.000 C 
ATOM     25  O   UNL     1       1.178  10.293  22.325  0.00  0.00    +0.000 OA
ATOM     26  N   UNL     1       0.106   9.588  20.364  0.00  0.00    +0.000 N 
ATOM     27  H   UNL     1      -0.694   9.779  19.777  0.00  0.00    +0.000 HD
BRANCH  26  28
ATOM     28  C   UNL     1       0.994   8.575  19.912  0.00  0.00    +0.000 A 
ATOM     29  C   UNL     1       1.224   7.419  20.668  0.00  0.00    +0.000 A 
ATOM     30  C   UNL     1       2.187   6.480  20.299  0.00  0.00    +0.000 A 
ATOM     31  C   UNL     1       2.944   6.663  19.146  0.00  0.00    +0.000 A 
ATOM     32  C   UNL     1       4.037   5.698  18.798  0.00  0.00    +0.000 C 
ATOM     33  C   UNL     1       2.671   7.771  18.335  0.00  0.00    +0.000 A 
ATOM     34  C   UNL     1       1.693   8.727  18.694  0.00  0.00    +0.000 A 
ATOM     35  C   UNL     1       1.466   9.883  17.755  0.00  0.00    +0.000 C 
ENDBRANCH  26  28
ENDBRANCH  23  24
ENDBRANCH   9  23
TORSDOF 5
ENDMDL
MODEL 5
REMARK VINA RESULT:      -7.3      3.294      5.018
REMARK  Name = 
REMARK  8 active torsions:
REMARK  status: ('A' for Active; 'I' for Inactive)
REMARK    1  A    between atoms: C_1  and  C_2
REMARK    2  A    between atoms: C_5  and  C_6
REMARK    3  A    between atoms: C_8  and  C_9
REMARK    4  A    between atoms: N_20  and  C_21
REMARK    5  A    between atoms: C_21  and  C_22
REMARK    6  A    between atoms: N_24  and  C_25
REMARK    7  A    between atoms: C_28  and  C_29
REMARK    8  A    between atoms: C_31  and  C_32
REMARK                            x       y       z     vdW  Elec       q    Type
REMARK                         _______ _______ _______ _____ _____    ______ ____
ROOT
ATOM      1  C   UNL     1      -2.194  11.685  19.224  0.00  0.00    +0.000 C 
ATOM      2  C   UNL     1      -3.100  12.258  20.041  0.00  0.00    +0.000 C 
ATOM      3  C   UNL     1      -2.699  12.666  21.459  0.00  0.00    +0.000 C 
ATOM      4  N   UNL     1      -1.545  11.870  21.882  0.00  0.00    +0.000 N 
ATOM      5  N   UNL     1      -1.126  11.699  23.146  0.00  0.00    +0.000 NA
ATOM      6  N   UNL     1       0.018  11.030  23.028  0.00  0.00    +0.000 NA
ATOM      7  N   UNL     1       0.340  10.812  21.702  0.00  0.00    +0.000 NA
ATOM      8  C   UNL     1      -0.637  11.338  21.004  0.00  0.00    +0.000 A 
ATOM      9  N   UNL     1      -0.879  11.434  19.656  0.00  0.00    +0.000 N 
ENDROOT
BRANCH   1  14
ATOM     10  C   UNL     1      -3.874   9.740  14.012  0.00  0.00    +0.000 C 
ATOM     11  C   UNL     1      -3.450  10.230  15.368  0.00  0.00    +0.000 A 
ATOM     12  C   UNL     1      -3.805   9.538  16.533  0.00  0.00    +0.000 A 
ATOM     13  C   UNL     1      -3.396  10.000  17.794  0.00  0.00    +0.000 A 
ATOM     14  C   UNL     1      -2.638  11.168  17.911  0.00  0.00    +0.000 A 
ATOM     15  C   UNL     1      -2.282  11.859  16.744  0.00  0.00    +0.000 A 
ATOM     16  C   UNL     1      -2.681  11.393  15.483  0.00  0.00    +0.000 A 
ENDBRANCH   1  14
BRANCH   3  17
ATOM     17  C   UNL     1      -3.846  12.641  22.460  0.00  0.00    +0.000 A 
ATOM     18  C   UNL     1      -3.640  12.438  23.833  0.00  0.00    +0.000 A 
ATOM     19  C   UNL     1      -4.719  12.428  24.724  0.00  0.00    +0.000 A 
ATOM     20  C   UNL     1      -6.018  12.627  24.259  0.00  0.00    +0.000 A 
ATOM     21  C   UNL     1      -6.241  12.836  22.900  0.00  0.00    +0.000 A 
ATOM     22  C   UNL     1      -5.167  12.842  22.009  0.00  0.00    +0.000 A 
ENDBRANCH   3  17
BRANCH   9  23
ATOM     23  C   UNL     1       0.258  11.290  18.727  0.00  0.00    +0.000 C 
BRANCH  23  24
ATOM     24  C   UNL     1       0.611   9.831  18.386  0.00  0.00    +0.000 C 
ATOM     25  O   UNL     1      -0.107   9.205  17.607  0.00  0.00    +0.000 OA
ATOM     26  N   UNL     1       1.711   9.325  19.080  0.00  0.00    +0.000 N 
ATOM     27  H   UNL     1       2.203   9.959  19.694  0.00  0.00    +0.000 HD
BRANCH  26  28
ATOM     28  C   UNL     1       2.178   7.982  19.053  0.00  0.00    +0.000 A 
ATOM     29  C   UNL     1       2.941   7.499  17.983  0.00  0.00    +0.000 A 
ATOM     30  C   UNL     1       3.295   6.154  17.884  0.00  0.00    +0.000 A 
ATOM     31  C   UNL     1       2.906   5.248  18.865  0.00  0.00    +0.000 A 
ATOM     32  C   UNL     1       3.213   3.789  18.712  0.00  0.00    +0.000 C 
ATOM     33  C   UNL     1       2.213   5.728  19.982  0.00  0.00    +0.000 A 
ATOM     34  C   UNL     1       1.852   7.091  20.100  0.00  0.00    +0.000 A 
ATOM     35  C   UNL     1       1.112   7.515  21.340  0.00  0.00    +0.000 C 
ENDBRANCH  26  28
ENDBRANCH  23  24
ENDBRANCH   9  23
TORSDOF 5
ENDMDL
MODEL 6
REMARK VINA RESULT:      -7.3      2.800      5.354
REMARK  Name = 
REMARK  8 active torsions:
REMARK  status: ('A' for Active; 'I' for Inactive)
REMARK    1  A    between atoms: C_1  and  C_2
REMARK    2  A    between atoms: C_5  and  C_6
REMARK    3  A    between atoms: C_8  and  C_9
REMARK    4  A    between atoms: N_20  and  C_21
REMARK    5  A    between atoms: C_21  and  C_22
REMARK    6  A    between atoms: N_24  and  C_25
REMARK    7  A    between atoms: C_28  and  C_29
REMARK    8  A    between atoms: C_31  and  C_32
REMARK                            x       y       z     vdW  Elec       q    Type
REMARK                         _______ _______ _______ _____ _____    ______ ____
ROOT
ATOM      1  C   UNL     1      -3.092  12.094  19.069  0.00  0.00    +0.000 C 
ATOM      2  C   UNL     1      -4.268  12.389  19.659  0.00  0.00    +0.000 C 
ATOM      3  C   UNL     1      -4.288  12.956  21.079  0.00  0.00    +0.000 C 
ATOM      4  N   UNL     1      -3.055  12.573  21.769  0.00  0.00    +0.000 N 
ATOM      5  N   UNL     1      -2.857  12.588  23.096  0.00  0.00    +0.000 NA
ATOM      6  N   UNL     1      -1.566  12.303  23.243  0.00  0.00    +0.000 NA
ATOM      7  N   UNL     1      -0.943  12.145  22.019  0.00  0.00    +0.000 NA
ATOM      8  C   UNL     1      -1.878  12.315  21.115  0.00  0.00    +0.000 A 
ATOM      9  N   UNL     1      -1.872  12.280  19.743  0.00  0.00    +0.000 N 
ENDROOT
BRANCH   1  14
ATOM     10  C   UNL     1      -3.212   9.498  13.872  0.00  0.00    +0.000 C 
ATOM     11  C   UNL     1      -3.167  10.158  15.221  0.00  0.00    +0.000 A 
ATOM     12  C   UNL     1      -2.178   9.830  16.157  0.00  0.00    +0.000 A 
ATOM     13  C   UNL     1      -2.141  10.459  17.411  0.00  0.00    +0.000 A 
ATOM     14  C   UNL     1      -3.100  11.415  17.755  0.00  0.00    +0.000 A 
ATOM     15  C   UNL     1      -4.090  11.743  16.817  0.00  0.00    +0.000 A 
ATOM     16  C   UNL     1      -4.121  11.123  15.560  0.00  0.00    +0.000 A 
ENDBRANCH   1  14
BRANCH   3  17
ATOM     17  C   UNL     1      -5.548  12.614  21.864  0.00  0.00    +0.000 A 
ATOM     18  C   UNL     1      -5.733  13.017  23.196  0.00  0.00    +0.000 A 
ATOM     19  C   UNL     1      -6.907  12.690  23.884  0.00  0.00    +0.000 A 
ATOM     20  C   UNL     1      -7.915  11.964  23.251  0.00  0.00    +0.000 A 
ATOM     21  C   UNL     1      -7.751  11.561  21.929  0.00  0.00    +0.000 A 
ATOM     22  C   UNL     1      -6.579  11.882  21.242  0.00  0.00    +0.000 A 
ENDBRANCH   3  17
BRANCH   9  23
ATOM     23  C   UNL     1      -0.586  12.460  19.042  0.00  0.00    +0.000 C 
BRANCH  23  24
ATOM     24  C   UNL     1       0.504  11.457  19.462  0.00  0.00    +0.000 C 
ATOM     25  O   UNL     1       1.509  11.869  20.042  0.00  0.00    +0.000 OA
ATOM     26  N   UNL     1       0.265  10.142  19.061  0.00  0.00    +0.000 N 
ATOM     27  H   UNL     1      -0.607   9.954  18.585  0.00  0.00    +0.000 HD
BRANCH  26  28
ATOM     28  C   UNL     1       1.157   9.044  19.204  0.00  0.00    +0.000 A 
ATOM     29  C   UNL     1       1.966   8.621  18.144  0.00  0.00    +0.000 A 
ATOM     30  C   UNL     1       2.748   7.469  18.232  0.00  0.00    +0.000 A 
ATOM     31  C   UNL     1       2.755   6.709  19.396  0.00  0.00    +0.000 A 
ATOM     32  C   UNL     1       3.527   5.426  19.458  0.00  0.00    +0.000 C 
ATOM     33  C   UNL     1       2.014   7.161  20.495  0.00  0.00    +0.000 A 
ATOM     34  C   UNL     1       1.222   8.331  20.422  0.00  0.00    +0.000 A 
ATOM     35  C   UNL     1       0.465   8.741  21.657  0.00  0.00    +0.000 C 
ENDBRANCH  26  28
ENDBRANCH  23  24
ENDBRANCH   9  23
TORSDOF 5
ENDMDL
MODEL 7
REMARK VINA RESULT:      -7.1      1.499      2.399
REMARK  Name = 
REMARK  8 active torsions:
REMARK  status: ('A' for Active; 'I' for Inactive)
REMARK    1  A    between atoms: C_1  and  C_2
REMARK    2  A    between atoms: C_5  and  C_6
REMARK    3  A    between atoms: C_8  and  C_9
REMARK    4  A    between atoms: N_20  and  C_21
REMARK    5  A    between atoms: C_21  and  C_22
REMARK    6  A    between atoms: N_24  and  C_25
REMARK    7  A    between atoms: C_28  and  C_29
REMARK    8  A    between atoms: C_31  and  C_32
REMARK                            x       y       z     vdW  Elec       q    Type
REMARK                         _______ _______ _______ _____ _____    ______ ____
ROOT
ATOM      1  C   UNL     1      -0.859  12.496  18.871  0.00  0.00    +0.000 C 
ATOM      2  C   UNL     1      -0.544  13.703  18.361  0.00  0.00    +0.000 C 
ATOM      3  C   UNL     1       0.849  14.289  18.594  0.00  0.00    +0.000 C 
ATOM      4  N   UNL     1       1.432  13.686  19.794  0.00  0.00    +0.000 N 
ATOM      5  N   UNL     1       2.467  14.171  20.498  0.00  0.00    +0.000 NA
ATOM      6  N   UNL     1       2.727  13.228  21.399  0.00  0.00    +0.000 NA
ATOM      7  N   UNL     1       1.891  12.139  21.244  0.00  0.00    +0.000 NA
ATOM      8  C   UNL     1       1.093  12.437  20.246  0.00  0.00    +0.000 A 
ATOM      9  N   UNL     1       0.066  11.762  19.634  0.00  0.00    +0.000 N 
ENDROOT
BRANCH   1  14
ATOM     10  C   UNL     1      -6.297  10.517  18.335  0.00  0.00    +0.000 C 
ATOM     11  C   UNL     1      -4.897  11.040  18.487  0.00  0.00    +0.000 A 
ATOM     12  C   UNL     1      -4.563  11.934  19.513  0.00  0.00    +0.000 A 
ATOM     13  C   UNL     1      -3.250  12.409  19.651  0.00  0.00    +0.000 A 
ATOM     14  C   UNL     1      -2.252  12.011  18.757  0.00  0.00    +0.000 A 
ATOM     15  C   UNL     1      -2.587  11.115  17.731  0.00  0.00    +0.000 A 
ATOM     16  C   UNL     1      -3.897  10.631  17.599  0.00  0.00    +0.000 A 
ENDBRANCH   1  14
BRANCH   3  17
ATOM     17  C   UNL     1       0.886  15.812  18.609  0.00  0.00    +0.000 A 
ATOM     18  C   UNL     1      -0.061  16.579  19.306  0.00  0.00    +0.000 A 
ATOM     19  C   UNL     1       0.009  17.976  19.302  0.00  0.00    +0.000 A 
ATOM     20  C   UNL     1       1.028  18.628  18.609  0.00  0.00    +0.000 A 
ATOM     21  C   UNL     1       1.979  17.884  17.916  0.00  0.00    +0.000 A 
ATOM     22  C   UNL     1       1.909  16.490  17.915  0.00  0.00    +0.000 A 
ENDBRANCH   3  17
BRANCH   9  23
ATOM     23  C   UNL     1      -0.003  10.297  19.792  0.00  0.00    +0.000 C 
BRANCH  23  24
ATOM     24  C   UNL     1       1.009   9.524  18.926  0.00  0.00    +0.000 C 
ATOM     25  O   UNL     1       1.219   9.894  17.771  0.00  0.00    +0.000 OA
ATOM     26  N   UNL     1       1.551   8.394  19.541  0.00  0.00    +0.000 N 
ATOM     27  H   UNL     1       1.280   8.212  20.498  0.00  0.00    +0.000 HD
BRANCH  26  28
ATOM     28  C   UNL     1       2.408   7.436  18.934  0.00  0.00    +0.000 A 
ATOM     29  C   UNL     1       3.204   7.768  17.832  0.00  0.00    +0.000 A 
ATOM     30  C   UNL     1       3.951   6.806  17.150  0.00  0.00    +0.000 A 
ATOM     31  C   UNL     1       3.934   5.478  17.562  0.00  0.00    +0.000 A 
ATOM     32  C   UNL     1       4.667   4.433  16.777  0.00  0.00    +0.000 C 
ATOM     33  C   UNL     1       3.208   5.144  18.711  0.00  0.00    +0.000 A 
ATOM     34  C   UNL     1       2.452   6.109  19.417  0.00  0.00    +0.000 A 
ATOM     35  C   UNL     1       1.709   5.655  20.645  0.00  0.00    +0.000 C 
ENDBRANCH  26  28
ENDBRANCH  23  24
ENDBRANCH   9  23
TORSDOF 5
ENDMDL
MODEL 8
REMARK VINA RESULT:      -6.9      2.881      6.122
REMARK  Name = 
REMARK  8 active torsions:
REMARK  status: ('A' for Active; 'I' for Inactive)
REMARK    1  A    between atoms: C_1  and  C_2
REMARK    2  A    between atoms: C_5  and  C_6
REMARK    3  A    between atoms: C_8  and  C_9
REMARK    4  A    between atoms: N_20  and  C_21
REMARK    5  A    between atoms: C_21  and  C_22
REMARK    6  A    between atoms: N_24  and  C_25
REMARK    7  A    between atoms: C_28  and  C_29
REMARK    8  A    between atoms: C_31  and  C_32
REMARK                            x       y       z     vdW  Elec       q    Type
REMARK                         _______ _______ _______ _____ _____    ______ ____
ROOT
ATOM      1  C   UNL     1      -1.906  13.231  19.993  0.00  0.00    +0.000 C 
ATOM      2  C   UNL     1      -2.614  13.338  21.135  0.00  0.00    +0.000 C 
ATOM      3  C   UNL     1      -3.962  12.628  21.266  0.00  0.00    +0.000 C 
ATOM      4  N   UNL     1      -4.517  12.394  19.931  0.00  0.00    +0.000 N 
ATOM      5  N   UNL     1      -5.798  12.113  19.647  0.00  0.00    +0.000 NA
ATOM      6  N   UNL     1      -5.799  11.846  18.344  0.00  0.00    +0.000 NA
ATOM      7  N   UNL     1      -4.525  11.920  17.814  0.00  0.00    +0.000 NA
ATOM      8  C   UNL     1      -3.741  12.262  18.809  0.00  0.00    +0.000 A 
ATOM      9  N   UNL     1      -2.390  12.488  18.902  0.00  0.00    +0.000 N 
ENDROOT
BRANCH   1  14
ATOM     10  C   UNL     1       2.854  16.497  19.326  0.00  0.00    +0.000 C 
ATOM     11  C   UNL     1       1.634  15.638  19.504  0.00  0.00    +0.000 A 
ATOM     12  C   UNL     1       1.723  14.358  20.066  0.00  0.00    +0.000 A 
ATOM     13  C   UNL     1       0.575  13.568  20.236  0.00  0.00    +0.000 A 
ATOM     14  C   UNL     1      -0.677  14.039  19.833  0.00  0.00    +0.000 A 
ATOM     15  C   UNL     1      -0.765  15.321  19.271  0.00  0.00    +0.000 A 
ATOM     16  C   UNL     1       0.379  16.115  19.111  0.00  0.00    +0.000 A 
ENDBRANCH   1  14
BRANCH   3  17
ATOM     17  C   UNL     1      -4.938  13.319  22.210  0.00  0.00    +0.000 A 
ATOM     18  C   UNL     1      -5.178  14.701  22.160  0.00  0.00    +0.000 A 
ATOM     19  C   UNL     1      -6.087  15.300  23.039  0.00  0.00    +0.000 A 
ATOM     20  C   UNL     1      -6.774  14.529  23.975  0.00  0.00    +0.000 A 
ATOM     21  C   UNL     1      -6.553  13.155  24.035  0.00  0.00    +0.000 A 
ATOM     22  C   UNL     1      -5.644  12.556  23.162  0.00  0.00    +0.000 A 
ENDBRANCH   3  17
BRANCH   9  23
ATOM     23  C   UNL     1      -1.510  11.920  17.862  0.00  0.00    +0.000 C 
BRANCH  23  24
ATOM     24  C   UNL     1      -0.975  10.515  18.190  0.00  0.00    +0.000 C 
ATOM     25  O   UNL     1      -1.772   9.593  18.365  0.00  0.00    +0.000 OA
ATOM     26  N   UNL     1       0.411  10.443  18.333  0.00  0.00    +0.000 N 
ATOM     27  H   UNL     1       0.939  11.288  18.163  0.00  0.00    +0.000 HD
BRANCH  26  28
ATOM     28  C   UNL     1       1.156   9.307  18.753  0.00  0.00    +0.000 A 
ATOM     29  C   UNL     1       1.885   8.537  17.839  0.00  0.00    +0.000 A 
ATOM     30  C   UNL     1       2.514   7.350  18.217  0.00  0.00    +0.000 A 
ATOM     31  C   UNL     1       2.443   6.902  19.531  0.00  0.00    +0.000 A 
ATOM     32  C   UNL     1       3.044   5.584  19.914  0.00  0.00    +0.000 C 
ATOM     33  C   UNL     1       1.786   7.700  20.475  0.00  0.00    +0.000 A 
ATOM     34  C   UNL     1       1.151   8.909  20.109  0.00  0.00    +0.000 A 
ATOM     35  C   UNL     1       0.475   9.702  21.196  0.00  0.00    +0.000 C 
ENDBRANCH  26  28
ENDBRANCH  23  24
ENDBRANCH   9  23
TORSDOF 5
ENDMDL
MODEL 9
REMARK VINA RESULT:      -6.9      1.577      2.087
REMARK  Name = 
REMARK  8 active torsions:
REMARK  status: ('A' for Active; 'I' for Inactive)
REMARK    1  A    between atoms: C_1  and  C_2
REMARK    2  A    between atoms: C_5  and  C_6
REMARK    3  A    between atoms: C_8  and  C_9
REMARK    4  A    between atoms: N_20  and  C_21
REMARK    5  A    between atoms: C_21  and  C_22
REMARK    6  A    between atoms: N_24  and  C_25
REMARK    7  A    between atoms: C_28  and  C_29
REMARK    8  A    between atoms: C_31  and  C_32
REMARK                            x       y       z     vdW  Elec       q    Type
REMARK                         _______ _______ _______ _____ _____    ______ ____
ROOT
ATOM      1  C   UNL     1      -1.216  13.430  20.446  0.00  0.00    +0.000 C 
ATOM      2  C   UNL     1      -1.079  14.339  19.460  0.00  0.00    +0.000 C 
ATOM      3  C   UNL     1       0.297  14.597  18.846  0.00  0.00    +0.000 C 
ATOM      4  N   UNL     1       1.334  14.208  19.803  0.00  0.00    +0.000 N 
ATOM      5  N   UNL     1       2.621  14.588  19.770  0.00  0.00    +0.000 NA
ATOM      6  N   UNL     1       3.200  13.884  20.739  0.00  0.00    +0.000 NA
ATOM      7  N   UNL     1       2.297  13.039  21.357  0.00  0.00    +0.000 NA
ATOM      8  C   UNL     1       1.145  13.251  20.767  0.00  0.00    +0.000 A 
ATOM      9  N   UNL     1      -0.108  12.719  20.940  0.00  0.00    +0.000 N 
ENDROOT
BRANCH   1  14
ATOM     10  C   UNL     1      -6.399  12.859  23.009  0.00  0.00    +0.000 C 
ATOM     11  C   UNL     1      -5.053  13.015  22.362  0.00  0.00    +0.000 A 
ATOM     12  C   UNL     1      -3.958  13.518  23.076  0.00  0.00    +0.000 A 
ATOM     13  C   UNL     1      -2.702  13.651  22.464  0.00  0.00    +0.000 A 
ATOM     14  C   UNL     1      -2.524  13.298  21.124  0.00  0.00    +0.000 A 
ATOM     15  C   UNL     1      -3.621  12.795  20.409  0.00  0.00    +0.000 A 
ATOM     16  C   UNL     1      -4.874  12.651  21.023  0.00  0.00    +0.000 A 
ENDBRANCH   1  14
BRANCH   3  17
ATOM     17  C   UNL     1       0.479  16.009  18.303  0.00  0.00    +0.000 A 
ATOM     18  C   UNL     1       1.707  16.468  17.804  0.00  0.00    +0.000 A 
ATOM     19  C   UNL     1       1.835  17.770  17.307  0.00  0.00    +0.000 A 
ATOM     20  C   UNL     1       0.737  18.630  17.295  0.00  0.00    +0.000 A 
ATOM     21  C   UNL     1      -0.491  18.189  17.781  0.00  0.00    +0.000 A 
ATOM     22  C   UNL     1      -0.620  16.892  18.281  0.00  0.00    +0.000 A 
ENDBRANCH   3  17
BRANCH   9  23
ATOM     23  C   UNL     1      -0.228  11.414  21.619  0.00  0.00    +0.000 C 
BRANCH  23  24
ATOM     24  C   UNL     1      -0.071  10.202  20.683  0.00  0.00    +0.000 C 
ATOM     25  O   UNL     1      -1.048   9.798  20.052  0.00  0.00    +0.000 OA
ATOM     26  N   UNL     1       1.197   9.618  20.701  0.00  0.00    +0.000 N 
ATOM     27  H   UNL     1       1.903  10.060  21.274  0.00  0.00    +0.000 HD
BRANCH  26  28
ATOM     28  C   UNL     1       1.582   8.423  20.035  0.00  0.00    +0.000 A 
ATOM     29  C   UNL     1       1.595   7.191  20.700  0.00  0.00    +0.000 A 
ATOM     30  C   UNL     1       2.091   6.036  20.095  0.00  0.00    +0.000 A 
ATOM     31  C   UNL     1       2.580   6.076  18.794  0.00  0.00    +0.000 A 
ATOM     32  C   UNL     1       3.193   4.855  18.178  0.00  0.00    +0.000 C 
ATOM     33  C   UNL     1       2.501   7.281  18.086  0.00  0.00    +0.000 A 
ATOM     34  C   UNL     1       1.993   8.458  18.684  0.00  0.00    +0.000 A 
ATOM     35  C   UNL     1       1.942   9.705  17.841  0.00  0.00    +0.000 C 
ENDBRANCH  26  28
ENDBRANCH  23  24
ENDBRANCH   9  23
TORSDOF 5
ENDMDL
