MODEL 1
REMARK VINA RESULT:      -7.5      0.000      0.000
REMARK  Name = 
REMARK  5 active torsions:
REMARK  status: ('A' for Active; 'I' for Inactive)
REMARK    1  A    between atoms: C_2  and  C_18
REMARK    2  A    between atoms: N_3  and  C_4
REMARK    3  A    between atoms: C_4  and  C_5
REMARK    4  A    between atoms: C_4  and  C_11
REMARK    5  A    between atoms: C_5  and  C_6
REMARK                            x       y       z     vdW  Elec       q    Type
REMARK                         _______ _______ _______ _____ _____    ______ ____
ROOT
ATOM      1  C   UNL     1       4.486   4.283  17.502  0.00  0.00    +0.000 C 
ENDROOT
BRANCH   1   2
ATOM      2  C   UNL     1       3.056   3.722  17.690  0.00  0.00    +0.000 C 
ATOM      3  O   UNL     1       2.407   3.354  16.700  0.00  0.00    +0.000 OA
ATOM      4  N   UNL     1       2.546   3.572  18.963  0.00  0.00    +0.000 N 
ATOM      5  C   UNL     1       3.128   3.969  20.232  0.00  0.00    +0.000 C 
ATOM      6  C   UNL     1       2.428   3.077  21.246  0.00  0.00    +0.000 C 
ATOM      7  C   UNL     1       1.026   2.920  20.669  0.00  0.00    +0.000 C 
ATOM      8  C   UNL     1       1.225   3.004  19.159  0.00  0.00    +0.000 C 
ENDBRANCH   1   2
BRANCH   1  11
ATOM      9  O   UNL     1       7.021   3.925  16.250  0.00  0.00    +0.000 OA
ATOM     10  C   UNL     1       6.044   4.149  15.542  0.00  0.00    +0.000 C 
ATOM     11  N   UNL     1       4.780   4.289  16.056  0.00  0.00    +0.000 N 
ATOM     12  H   UNL     1       3.976   4.421  15.449  0.00  0.00    +0.000 HD
BRANCH  10  13
ATOM     13  C   UNL     1       6.146   4.425  14.047  0.00  0.00    +0.000 C 
ATOM     14  C   UNL     1       7.493   5.014  13.633  0.00  0.00    +0.000 C 
ATOM     15  C   UNL     1       7.474   4.902  12.113  0.00  0.00    +0.000 C 
ATOM     16  C   UNL     1       6.647   3.654  11.809  0.00  0.00    +0.000 C 
ATOM     17  C   UNL     1       6.047   3.200  13.143  0.00  0.00    +0.000 C 
ENDBRANCH  10  13
ENDBRANCH   1  11
BRANCH   1  18
ATOM     18  C   UNL     1       4.705   5.666  18.130  0.00  0.00    +0.000 C 
BRANCH  18  19
ATOM     19  C   UNL     1       6.104   5.934  18.583  0.00  0.00    +0.000 A 
ATOM     20  C   UNL     1       7.031   6.811  18.059  0.00  0.00    +0.000 A 
ATOM     21  N   UNL     1       8.163   6.622  18.803  0.00  0.00    +0.000 N 
ATOM     22  C   UNL     1       7.891   5.656  19.732  0.00  0.00    +0.000 A 
ATOM     23  N   UNL     1       6.657   5.220  19.619  0.00  0.00    +0.000 NA
ATOM     24  H   UNL     1       9.048   7.095  18.683  0.00  0.00    +0.000 HD
ENDBRANCH  18  19
ENDBRANCH   1  18
TORSDOF 5
ENDMDL
MODEL 2
REMARK VINA RESULT:      -7.4      3.393      5.713
REMARK  Name = 
REMARK  5 active torsions:
REMARK  status: ('A' for Active; 'I' for Inactive)
REMARK    1  A    between atoms: C_2  and  C_18
REMARK    2  A    between atoms: N_3  and  C_4
REMARK    3  A    between atoms: C_4  and  C_5
REMARK    4  A    between atoms: C_4  and  C_11
REMARK    5  A    between atoms: C_5  and  C_6
REMARK                            x       y       z     vdW  Elec       q    Type
REMARK                         _______ _______ _______ _____ _____    ______ ____
ROOT
ATOM      1  C   UNL     1       3.036   5.820  17.976  0.00  0.00    +0.000 C 
ENDROOT
BRANCH   1   2
ATOM      2  C   UNL     1       2.219   4.524  18.191  0.00  0.00    +0.000 C 
ATOM      3  O   UNL     1       1.856   3.858  17.211  0.00  0.00    +0.000 OA
ATOM      4  N   UNL     1       1.964   4.086  19.474  0.00  0.00    +0.000 N 
ATOM      5  C   UNL     1       2.272   4.731  20.738  0.00  0.00    +0.000 C 
ATOM      6  C   UNL     1       2.284   3.585  21.737  0.00  0.00    +0.000 C 
ATOM      7  C   UNL     1       1.211   2.642  21.205  0.00  0.00    +0.000 C 
ATOM      8  C   UNL     1       1.240   2.847  19.694  0.00  0.00    +0.000 C 
ENDBRANCH   1   2
BRANCH   1  11
ATOM      9  O   UNL     1       2.900   8.490  16.989  0.00  0.00    +0.000 OA
ATOM     10  C   UNL     1       2.281   8.211  18.011  0.00  0.00    +0.000 C 
ATOM     11  N   UNL     1       2.254   6.941  18.531  0.00  0.00    +0.000 N 
ATOM     12  H   UNL     1       1.693   6.719  19.348  0.00  0.00    +0.000 HD
BRANCH  10  13
ATOM     13  C   UNL     1       1.592   9.257  18.879  0.00  0.00    +0.000 C 
ATOM     14  C   UNL     1       0.291   9.781  18.274  0.00  0.00    +0.000 C 
ATOM     15  C   UNL     1      -0.352  10.541  19.427  0.00  0.00    +0.000 C 
ATOM     16  C   UNL     1       0.089   9.807  20.693  0.00  0.00    +0.000 C 
ATOM     17  C   UNL     1       1.130   8.775  20.250  0.00  0.00    +0.000 C 
ENDBRANCH  10  13
ENDBRANCH   1  11
BRANCH   1  18
ATOM     18  C   UNL     1       4.453   5.772  18.563  0.00  0.00    +0.000 C 
BRANCH  18  19
ATOM     19  C   UNL     1       5.547   5.654  17.551  0.00  0.00    +0.000 A 
ATOM     20  C   UNL     1       6.519   6.574  17.214  0.00  0.00    +0.000 A 
ATOM     21  N   UNL     1       7.224   5.992  16.197  0.00  0.00    +0.000 N 
ATOM     22  C   UNL     1       6.667   4.767  15.955  0.00  0.00    +0.000 A 
ATOM     23  N   UNL     1       5.651   4.539  16.756  0.00  0.00    +0.000 NA
ATOM     24  H   UNL     1       8.005   6.396  15.699  0.00  0.00    +0.000 HD
ENDBRANCH  18  19
ENDBRANCH   1  18
TORSDOF 5
ENDMDL
MODEL 3
REMARK VINA RESULT:      -7.4      2.624      3.525
REMARK  Name = 
REMARK  5 active torsions:
REMARK  status: ('A' for Active; 'I' for Inactive)
REMARK    1  A    between atoms: C_2  and  C_18
REMARK    2  A    between atoms: N_3  and  C_4
REMARK    3  A    between atoms: C_4  and  C_5
REMARK    4  A    between atoms: C_4  and  C_11
REMARK    5  A    between atoms: C_5  and  C_6
REMARK                            x       y       z     vdW  Elec       q    Type
REMARK                         _______ _______ _______ _____ _____    ______ ____
ROOT
ATOM      1  C   UNL     1       3.114   5.808  18.117  0.00  0.00    +0.000 C 
ENDROOT
BRANCH   1   2
ATOM      2  C   UNL     1       1.977   4.789  18.373  0.00  0.00    +0.000 C 
ATOM      3  O   UNL     1       1.190   4.505  17.459  0.00  0.00    +0.000 OA
ATOM      4  N   UNL     1       1.896   4.153  19.595  0.00  0.00    +0.000 N 
ATOM      5  C   UNL     1       2.692   4.367  20.790  0.00  0.00    +0.000 C 
ATOM      6  C   UNL     1       2.546   3.065  21.561  0.00  0.00    +0.000 C 
ATOM      7  C   UNL     1       1.123   2.622  21.240  0.00  0.00    +0.000 C 
ATOM      8  C   UNL     1       0.866   3.160  19.836  0.00  0.00    +0.000 C 
ENDBRANCH   1   2
BRANCH   1  11
ATOM      9  O   UNL     1       5.444   4.232  18.571  0.00  0.00    +0.000 OA
ATOM     10  C   UNL     1       5.143   4.514  17.415  0.00  0.00    +0.000 C 
ATOM     11  N   UNL     1       4.015   5.229  17.103  0.00  0.00    +0.000 N 
ATOM     12  H   UNL     1       3.756   5.408  16.137  0.00  0.00    +0.000 HD
BRANCH  10  13
ATOM     13  C   UNL     1       6.049   4.221  16.225  0.00  0.00    +0.000 C 
ATOM     14  C   UNL     1       5.280   3.967  14.930  0.00  0.00    +0.000 C 
ATOM     15  C   UNL     1       6.364   4.019  13.861  0.00  0.00    +0.000 C 
ATOM     16  C   UNL     1       7.399   5.015  14.381  0.00  0.00    +0.000 C 
ATOM     17  C   UNL     1       6.986   5.353  15.817  0.00  0.00    +0.000 C 
ENDBRANCH  10  13
ENDBRANCH   1  11
BRANCH   1  18
ATOM     18  C   UNL     1       2.623   7.204  17.710  0.00  0.00    +0.000 C 
BRANCH  18  19
ATOM     19  C   UNL     1       1.986   7.989  18.812  0.00  0.00    +0.000 A 
ATOM     20  C   UNL     1       1.329   9.200  18.744  0.00  0.00    +0.000 A 
ATOM     21  N   UNL     1       0.996   9.499  20.037  0.00  0.00    +0.000 N 
ATOM     22  C   UNL     1       1.456   8.483  20.827  0.00  0.00    +0.000 A 
ATOM     23  N   UNL     1       2.060   7.560  20.115  0.00  0.00    +0.000 NA
ATOM     24  H   UNL     1       0.514  10.328  20.358  0.00  0.00    +0.000 HD
ENDBRANCH  18  19
ENDBRANCH   1  18
TORSDOF 5
ENDMDL
MODEL 4
REMARK VINA RESULT:      -7.4      1.724      4.470
REMARK  Name = 
REMARK  5 active torsions:
REMARK  status: ('A' for Active; 'I' for Inactive)
REMARK    1  A    between atoms: C_2  and  C_18
REMARK    2  A    between atoms: N_3  and  C_4
REMARK    3  A    between atoms: C_4  and  C_5
REMARK    4  A    between atoms: C_4  and  C_11
REMARK    5  A    between atoms: C_5  and  C_6
REMARK                            x       y       z     vdW  Elec       q    Type
REMARK                         _______ _______ _______ _____ _____    ______ ____
ROOT
ATOM      1  C   UNL     1       4.676   4.801  17.088  0.00  0.00    +0.000 C 
ENDROOT
BRANCH   1   2
ATOM      2  C   UNL     1       5.823   4.908  18.121  0.00  0.00    +0.000 C 
ATOM      3  O   UNL     1       6.079   3.943  18.856  0.00  0.00    +0.000 OA
ATOM      4  N   UNL     1       6.596   6.050  18.163  0.00  0.00    +0.000 N 
ATOM      5  C   UNL     1       6.439   7.287  17.418  0.00  0.00    +0.000 C 
ATOM      6  C   UNL     1       7.827   7.907  17.449  0.00  0.00    +0.000 C 
ATOM      7  C   UNL     1       8.368   7.494  18.812  0.00  0.00    +0.000 C 
ATOM      8  C   UNL     1       7.706   6.149  19.093  0.00  0.00    +0.000 C 
ENDBRANCH   1   2
BRANCH   1  11
ATOM      9  O   UNL     1       5.831   5.806  14.685  0.00  0.00    +0.000 OA
ATOM     10  C   UNL     1       5.682   4.593  14.800  0.00  0.00    +0.000 C 
ATOM     11  N   UNL     1       5.177   4.020  15.940  0.00  0.00    +0.000 N 
ATOM     12  H   UNL     1       5.111   3.011  16.037  0.00  0.00    +0.000 HD
BRANCH  10  13
ATOM     13  C   UNL     1       5.914   3.613  13.657  0.00  0.00    +0.000 C 
ATOM     14  C   UNL     1       4.738   3.531  12.685  0.00  0.00    +0.000 C 
ATOM     15  C   UNL     1       5.314   2.766  11.500  0.00  0.00    +0.000 C 
ATOM     16  C   UNL     1       6.793   3.146  11.452  0.00  0.00    +0.000 C 
ATOM     17  C   UNL     1       7.071   3.955  12.723  0.00  0.00    +0.000 C 
ENDBRANCH  10  13
ENDBRANCH   1  11
BRANCH   1  18
ATOM     18  C   UNL     1       3.378   4.209  17.653  0.00  0.00    +0.000 C 
BRANCH  18  19
ATOM     19  C   UNL     1       2.821   4.936  18.835  0.00  0.00    +0.000 A 
ATOM     20  C   UNL     1       2.745   6.294  19.060  0.00  0.00    +0.000 A 
ATOM     21  N   UNL     1       2.207   6.420  20.311  0.00  0.00    +0.000 N 
ATOM     22  C   UNL     1       1.982   5.160  20.793  0.00  0.00    +0.000 A 
ATOM     23  N   UNL     1       2.347   4.245  19.924  0.00  0.00    +0.000 NA
ATOM     24  H   UNL     1       2.023   7.284  20.803  0.00  0.00    +0.000 HD
ENDBRANCH  18  19
ENDBRANCH   1  18
TORSDOF 5
ENDMDL
MODEL 5
REMARK VINA RESULT:      -7.3      2.807      6.638
REMARK  Name = 
REMARK  5 active torsions:
REMARK  status: ('A' for Active; 'I' for Inactive)
REMARK    1  A    between atoms: C_2  and  C_18
REMARK    2  A    between atoms: N_3  and  C_4
REMARK    3  A    between atoms: C_4  and  C_5
REMARK    4  A    between atoms: C_4  and  C_11
REMARK    5  A    between atoms: C_5  and  C_6
REMARK                            x       y       z     vdW  Elec       q    Type
REMARK                         _______ _______ _______ _____ _____    ______ ____
ROOT
ATOM      1  C   UNL     1       4.474   4.587  19.106  0.00  0.00    +0.000 C 
ENDROOT
BRANCH   1   2
ATOM      2  C   UNL     1       5.869   4.669  18.441  0.00  0.00    +0.000 C 
ATOM      3  O   UNL     1       6.887   4.643  19.148  0.00  0.00    +0.000 OA
ATOM      4  N   UNL     1       5.966   4.699  17.065  0.00  0.00    +0.000 N 
ATOM      5  C   UNL     1       4.906   4.768  16.076  0.00  0.00    +0.000 C 
ATOM      6  C   UNL     1       5.550   4.215  14.815  0.00  0.00    +0.000 C 
ATOM      7  C   UNL     1       6.997   4.679  14.924  0.00  0.00    +0.000 C 
ATOM      8  C   UNL     1       7.269   4.728  16.424  0.00  0.00    +0.000 C 
ENDBRANCH   1   2
BRANCH   1  11
ATOM      9  O   UNL     1       2.621   6.035  20.715  0.00  0.00    +0.000 OA
ATOM     10  C   UNL     1       2.821   6.416  19.566  0.00  0.00    +0.000 C 
ATOM     11  N   UNL     1       3.729   5.806  18.737  0.00  0.00    +0.000 N 
ATOM     12  H   UNL     1       3.919   6.168  17.807  0.00  0.00    +0.000 HD
BRANCH  10  13
ATOM     13  C   UNL     1       1.998   7.510  18.897  0.00  0.00    +0.000 C 
ATOM     14  C   UNL     1       1.483   8.561  19.877  0.00  0.00    +0.000 C 
ATOM     15  C   UNL     1       0.986   9.678  18.966  0.00  0.00    +0.000 C 
ATOM     16  C   UNL     1       1.892   9.630  17.736  0.00  0.00    +0.000 C 
ATOM     17  C   UNL     1       2.746   8.367  17.880  0.00  0.00    +0.000 C 
ENDBRANCH  10  13
ENDBRANCH   1  11
BRANCH   1  18
ATOM     18  C   UNL     1       3.688   3.316  18.758  0.00  0.00    +0.000 C 
BRANCH  18  19
ATOM     19  C   UNL     1       2.531   3.028  19.660  0.00  0.00    +0.000 A 
ATOM     20  C   UNL     1       1.181   3.061  19.375  0.00  0.00    +0.000 A 
ATOM     21  N   UNL     1       0.559   2.777  20.560  0.00  0.00    +0.000 N 
ATOM     22  C   UNL     1       1.531   2.588  21.502  0.00  0.00    +0.000 A 
ATOM     23  N   UNL     1       2.730   2.737  20.988  0.00  0.00    +0.000 NA
ATOM     24  H   UNL     1      -0.438   2.731  20.719  0.00  0.00    +0.000 HD
ENDBRANCH  18  19
ENDBRANCH   1  18
TORSDOF 5
ENDMDL
MODEL 6
REMARK VINA RESULT:      -7.3      2.673      6.593
REMARK  Name = 
REMARK  5 active torsions:
REMARK  status: ('A' for Active; 'I' for Inactive)
REMARK    1  A    between atoms: C_2  and  C_18
REMARK    2  A    between atoms: N_3  and  C_4
REMARK    3  A    between atoms: C_4  and  C_5
REMARK    4  A    between atoms: C_4  and  C_11
REMARK    5  A    between atoms: C_5  and  C_6
REMARK                            x       y       z     vdW  Elec       q    Type
REMARK                         _______ _______ _______ _____ _____    ______ ____
ROOT
ATOM      1  C   UNL     1       4.280   4.607  18.506  0.00  0.00    +0.000 C 
ENDROOT
BRANCH   1   2
ATOM      2  C   UNL     1       4.334   4.080  17.052  0.00  0.00    +0.000 C 
ATOM      3  O   UNL     1       3.340   3.522  16.565  0.00  0.00    +0.000 OA
ATOM      4  N   UNL     1       5.463   4.302  16.290  0.00  0.00    +0.000 N 
ATOM      5  C   UNL     1       6.726   4.900  16.682  0.00  0.00    +0.000 C 
ATOM      6  C   UNL     1       7.323   5.378  15.368  0.00  0.00    +0.000 C 
ATOM      7  C   UNL     1       6.856   4.331  14.365  0.00  0.00    +0.000 C 
ATOM      8  C   UNL     1       5.512   3.857  14.909  0.00  0.00    +0.000 C 
ENDBRANCH   1   2
BRANCH   1  11
ATOM      9  O   UNL     1       4.173   7.253  17.455  0.00  0.00    +0.000 OA
ATOM     10  C   UNL     1       3.211   6.837  18.094  0.00  0.00    +0.000 C 
ATOM     11  N   UNL     1       3.159   5.562  18.596  0.00  0.00    +0.000 N 
ATOM     12  H   UNL     1       2.332   5.219  19.077  0.00  0.00    +0.000 HD
BRANCH  10  13
ATOM     13  C   UNL     1       2.042   7.722  18.508  0.00  0.00    +0.000 C 
ATOM     14  C   UNL     1       1.957   7.943  20.017  0.00  0.00    +0.000 C 
ATOM     15  C   UNL     1       0.948   9.076  20.151  0.00  0.00    +0.000 C 
ATOM     16  C   UNL     1       1.125   9.927  18.894  0.00  0.00    +0.000 C 
ATOM     17  C   UNL     1       2.082   9.154  17.982  0.00  0.00    +0.000 C 
ENDBRANCH  10  13
ENDBRANCH   1  11
BRANCH   1  18
ATOM     18  C   UNL     1       4.173   3.505  19.568  0.00  0.00    +0.000 C 
BRANCH  18  19
ATOM     19  C   UNL     1       2.795   3.284  20.105  0.00  0.00    +0.000 A 
ATOM     20  C   UNL     1       2.387   3.150  21.416  0.00  0.00    +0.000 A 
ATOM     21  N   UNL     1       1.043   2.909  21.349  0.00  0.00    +0.000 N 
ATOM     22  C   UNL     1       0.689   2.904  20.029  0.00  0.00    +0.000 A 
ATOM     23  N   UNL     1       1.728   3.124  19.255  0.00  0.00    +0.000 NA
ATOM     24  H   UNL     1       0.421   2.746  22.130  0.00  0.00    +0.000 HD
ENDBRANCH  18  19
ENDBRANCH   1  18
TORSDOF 5
ENDMDL
MODEL 7
REMARK VINA RESULT:      -7.3      3.597      6.249
REMARK  Name = 
REMARK  5 active torsions:
REMARK  status: ('A' for Active; 'I' for Inactive)
REMARK    1  A    between atoms: C_2  and  C_18
REMARK    2  A    between atoms: N_3  and  C_4
REMARK    3  A    between atoms: C_4  and  C_5
REMARK    4  A    between atoms: C_4  and  C_11
REMARK    5  A    between atoms: C_5  and  C_6
REMARK                            x       y       z     vdW  Elec       q    Type
REMARK                         _______ _______ _______ _____ _____    ______ ____
ROOT
ATOM      1  C   UNL     1       3.558   6.366  18.005  0.00  0.00    +0.000 C 
ENDROOT
BRANCH   1   2
ATOM      2  C   UNL     1       3.866   5.040  18.740  0.00  0.00    +0.000 C 
ATOM      3  O   UNL     1       4.895   4.943  19.425  0.00  0.00    +0.000 OA
ATOM      4  N   UNL     1       2.957   4.004  18.683  0.00  0.00    +0.000 N 
ATOM      5  C   UNL     1       1.726   3.910  17.920  0.00  0.00    +0.000 C 
ATOM      6  C   UNL     1       0.917   2.860  18.664  0.00  0.00    +0.000 C 
ATOM      7  C   UNL     1       1.978   1.896  19.180  0.00  0.00    +0.000 C 
ATOM      8  C   UNL     1       3.208   2.770  19.406  0.00  0.00    +0.000 C 
ENDBRANCH   1   2
BRANCH   1  11
ATOM      9  O   UNL     1       1.964   8.622  17.306  0.00  0.00    +0.000 OA
ATOM     10  C   UNL     1       2.034   8.298  18.488  0.00  0.00    +0.000 C 
ATOM     11  N   UNL     1       2.741   7.200  18.908  0.00  0.00    +0.000 N 
ATOM     12  H   UNL     1       2.744   6.917  19.884  0.00  0.00    +0.000 HD
BRANCH  10  13
ATOM     13  C   UNL     1       1.463   9.145  19.619  0.00  0.00    +0.000 C 
ATOM     14  C   UNL     1       0.211   9.922  19.217  0.00  0.00    +0.000 C 
ATOM     15  C   UNL     1      -0.340  10.416  20.549  0.00  0.00    +0.000 C 
ATOM     16  C   UNL     1       0.044   9.344  21.568  0.00  0.00    +0.000 C 
ATOM     17  C   UNL     1       0.974   8.370  20.838  0.00  0.00    +0.000 C 
ENDBRANCH  10  13
ENDBRANCH   1  11
BRANCH   1  18
ATOM     18  C   UNL     1       4.804   7.115  17.515  0.00  0.00    +0.000 C 
BRANCH  18  19
ATOM     19  C   UNL     1       5.690   6.327  16.604  0.00  0.00    +0.000 A 
ATOM     20  C   UNL     1       7.036   6.052  16.727  0.00  0.00    +0.000 A 
ATOM     21  N   UNL     1       7.363   5.350  15.600  0.00  0.00    +0.000 N 
ATOM     22  C   UNL     1       6.229   5.228  14.846  0.00  0.00    +0.000 A 
ATOM     23  N   UNL     1       5.205   5.811  15.426  0.00  0.00    +0.000 NA
ATOM     24  H   UNL     1       8.278   4.998  15.355  0.00  0.00    +0.000 HD
ENDBRANCH  18  19
ENDBRANCH   1  18
TORSDOF 5
ENDMDL
MODEL 8
REMARK VINA RESULT:      -7.3      3.061      5.808
REMARK  Name = 
REMARK  5 active torsions:
REMARK  status: ('A' for Active; 'I' for Inactive)
REMARK    1  A    between atoms: C_2  and  C_18
REMARK    2  A    between atoms: N_3  and  C_4
REMARK    3  A    between atoms: C_4  and  C_5
REMARK    4  A    between atoms: C_4  and  C_11
REMARK    5  A    between atoms: C_5  and  C_6
REMARK                            x       y       z     vdW  Elec       q    Type
REMARK                         _______ _______ _______ _____ _____    ______ ____
ROOT
ATOM      1  C   UNL     1       4.719   5.686  17.285  0.00  0.00    +0.000 C 
ENDROOT
BRANCH   1   2
ATOM      2  C   UNL     1       4.928   4.573  18.340  0.00  0.00    +0.000 C 
ATOM      3  O   UNL     1       5.791   4.715  19.218  0.00  0.00    +0.000 OA
ATOM      4  N   UNL     1       4.103   3.467  18.334  0.00  0.00    +0.000 N 
ATOM      5  C   UNL     1       3.068   3.105  17.383  0.00  0.00    +0.000 C 
ATOM      6  C   UNL     1       2.171   2.159  18.166  0.00  0.00    +0.000 C 
ATOM      7  C   UNL     1       3.145   1.424  19.080  0.00  0.00    +0.000 C 
ATOM      8  C   UNL     1       4.255   2.436  19.345  0.00  0.00    +0.000 C 
ENDBRANCH   1   2
BRANCH   1  11
ATOM      9  O   UNL     1       1.970   6.079  17.922  0.00  0.00    +0.000 OA
ATOM     10  C   UNL     1       2.769   6.969  18.199  0.00  0.00    +0.000 C 
ATOM     11  N   UNL     1       4.115   6.845  17.970  0.00  0.00    +0.000 N 
ATOM     12  H   UNL     1       4.767   7.571  18.255  0.00  0.00    +0.000 HD
BRANCH  10  13
ATOM     13  C   UNL     1       2.342   8.344  18.699  0.00  0.00    +0.000 C 
ATOM     14  C   UNL     1       1.401   9.069  17.740  0.00  0.00    +0.000 C 
ATOM     15  C   UNL     1       0.876  10.232  18.573  0.00  0.00    +0.000 C 
ATOM     16  C   UNL     1       0.845   9.718  20.012  0.00  0.00    +0.000 C 
ATOM     17  C   UNL     1       1.538   8.352  19.995  0.00  0.00    +0.000 C 
ENDBRANCH  10  13
ENDBRANCH   1  11
BRANCH   1  18
ATOM     18  C   UNL     1       5.994   6.077  16.526  0.00  0.00    +0.000 C 
BRANCH  18  19
ATOM     19  C   UNL     1       6.273   5.255  15.308  0.00  0.00    +0.000 A 
ATOM     20  C   UNL     1       5.571   4.179  14.808  0.00  0.00    +0.000 A 
ATOM     21  N   UNL     1       6.282   3.762  13.717  0.00  0.00    +0.000 N 
ATOM     22  C   UNL     1       7.370   4.581  13.596  0.00  0.00    +0.000 A 
ATOM     23  N   UNL     1       7.392   5.489  14.545  0.00  0.00    +0.000 NA
ATOM     24  H   UNL     1       6.059   2.981  13.115  0.00  0.00    +0.000 HD
ENDBRANCH  18  19
ENDBRANCH   1  18
TORSDOF 5
ENDMDL
MODEL 9
REMARK VINA RESULT:      -7.2      1.370      4.638
REMARK  Name = 
REMARK  5 active torsions:
REMARK  status: ('A' for Active; 'I' for Inactive)
REMARK    1  A    between atoms: C_2  and  C_18
REMARK    2  A    between atoms: N_3  and  C_4
REMARK    3  A    between atoms: C_4  and  C_5
REMARK    4  A    between atoms: C_4  and  C_11
REMARK    5  A    between atoms: C_5  and  C_6
REMARK                            x       y       z     vdW  Elec       q    Type
REMARK                         _______ _______ _______ _____ _____    ______ ____
ROOT
ATOM      1  C   UNL     1       4.100   4.697  17.498  0.00  0.00    +0.000 C 
ENDROOT
BRANCH   1   2
ATOM      2  C   UNL     1       5.352   4.732  18.407  0.00  0.00    +0.000 C 
ATOM      3  O   UNL     1       5.581   3.784  19.173  0.00  0.00    +0.000 OA
ATOM      4  N   UNL     1       6.238   5.784  18.305  0.00  0.00    +0.000 N 
ATOM      5  C   UNL     1       6.134   6.990  17.503  0.00  0.00    +0.000 C 
ATOM      6  C   UNL     1       7.575   7.457  17.363  0.00  0.00    +0.000 C 
ATOM      7  C   UNL     1       8.207   7.058  18.691  0.00  0.00    +0.000 C 
ATOM      8  C   UNL     1       7.441   5.809  19.117  0.00  0.00    +0.000 C 
ENDBRANCH   1   2
BRANCH   1  11
ATOM      9  O   UNL     1       5.811   2.991  15.987  0.00  0.00    +0.000 OA
ATOM     10  C   UNL     1       5.414   4.031  15.468  0.00  0.00    +0.000 C 
ATOM     11  N   UNL     1       4.552   4.887  16.106  0.00  0.00    +0.000 N 
ATOM     12  H   UNL     1       4.193   5.715  15.640  0.00  0.00    +0.000 HD
BRANCH  10  13
ATOM     13  C   UNL     1       5.932   4.544  14.131  0.00  0.00    +0.000 C 
ATOM     14  C   UNL     1       7.373   5.044  14.194  0.00  0.00    +0.000 C 
ATOM     15  C   UNL     1       7.758   5.195  12.727  0.00  0.00    +0.000 C 
ATOM     16  C   UNL     1       6.970   4.114  11.988  0.00  0.00    +0.000 C 
ATOM     17  C   UNL     1       6.007   3.508  13.013  0.00  0.00    +0.000 C 
ENDBRANCH  10  13
ENDBRANCH   1  11
BRANCH   1  18
ATOM     18  C   UNL     1       3.250   3.429  17.650  0.00  0.00    +0.000 C 
BRANCH  18  19
ATOM     19  C   UNL     1       2.286   3.455  18.792  0.00  0.00    +0.000 A 
ATOM     20  C   UNL     1       1.655   2.400  19.419  0.00  0.00    +0.000 A 
ATOM     21  N   UNL     1       0.839   2.975  20.354  0.00  0.00    +0.000 N 
ATOM     22  C   UNL     1       0.998   4.330  20.264  0.00  0.00    +0.000 A 
ATOM     23  N   UNL     1       1.863   4.648  19.327  0.00  0.00    +0.000 NA
ATOM     24  H   UNL     1       0.217   2.492  20.988  0.00  0.00    +0.000 HD
ENDBRANCH  18  19
ENDBRANCH   1  18
TORSDOF 5
ENDMDL
