MODEL 1
REMARK VINA RESULT:      -8.6      0.000      0.000
REMARK  Name = 
REMARK  3 active torsions:
REMARK  status: ('A' for Active; 'I' for Inactive)
REMARK    1  A    between atoms: C_1  and  C_2
REMARK    2  A    between atoms: C_6  and  C_7
REMARK    3  A    between atoms: C_11  and  C_12
REMARK                            x       y       z     vdW  Elec       q    Type
REMARK                         _______ _______ _______ _____ _____    ______ ____
ROOT
ATOM      1  C   UNL     1       4.545   3.693  17.082  0.00  0.00    +0.000 C 
ATOM      2  O   UNL     1       4.301   2.485  17.075  0.00  0.00    +0.000 OA
ATOM      3  N   UNL     1       3.720   4.478  17.936  0.00  0.00    +0.000 N 
ATOM      4  C   UNL     1       3.457   5.831  17.800  0.00  0.00    +0.000 A 
ATOM      5  C   UNL     1       2.586   6.246  18.789  0.00  0.00    +0.000 A 
ATOM      6  C   UNL     1       2.276   5.093  19.575  0.00  0.00    +0.000 A 
ATOM      7  C   UNL     1       1.464   4.864  20.710  0.00  0.00    +0.000 A 
ATOM      8  C   UNL     1       1.375   3.586  21.270  0.00  0.00    +0.000 A 
ATOM      9  C   UNL     1       2.110   2.538  20.739  0.00  0.00    +0.000 A 
ATOM     10  C   UNL     1       2.931   2.735  19.628  0.00  0.00    +0.000 A 
ATOM     11  C   UNL     1       2.990   4.014  19.039  0.00  0.00    +0.000 A 
ENDROOT
BRANCH   5  12
ATOM     12  C   UNL     1       2.130   7.627  18.903  0.00  0.00    +0.000 A 
ATOM     13  C   UNL     1       2.161   8.477  17.820  0.00  0.00    +0.000 A 
ATOM     14  C   UNL     1       1.673   9.740  18.044  0.00  0.00    +0.000 A 
ATOM     15  N   UNL     1       1.200  10.149  19.232  0.00  0.00    +0.000 NA
ATOM     16  C   UNL     1       1.216   9.254  20.223  0.00  0.00    +0.000 A 
ATOM     17  N   UNL     1       0.765   9.672  21.456  0.00  0.00    +0.000 N 
ATOM     18  N   UNL     1       1.681   8.007  20.120  0.00  0.00    +0.000 NA
ATOM     19  H   UNL     1       0.829  10.680  21.513  0.00  0.00    +0.000 HD
ATOM     20  H   UNL     1       1.215   9.139  22.184  0.00  0.00    +0.000 HD
ENDBRANCH   5  12
BRANCH   1  26
ATOM     21  C   UNL     1       7.463   4.855  17.969  0.00  0.00    +0.000 C 
ATOM     22  C   UNL     1       6.873   4.751  16.598  0.00  0.00    +0.000 A 
ATOM     23  C   UNL     1       7.615   5.115  15.420  0.00  0.00    +0.000 A 
ATOM     24  C   UNL     1       6.928   4.875  14.254  0.00  0.00    +0.000 A 
ATOM     25  S   UNL     1       5.376   4.246  14.554  0.00  0.00    +0.000 S 
ATOM     26  C   UNL     1       5.613   4.261  16.260  0.00  0.00    +0.000 A 
ENDBRANCH   1  26
TORSDOF 2
ENDMDL
MODEL 2
REMARK VINA RESULT:      -8.2      0.725      1.340
REMARK  Name = 
REMARK  3 active torsions:
REMARK  status: ('A' for Active; 'I' for Inactive)
REMARK    1  A    between atoms: C_1  and  C_2
REMARK    2  A    between atoms: C_6  and  C_7
REMARK    3  A    between atoms: C_11  and  C_12
REMARK                            x       y       z     vdW  Elec       q    Type
REMARK                         _______ _______ _______ _____ _____    ______ ____
ROOT
ATOM      1  C   UNL     1       4.520   3.670  17.288  0.00  0.00    +0.000 C 
ATOM      2  O   UNL     1       4.301   2.462  17.180  0.00  0.00    +0.000 OA
ATOM      3  N   UNL     1       3.679   4.365  18.202  0.00  0.00    +0.000 N 
ATOM      4  C   UNL     1       3.388   5.719  18.178  0.00  0.00    +0.000 A 
ATOM      5  C   UNL     1       2.510   6.033  19.196  0.00  0.00    +0.000 A 
ATOM      6  C   UNL     1       2.223   4.814  19.884  0.00  0.00    +0.000 A 
ATOM      7  C   UNL     1       1.416   4.475  20.995  0.00  0.00    +0.000 A 
ATOM      8  C   UNL     1       1.353   3.154  21.447  0.00  0.00    +0.000 A 
ATOM      9  C   UNL     1       2.109   2.168  20.833  0.00  0.00    +0.000 A 
ATOM     10  C   UNL     1       2.926   2.473  19.743  0.00  0.00    +0.000 A 
ATOM     11  C   UNL     1       2.959   3.797  19.262  0.00  0.00    +0.000 A 
ENDROOT
BRANCH   5  12
ATOM     12  C   UNL     1       2.025   7.391  19.423  0.00  0.00    +0.000 A 
ATOM     13  C   UNL     1       1.508   7.766  20.643  0.00  0.00    +0.000 A 
ATOM     14  C   UNL     1       1.118   9.077  20.743  0.00  0.00    +0.000 A 
ATOM     15  N   UNL     1       1.213   9.956  19.732  0.00  0.00    +0.000 NA
ATOM     16  C   UNL     1       1.723   9.496  18.586  0.00  0.00    +0.000 A 
ATOM     17  N   UNL     1       1.794  10.379  17.530  0.00  0.00    +0.000 N 
ATOM     18  N   UNL     1       2.118   8.239  18.375  0.00  0.00    +0.000 NA
ATOM     19  H   UNL     1       1.127  11.125  17.671  0.00  0.00    +0.000 HD
ATOM     20  H   UNL     1       1.746   9.874  16.658  0.00  0.00    +0.000 HD
ENDBRANCH   5  12
BRANCH   1  26
ATOM     21  C   UNL     1       7.286   5.068  18.312  0.00  0.00    +0.000 C 
ATOM     22  C   UNL     1       6.774   4.917  16.915  0.00  0.00    +0.000 A 
ATOM     23  C   UNL     1       7.539   5.343  15.773  0.00  0.00    +0.000 A 
ATOM     24  C   UNL     1       6.931   5.049  14.576  0.00  0.00    +0.000 A 
ATOM     25  S   UNL     1       5.425   4.294  14.802  0.00  0.00    +0.000 S 
ATOM     26  C   UNL     1       5.576   4.325  16.517  0.00  0.00    +0.000 A 
ENDBRANCH   1  26
TORSDOF 2
ENDMDL
MODEL 3
REMARK VINA RESULT:      -8.0      3.028      6.183
REMARK  Name = 
REMARK  3 active torsions:
REMARK  status: ('A' for Active; 'I' for Inactive)
REMARK    1  A    between atoms: C_1  and  C_2
REMARK    2  A    between atoms: C_6  and  C_7
REMARK    3  A    between atoms: C_11  and  C_12
REMARK                            x       y       z     vdW  Elec       q    Type
REMARK                         _______ _______ _______ _____ _____    ______ ____
ROOT
ATOM      1  C   UNL     1       1.451   7.470  20.486  0.00  0.00    +0.000 C 
ATOM      2  O   UNL     1       0.848   7.077  21.486  0.00  0.00    +0.000 OA
ATOM      3  N   UNL     1       2.215   6.482  19.805  0.00  0.00    +0.000 N 
ATOM      4  C   UNL     1       3.307   6.714  18.985  0.00  0.00    +0.000 A 
ATOM      5  C   UNL     1       3.818   5.517  18.525  0.00  0.00    +0.000 A 
ATOM      6  C   UNL     1       3.017   4.481  19.096  0.00  0.00    +0.000 A 
ATOM      7  C   UNL     1       3.024   3.069  19.011  0.00  0.00    +0.000 A 
ATOM      8  C   UNL     1       2.071   2.313  19.700  0.00  0.00    +0.000 A 
ATOM      9  C   UNL     1       1.086   2.942  20.445  0.00  0.00    +0.000 A 
ATOM     10  C   UNL     1       1.043   4.334  20.537  0.00  0.00    +0.000 A 
ATOM     11  C   UNL     1       2.028   5.095  19.875  0.00  0.00    +0.000 A 
ENDROOT
BRANCH   5  12
ATOM     12  C   UNL     1       4.973   5.447  17.635  0.00  0.00    +0.000 A 
ATOM     13  C   UNL     1       4.923   5.975  16.365  0.00  0.00    +0.000 A 
ATOM     14  C   UNL     1       6.083   5.878  15.637  0.00  0.00    +0.000 A 
ATOM     15  N   UNL     1       7.202   5.302  16.105  0.00  0.00    +0.000 NA
ATOM     16  C   UNL     1       7.150   4.813  17.347  0.00  0.00    +0.000 A 
ATOM     17  N   UNL     1       8.282   4.190  17.825  0.00  0.00    +0.000 N 
ATOM     18  N   UNL     1       6.073   4.841  18.134  0.00  0.00    +0.000 NA
ATOM     19  H   UNL     1       8.849   3.881  17.047  0.00  0.00    +0.000 HD
ATOM     20  H   UNL     1       8.026   3.499  18.514  0.00  0.00    +0.000 HD
ENDBRANCH   5  12
BRANCH   1  26
ATOM     21  C   UNL     1       1.562   8.717  17.471  0.00  0.00    +0.000 C 
ATOM     22  C   UNL     1       1.402   9.432  18.776  0.00  0.00    +0.000 A 
ATOM     23  C   UNL     1       1.191  10.854  18.844  0.00  0.00    +0.000 A 
ATOM     24  C   UNL     1       0.991  11.308  20.125  0.00  0.00    +0.000 A 
ATOM     25  S   UNL     1       1.087  10.049  21.264  0.00  0.00    +0.000 S 
ATOM     26  C   UNL     1       1.374   8.864  20.048  0.00  0.00    +0.000 A 
ENDBRANCH   1  26
TORSDOF 2
ENDMDL
MODEL 4
REMARK VINA RESULT:      -7.9      2.642      6.145
REMARK  Name = 
REMARK  3 active torsions:
REMARK  status: ('A' for Active; 'I' for Inactive)
REMARK    1  A    between atoms: C_1  and  C_2
REMARK    2  A    between atoms: C_6  and  C_7
REMARK    3  A    between atoms: C_11  and  C_12
REMARK                            x       y       z     vdW  Elec       q    Type
REMARK                         _______ _______ _______ _____ _____    ______ ____
ROOT
ATOM      1  C   UNL     1       1.520   7.490  20.183  0.00  0.00    +0.000 C 
ATOM      2  O   UNL     1       0.931   7.194  21.224  0.00  0.00    +0.000 OA
ATOM      3  N   UNL     1       2.287   6.445  19.596  0.00  0.00    +0.000 N 
ATOM      4  C   UNL     1       3.369   6.604  18.746  0.00  0.00    +0.000 A 
ATOM      5  C   UNL     1       3.888   5.371  18.403  0.00  0.00    +0.000 A 
ATOM      6  C   UNL     1       3.102   4.390  19.083  0.00  0.00    +0.000 A 
ATOM      7  C   UNL     1       3.123   2.977  19.139  0.00  0.00    +0.000 A 
ATOM      8  C   UNL     1       2.183   2.286  19.911  0.00  0.00    +0.000 A 
ATOM      9  C   UNL     1       1.200   2.978  20.599  0.00  0.00    +0.000 A 
ATOM     10  C   UNL     1       1.144   4.371  20.552  0.00  0.00    +0.000 A 
ATOM     11  C   UNL     1       2.114   5.071  19.807  0.00  0.00    +0.000 A 
ENDROOT
BRANCH   5  12
ATOM     12  C   UNL     1       5.035   5.222  17.513  0.00  0.00    +0.000 A 
ATOM     13  C   UNL     1       4.947   5.556  16.179  0.00  0.00    +0.000 A 
ATOM     14  C   UNL     1       6.101   5.404  15.454  0.00  0.00    +0.000 A 
ATOM     15  N   UNL     1       7.251   4.954  15.981  0.00  0.00    +0.000 NA
ATOM     16  C   UNL     1       7.235   4.652  17.282  0.00  0.00    +0.000 A 
ATOM     17  N   UNL     1       8.401   4.157  17.826  0.00  0.00    +0.000 N 
ATOM     18  N   UNL     1       6.167   4.746  18.076  0.00  0.00    +0.000 NA
ATOM     19  H   UNL     1       8.973   3.762  17.092  0.00  0.00    +0.000 HD
ATOM     20  H   UNL     1       8.186   3.564  18.613  0.00  0.00    +0.000 HD
ENDBRANCH   5  12
BRANCH   1  26
ATOM     21  C   UNL     1       0.595  10.292  21.578  0.00  0.00    +0.000 C 
ATOM     22  C   UNL     1       1.051  10.050  20.174  0.00  0.00    +0.000 A 
ATOM     23  C   UNL     1       1.213  11.124  19.229  0.00  0.00    +0.000 A 
ATOM     24  C   UNL     1       1.714  10.708  18.020  0.00  0.00    +0.000 A 
ATOM     25  S   UNL     1       1.962   9.026  17.984  0.00  0.00    +0.000 S 
ATOM     26  C   UNL     1       1.425   8.832  19.609  0.00  0.00    +0.000 A 
ENDBRANCH   1  26
TORSDOF 2
ENDMDL
MODEL 5
REMARK VINA RESULT:      -7.8      3.123      6.083
REMARK  Name = 
REMARK  3 active torsions:
REMARK  status: ('A' for Active; 'I' for Inactive)
REMARK    1  A    between atoms: C_1  and  C_2
REMARK    2  A    between atoms: C_6  and  C_7
REMARK    3  A    between atoms: C_11  and  C_12
REMARK                            x       y       z     vdW  Elec       q    Type
REMARK                         _______ _______ _______ _____ _____    ______ ____
ROOT
ATOM      1  C   UNL     1       1.507   6.695  20.283  0.00  0.00    +0.000 C 
ATOM      2  O   UNL     1       0.830   6.022  21.062  0.00  0.00    +0.000 OA
ATOM      3  N   UNL     1       2.355   5.955  19.413  0.00  0.00    +0.000 N 
ATOM      4  C   UNL     1       3.508   6.422  18.803  0.00  0.00    +0.000 A 
ATOM      5  C   UNL     1       4.092   5.416  18.059  0.00  0.00    +0.000 A 
ATOM      6  C   UNL     1       3.273   4.256  18.221  0.00  0.00    +0.000 A 
ATOM      7  C   UNL     1       3.329   2.933  17.724  0.00  0.00    +0.000 A 
ATOM      8  C   UNL     1       2.340   2.005  18.068  0.00  0.00    +0.000 A 
ATOM      9  C   UNL     1       1.277   2.383  18.872  0.00  0.00    +0.000 A 
ATOM     10  C   UNL     1       1.186   3.685  19.367  0.00  0.00    +0.000 A 
ATOM     11  C   UNL     1       2.202   4.609  19.053  0.00  0.00    +0.000 A 
ENDROOT
BRANCH   5  12
ATOM     12  C   UNL     1       5.321   5.615  17.298  0.00  0.00    +0.000 A 
ATOM     13  C   UNL     1       5.679   4.750  16.288  0.00  0.00    +0.000 A 
ATOM     14  C   UNL     1       6.838   5.063  15.624  0.00  0.00    +0.000 A 
ATOM     15  N   UNL     1       7.597   6.128  15.925  0.00  0.00    +0.000 NA
ATOM     16  C   UNL     1       7.170   6.904  16.924  0.00  0.00    +0.000 A 
ATOM     17  N   UNL     1       7.959   7.982  17.265  0.00  0.00    +0.000 N 
ATOM     18  N   UNL     1       6.069   6.686  17.645  0.00  0.00    +0.000 NA
ATOM     19  H   UNL     1       8.906   7.816  16.953  0.00  0.00    +0.000 HD
ATOM     20  H   UNL     1       7.825   8.210  18.238  0.00  0.00    +0.000 HD
ENDBRANCH   5  12
BRANCH   1  26
ATOM     21  C   UNL     1       1.463   8.761  17.756  0.00  0.00    +0.000 C 
ATOM     22  C   UNL     1       1.392   9.068  19.218  0.00  0.00    +0.000 A 
ATOM     23  C   UNL     1       1.210  10.409  19.707  0.00  0.00    +0.000 A 
ATOM     24  C   UNL     1       1.092  10.473  21.074  0.00  0.00    +0.000 A 
ATOM     25  S   UNL     1       1.233   8.939  21.793  0.00  0.00    +0.000 S 
ATOM     26  C   UNL     1       1.428   8.156  20.272  0.00  0.00    +0.000 A 
ENDBRANCH   1  26
TORSDOF 2
ENDMDL
MODEL 6
REMARK VINA RESULT:      -7.8      1.830      2.427
REMARK  Name = 
REMARK  3 active torsions:
REMARK  status: ('A' for Active; 'I' for Inactive)
REMARK    1  A    between atoms: C_1  and  C_2
REMARK    2  A    between atoms: C_6  and  C_7
REMARK    3  A    between atoms: C_11  and  C_12
REMARK                            x       y       z     vdW  Elec       q    Type
REMARK                         _______ _______ _______ _____ _____    ______ ____
ROOT
ATOM      1  C   UNL     1       5.105   4.802  18.252  0.00  0.00    +0.000 C 
ATOM      2  O   UNL     1       5.120   3.640  17.841  0.00  0.00    +0.000 OA
ATOM      3  N   UNL     1       3.921   5.193  18.938  0.00  0.00    +0.000 N 
ATOM      4  C   UNL     1       3.449   6.487  19.082  0.00  0.00    +0.000 A 
ATOM      5  C   UNL     1       2.255   6.481  19.776  0.00  0.00    +0.000 A 
ATOM      6  C   UNL     1       1.955   5.115  20.069  0.00  0.00    +0.000 A 
ATOM      7  C   UNL     1       0.899   4.461  20.745  0.00  0.00    +0.000 A 
ATOM      8  C   UNL     1       0.899   3.069  20.879  0.00  0.00    +0.000 A 
ATOM      9  C   UNL     1       1.952   2.320  20.382  0.00  0.00    +0.000 A 
ATOM     10  C   UNL     1       3.017   2.937  19.722  0.00  0.00    +0.000 A 
ATOM     11  C   UNL     1       2.998   4.335  19.552  0.00  0.00    +0.000 A 
ENDROOT
BRANCH   5  12
ATOM     12  C   UNL     1       1.521   7.704  20.084  0.00  0.00    +0.000 A 
ATOM     13  C   UNL     1       0.939   7.892  21.318  0.00  0.00    +0.000 A 
ATOM     14  C   UNL     1       0.307   9.096  21.498  0.00  0.00    +0.000 A 
ATOM     15  N   UNL     1       0.237  10.043  20.548  0.00  0.00    +0.000 NA
ATOM     16  C   UNL     1       0.827   9.766  19.382  0.00  0.00    +0.000 A 
ATOM     17  N   UNL     1       0.733  10.715  18.387  0.00  0.00    +0.000 N 
ATOM     18  N   UNL     1       1.454   8.623  19.095  0.00  0.00    +0.000 NA
ATOM     19  H   UNL     1      -0.064  11.311  18.567  0.00  0.00    +0.000 HD
ATOM     20  H   UNL     1       0.783  10.271  17.484  0.00  0.00    +0.000 HD
ENDBRANCH   5  12
BRANCH   1  26
ATOM     21  C   UNL     1       5.684   6.872  15.796  0.00  0.00    +0.000 C 
ATOM     22  C   UNL     1       6.512   6.608  17.014  0.00  0.00    +0.000 A 
ATOM     23  C   UNL     1       7.715   7.347  17.292  0.00  0.00    +0.000 A 
ATOM     24  C   UNL     1       8.289   7.010  18.494  0.00  0.00    +0.000 A 
ATOM     25  S   UNL     1       7.420   5.782  19.287  0.00  0.00    +0.000 S 
ATOM     26  C   UNL     1       6.238   5.702  18.037  0.00  0.00    +0.000 A 
ENDBRANCH   1  26
TORSDOF 2
ENDMDL
MODEL 7
REMARK VINA RESULT:      -7.8      3.025      6.240
REMARK  Name = 
REMARK  3 active torsions:
REMARK  status: ('A' for Active; 'I' for Inactive)
REMARK    1  A    between atoms: C_1  and  C_2
REMARK    2  A    between atoms: C_6  and  C_7
REMARK    3  A    between atoms: C_11  and  C_12
REMARK                            x       y       z     vdW  Elec       q    Type
REMARK                         _______ _______ _______ _____ _____    ______ ____
ROOT
ATOM      1  C   UNL     1       1.330   7.500  20.554  0.00  0.00    +0.000 C 
ATOM      2  O   UNL     1       0.591   7.094  21.452  0.00  0.00    +0.000 OA
ATOM      3  N   UNL     1       2.198   6.525  19.988  0.00  0.00    +0.000 N 
ATOM      4  C   UNL     1       3.396   6.774  19.340  0.00  0.00    +0.000 A 
ATOM      5  C   UNL     1       3.983   5.585  18.955  0.00  0.00    +0.000 A 
ATOM      6  C   UNL     1       3.118   4.536  19.396  0.00  0.00    +0.000 A 
ATOM      7  C   UNL     1       3.154   3.125  19.306  0.00  0.00    +0.000 A 
ATOM      8  C   UNL     1       2.118   2.355  19.843  0.00  0.00    +0.000 A 
ATOM      9  C   UNL     1       1.027   2.969  20.437  0.00  0.00    +0.000 A 
ATOM     10  C   UNL     1       0.955   4.360  20.529  0.00  0.00    +0.000 A 
ATOM     11  C   UNL     1       2.017   5.135  20.024  0.00  0.00    +0.000 A 
ENDROOT
BRANCH   5  12
ATOM     12  C   UNL     1       5.257   5.532  18.245  0.00  0.00    +0.000 A 
ATOM     13  C   UNL     1       6.444   5.381  18.927  0.00  0.00    +0.000 A 
ATOM     14  C   UNL     1       7.570   5.311  18.146  0.00  0.00    +0.000 A 
ATOM     15  N   UNL     1       7.547   5.392  16.806  0.00  0.00    +0.000 NA
ATOM     16  C   UNL     1       6.348   5.544  16.237  0.00  0.00    +0.000 A 
ATOM     17  N   UNL     1       6.314   5.663  14.864  0.00  0.00    +0.000 N 
ATOM     18  N   UNL     1       5.193   5.639  16.900  0.00  0.00    +0.000 NA
ATOM     19  H   UNL     1       7.216   5.976  14.532  0.00  0.00    +0.000 HD
ATOM     20  H   UNL     1       5.507   6.201  14.587  0.00  0.00    +0.000 HD
ENDBRANCH   5  12
BRANCH   1  26
ATOM     21  C   UNL     1       1.578   8.747  17.547  0.00  0.00    +0.000 C 
ATOM     22  C   UNL     1       1.389   9.464  18.847  0.00  0.00    +0.000 A 
ATOM     23  C   UNL     1       1.212  10.891  18.911  0.00  0.00    +0.000 A 
ATOM     24  C   UNL     1       0.977  11.349  20.185  0.00  0.00    +0.000 A 
ATOM     25  S   UNL     1       1.002  10.087  21.324  0.00  0.00    +0.000 S 
ATOM     26  C   UNL     1       1.303   8.896  20.116  0.00  0.00    +0.000 A 
ENDBRANCH   1  26
TORSDOF 2
ENDMDL
MODEL 8
REMARK VINA RESULT:      -7.8      0.865      1.340
REMARK  Name = 
REMARK  3 active torsions:
REMARK  status: ('A' for Active; 'I' for Inactive)
REMARK    1  A    between atoms: C_1  and  C_2
REMARK    2  A    between atoms: C_6  and  C_7
REMARK    3  A    between atoms: C_11  and  C_12
REMARK                            x       y       z     vdW  Elec       q    Type
REMARK                         _______ _______ _______ _____ _____    ______ ____
ROOT
ATOM      1  C   UNL     1       4.519   3.563  17.083  0.00  0.00    +0.000 C 
ATOM      2  O   UNL     1       4.236   2.364  17.034  0.00  0.00    +0.000 OA
ATOM      3  N   UNL     1       3.676   4.356  17.911  0.00  0.00    +0.000 N 
ATOM      4  C   UNL     1       3.464   5.720  17.795  0.00  0.00    +0.000 A 
ATOM      5  C   UNL     1       2.557   6.142  18.747  0.00  0.00    +0.000 A 
ATOM      6  C   UNL     1       2.169   4.984  19.488  0.00  0.00    +0.000 A 
ATOM      7  C   UNL     1       1.293   4.757  20.575  0.00  0.00    +0.000 A 
ATOM      8  C   UNL     1       1.133   3.471  21.099  0.00  0.00    +0.000 A 
ATOM      9  C   UNL     1       1.860   2.411  20.582  0.00  0.00    +0.000 A 
ATOM     10  C   UNL     1       2.744   2.604  19.519  0.00  0.00    +0.000 A 
ATOM     11  C   UNL     1       2.875   3.893  18.964  0.00  0.00    +0.000 A 
ENDROOT
BRANCH   5  12
ATOM     12  C   UNL     1       2.141   7.535  18.870  0.00  0.00    +0.000 A 
ATOM     13  C   UNL     1       2.198   8.392  17.793  0.00  0.00    +0.000 A 
ATOM     14  C   UNL     1       1.747   9.666  18.025  0.00  0.00    +0.000 A 
ATOM     15  N   UNL     1       1.284  10.081  19.215  0.00  0.00    +0.000 NA
ATOM     16  C   UNL     1       1.272   9.178  20.200  0.00  0.00    +0.000 A 
ATOM     17  N   UNL     1       0.831   9.601  21.435  0.00  0.00    +0.000 N 
ATOM     18  N   UNL     1       1.701   7.919  20.089  0.00  0.00    +0.000 NA
ATOM     19  H   UNL     1       0.924  10.606  21.499  0.00  0.00    +0.000 HD
ATOM     20  H   UNL     1       1.264   9.050  22.160  0.00  0.00    +0.000 HD
ENDBRANCH   5  12
BRANCH   1  26
ATOM     21  C   UNL     1       4.928   3.849  13.858  0.00  0.00    +0.000 C 
ATOM     22  C   UNL     1       5.850   4.265  14.960  0.00  0.00    +0.000 A 
ATOM     23  C   UNL     1       7.085   4.957  14.700  0.00  0.00    +0.000 A 
ATOM     24  C   UNL     1       7.751   5.320  15.845  0.00  0.00    +0.000 A 
ATOM     25  S   UNL     1       6.929   4.809  17.243  0.00  0.00    +0.000 S 
ATOM     26  C   UNL     1       5.646   4.112  16.330  0.00  0.00    +0.000 A 
ENDBRANCH   1  26
TORSDOF 2
ENDMDL
MODEL 9
REMARK VINA RESULT:      -7.8      1.853      2.231
REMARK  Name = 
REMARK  3 active torsions:
REMARK  status: ('A' for Active; 'I' for Inactive)
REMARK    1  A    between atoms: C_1  and  C_2
REMARK    2  A    between atoms: C_6  and  C_7
REMARK    3  A    between atoms: C_11  and  C_12
REMARK                            x       y       z     vdW  Elec       q    Type
REMARK                         _______ _______ _______ _____ _____    ______ ____
ROOT
ATOM      1  C   UNL     1       5.112   4.827  18.286  0.00  0.00    +0.000 C 
ATOM      2  O   UNL     1       5.140   3.667  17.873  0.00  0.00    +0.000 OA
ATOM      3  N   UNL     1       3.923   5.205  18.970  0.00  0.00    +0.000 N 
ATOM      4  C   UNL     1       3.437   6.494  19.115  0.00  0.00    +0.000 A 
ATOM      5  C   UNL     1       2.242   6.475  19.806  0.00  0.00    +0.000 A 
ATOM      6  C   UNL     1       1.955   5.105  20.097  0.00  0.00    +0.000 A 
ATOM      7  C   UNL     1       0.905   4.439  20.769  0.00  0.00    +0.000 A 
ATOM      8  C   UNL     1       0.919   3.047  20.902  0.00  0.00    +0.000 A 
ATOM      9  C   UNL     1       1.981   2.309  20.405  0.00  0.00    +0.000 A 
ATOM     10  C   UNL     1       3.040   2.938  19.749  0.00  0.00    +0.000 A 
ATOM     11  C   UNL     1       3.007   4.337  19.580  0.00  0.00    +0.000 A 
ENDROOT
BRANCH   5  12
ATOM     12  C   UNL     1       1.495   7.690  20.114  0.00  0.00    +0.000 A 
ATOM     13  C   UNL     1       1.463   8.747  19.233  0.00  0.00    +0.000 A 
ATOM     14  C   UNL     1       0.699   9.819  19.620  0.00  0.00    +0.000 A 
ATOM     15  N   UNL     1       0.024   9.864  20.780  0.00  0.00    +0.000 NA
ATOM     16  C   UNL     1       0.121   8.792  21.571  0.00  0.00    +0.000 A 
ATOM     17  N   UNL     1      -0.539   8.840  22.780  0.00  0.00    +0.000 N 
ATOM     18  N   UNL     1       0.847   7.705  21.300  0.00  0.00    +0.000 NA
ATOM     19  H   UNL     1      -0.696   9.805  23.039  0.00  0.00    +0.000 HD
ATOM     20  H   UNL     1      -0.069   8.252  23.451  0.00  0.00    +0.000 HD
ENDBRANCH   5  12
BRANCH   1  26
ATOM     21  C   UNL     1       5.628   6.976  15.883  0.00  0.00    +0.000 C 
ATOM     22  C   UNL     1       6.484   6.678  17.074  0.00  0.00    +0.000 A 
ATOM     23  C   UNL     1       7.689   7.415  17.350  0.00  0.00    +0.000 A 
ATOM     24  C   UNL     1       8.291   7.044  18.528  0.00  0.00    +0.000 A 
ATOM     25  S   UNL     1       7.444   5.787  19.300  0.00  0.00    +0.000 S 
ATOM     26  C   UNL     1       6.236   5.739  18.074  0.00  0.00    +0.000 A 
ENDBRANCH   1  26
TORSDOF 2
ENDMDL
