MODEL 1
REMARK VINA RESULT:      -5.5      0.000      0.000
REMARK  Name = 
REMARK  14 active torsions:
REMARK  status: ('A' for Active; 'I' for Inactive)
REMARK    1  A    between atoms: C_2  and  C_3
REMARK    2  A    between atoms: C_3  and  O_4
REMARK    3  A    between atoms: C_3  and  C_5
REMARK    4  A    between atoms: C_5  and  O_6
REMARK    5  A    between atoms: C_5  and  C_7
REMARK    6  A    between atoms: C_7  and  N_8
REMARK    7  A    between atoms: N_8  and  C_9
REMARK    8  A    between atoms: C_9  and  C_10
REMARK    9  A    between atoms: C_10  and  C_11
REMARK   10  A    between atoms: C_11  and  C_12
REMARK   11  A    between atoms: C_12  and  C_13
REMARK   12  A    between atoms: C_13  and  C_14
REMARK   13  A    between atoms: C_14  and  C_15
REMARK   14  A    between atoms: C_15  and  C_16
REMARK                            x       y       z     vdW  Elec       q    Type
REMARK                         _______ _______ _______ _____ _____    ______ ____
ROOT
ATOM      1  N   UNL     1       6.061   4.016  17.199  0.00  0.00    +0.000 NA
ATOM      2  H   UNL     1       6.290   3.021  17.209  0.00  0.00    +0.000 HD
ENDROOT
BRANCH   1   3
ATOM      3  C   UNL     1       6.213   4.574  18.546  0.00  0.00    +0.000 C 
BRANCH   3   4
ATOM      4  C   UNL     1       7.489   5.427  18.692  0.00  0.00    +0.000 C 
BRANCH   4   5
ATOM      5  O   UNL     1       7.797   5.685  20.078  0.00  0.00    +0.000 OA
ATOM      6  H   UNL     1       7.097   5.269  20.610  0.00  0.00    +0.000 HD
ENDBRANCH   4   5
BRANCH   4   7
ATOM      7  C   UNL     1       7.341   6.770  17.932  0.00  0.00    +0.000 C 
BRANCH   7   9
ATOM      8  C   UNL     1       8.271   9.112  18.038  0.00  0.00    +0.000 C 
ATOM      9  C   UNL     1       8.323   7.820  18.380  0.00  0.00    +0.000 C 
ENDBRANCH   7   9
BRANCH   7  10
ATOM     10  O   UNL     1       7.573   6.566  16.541  0.00  0.00    +0.000 OA
ATOM     11  H   UNL     1       7.175   5.702  16.331  0.00  0.00    +0.000 HD
ENDBRANCH   7  10
ENDBRANCH   4   7
ENDBRANCH   3   4
ENDBRANCH   1   3
BRANCH   1  12
ATOM     12  C   UNL     1       4.717   4.228  16.657  0.00  0.00    +0.000 C 
BRANCH  12  13
ATOM     13  C   UNL     1       3.987   5.425  17.282  0.00  0.00    +0.000 C 
BRANCH  13  14
ATOM     14  C   UNL     1       2.604   5.039  17.812  0.00  0.00    +0.000 C 
BRANCH  14  15
ATOM     15  C   UNL     1       2.521   3.553  18.145  0.00  0.00    +0.000 C 
BRANCH  15  16
ATOM     16  C   UNL     1       1.061   3.122  18.283  0.00  0.00    +0.000 C 
BRANCH  16  17
ATOM     17  C   UNL     1       0.780   2.569  19.676  0.00  0.00    +0.000 C 
BRANCH  17  18
ATOM     18  C   UNL     1       1.158   3.581  20.756  0.00  0.00    +0.000 C 
ATOM     19  C   UNL     1       2.190   3.001  21.709  0.00  0.00    +0.000 C 
ENDBRANCH  17  18
ENDBRANCH  16  17
ENDBRANCH  15  16
ENDBRANCH  14  15
ENDBRANCH  13  14
ENDBRANCH  12  13
ENDBRANCH   1  12
TORSDOF 13
ENDMDL
MODEL 2
REMARK VINA RESULT:      -5.5      3.254      6.636
REMARK  Name = 
REMARK  14 active torsions:
REMARK  status: ('A' for Active; 'I' for Inactive)
REMARK    1  A    between atoms: C_2  and  C_3
REMARK    2  A    between atoms: C_3  and  O_4
REMARK    3  A    between atoms: C_3  and  C_5
REMARK    4  A    between atoms: C_5  and  O_6
REMARK    5  A    between atoms: C_5  and  C_7
REMARK    6  A    between atoms: C_7  and  N_8
REMARK    7  A    between atoms: N_8  and  C_9
REMARK    8  A    between atoms: C_9  and  C_10
REMARK    9  A    between atoms: C_10  and  C_11
REMARK   10  A    between atoms: C_11  and  C_12
REMARK   11  A    between atoms: C_12  and  C_13
REMARK   12  A    between atoms: C_13  and  C_14
REMARK   13  A    between atoms: C_14  and  C_15
REMARK   14  A    between atoms: C_15  and  C_16
REMARK                            x       y       z     vdW  Elec       q    Type
REMARK                         _______ _______ _______ _____ _____    ______ ____
ROOT
ATOM      1  N   UNL     1       5.339   3.621  18.681  0.00  0.00    +0.000 NA
ATOM      2  H   UNL     1       6.058   2.899  18.748  0.00  0.00    +0.000 HD
ENDROOT
BRANCH   1   3
ATOM      3  C   UNL     1       4.170   3.095  17.970  0.00  0.00    +0.000 C 
BRANCH   3   4
ATOM      4  C   UNL     1       3.083   2.568  18.928  0.00  0.00    +0.000 C 
BRANCH   4   5
ATOM      5  O   UNL     1       2.429   1.399  18.393  0.00  0.00    +0.000 OA
ATOM      6  H   UNL     1       1.694   1.180  18.993  0.00  0.00    +0.000 HD
ENDBRANCH   4   5
BRANCH   4   7
ATOM      7  C   UNL     1       2.030   3.667  19.221  0.00  0.00    +0.000 C 
BRANCH   7   9
ATOM      8  C   UNL     1       1.706   2.886  21.597  0.00  0.00    +0.000 C 
ATOM      9  C   UNL     1       1.220   3.400  20.462  0.00  0.00    +0.000 C 
ENDBRANCH   7   9
BRANCH   7  10
ATOM     10  O   UNL     1       2.681   4.918  19.424  0.00  0.00    +0.000 OA
ATOM     11  H   UNL     1       3.439   4.730  20.007  0.00  0.00    +0.000 HD
ENDBRANCH   7  10
ENDBRANCH   4   7
ENDBRANCH   3   4
ENDBRANCH   1   3
BRANCH   1  12
ATOM     12  C   UNL     1       5.879   4.826  18.049  0.00  0.00    +0.000 C 
BRANCH  12  13
ATOM     13  C   UNL     1       7.254   4.615  17.400  0.00  0.00    +0.000 C 
BRANCH  13  14
ATOM     14  C   UNL     1       7.174   4.622  15.871  0.00  0.00    +0.000 C 
BRANCH  14  15
ATOM     15  C   UNL     1       5.824   5.132  15.379  0.00  0.00    +0.000 C 
BRANCH  15  16
ATOM     16  C   UNL     1       5.297   4.237  14.258  0.00  0.00    +0.000 C 
BRANCH  16  17
ATOM     17  C   UNL     1       6.397   3.910  13.253  0.00  0.00    +0.000 C 
BRANCH  17  18
ATOM     18  C   UNL     1       5.873   3.002  12.141  0.00  0.00    +0.000 C 
ATOM     19  C   UNL     1       4.503   3.455  11.667  0.00  0.00    +0.000 C 
ENDBRANCH  17  18
ENDBRANCH  16  17
ENDBRANCH  15  16
ENDBRANCH  14  15
ENDBRANCH  13  14
ENDBRANCH  12  13
ENDBRANCH   1  12
TORSDOF 13
ENDMDL
MODEL 3
REMARK VINA RESULT:      -5.5      2.241      3.708
REMARK  Name = 
REMARK  14 active torsions:
REMARK  status: ('A' for Active; 'I' for Inactive)
REMARK    1  A    between atoms: C_2  and  C_3
REMARK    2  A    between atoms: C_3  and  O_4
REMARK    3  A    between atoms: C_3  and  C_5
REMARK    4  A    between atoms: C_5  and  O_6
REMARK    5  A    between atoms: C_5  and  C_7
REMARK    6  A    between atoms: C_7  and  N_8
REMARK    7  A    between atoms: N_8  and  C_9
REMARK    8  A    between atoms: C_9  and  C_10
REMARK    9  A    between atoms: C_10  and  C_11
REMARK   10  A    between atoms: C_11  and  C_12
REMARK   11  A    between atoms: C_12  and  C_13
REMARK   12  A    between atoms: C_13  and  C_14
REMARK   13  A    between atoms: C_14  and  C_15
REMARK   14  A    between atoms: C_15  and  C_16
REMARK                            x       y       z     vdW  Elec       q    Type
REMARK                         _______ _______ _______ _____ _____    ______ ____
ROOT
ATOM      1  N   UNL     1       6.607   4.338  17.778  0.00  0.00    +0.000 NA
ATOM      2  H   UNL     1       7.455   3.890  18.126  0.00  0.00    +0.000 HD
ENDROOT
BRANCH   1   3
ATOM      3  C   UNL     1       6.951   5.327  16.752  0.00  0.00    +0.000 C 
BRANCH   3   4
ATOM      4  C   UNL     1       7.297   4.678  15.397  0.00  0.00    +0.000 C 
BRANCH   4   5
ATOM      5  O   UNL     1       7.844   5.641  14.473  0.00  0.00    +0.000 OA
ATOM      6  H   UNL     1       8.532   6.138  14.949  0.00  0.00    +0.000 HD
ENDBRANCH   4   5
BRANCH   4   7
ATOM      7  C   UNL     1       6.045   4.010  14.773  0.00  0.00    +0.000 C 
BRANCH   7   9
ATOM      8  C   UNL     1       5.206   3.490  12.452  0.00  0.00    +0.000 C 
ATOM      9  C   UNL     1       6.212   3.676  13.314  0.00  0.00    +0.000 C 
ENDBRANCH   7   9
BRANCH   7  10
ATOM     10  O   UNL     1       5.770   2.781  15.440  0.00  0.00    +0.000 OA
ATOM     11  H   UNL     1       5.746   2.996  16.391  0.00  0.00    +0.000 HD
ENDBRANCH   7  10
ENDBRANCH   4   7
ENDBRANCH   3   4
ENDBRANCH   1   3
BRANCH   1  12
ATOM     12  C   UNL     1       5.844   4.923  18.882  0.00  0.00    +0.000 C 
BRANCH  12  13
ATOM     13  C   UNL     1       4.443   4.319  19.048  0.00  0.00    +0.000 C 
BRANCH  13  14
ATOM     14  C   UNL     1       3.492   4.761  17.934  0.00  0.00    +0.000 C 
BRANCH  14  15
ATOM     15  C   UNL     1       2.042   4.789  18.407  0.00  0.00    +0.000 C 
BRANCH  15  16
ATOM     16  C   UNL     1       1.370   3.445  18.134  0.00  0.00    +0.000 C 
BRANCH  16  17
ATOM     17  C   UNL     1       0.719   2.888  19.395  0.00  0.00    +0.000 C 
BRANCH  17  18
ATOM     18  C   UNL     1       1.118   3.702  20.625  0.00  0.00    +0.000 C 
ATOM     19  C   UNL     1       1.882   2.845  21.621  0.00  0.00    +0.000 C 
ENDBRANCH  17  18
ENDBRANCH  16  17
ENDBRANCH  15  16
ENDBRANCH  14  15
ENDBRANCH  13  14
ENDBRANCH  12  13
ENDBRANCH   1  12
TORSDOF 13
ENDMDL
MODEL 4
REMARK VINA RESULT:      -5.4      2.147      3.206
REMARK  Name = 
REMARK  14 active torsions:
REMARK  status: ('A' for Active; 'I' for Inactive)
REMARK    1  A    between atoms: C_2  and  C_3
REMARK    2  A    between atoms: C_3  and  O_4
REMARK    3  A    between atoms: C_3  and  C_5
REMARK    4  A    between atoms: C_5  and  O_6
REMARK    5  A    between atoms: C_5  and  C_7
REMARK    6  A    between atoms: C_7  and  N_8
REMARK    7  A    between atoms: N_8  and  C_9
REMARK    8  A    between atoms: C_9  and  C_10
REMARK    9  A    between atoms: C_10  and  C_11
REMARK   10  A    between atoms: C_11  and  C_12
REMARK   11  A    between atoms: C_12  and  C_13
REMARK   12  A    between atoms: C_13  and  C_14
REMARK   13  A    between atoms: C_14  and  C_15
REMARK   14  A    between atoms: C_15  and  C_16
REMARK                            x       y       z     vdW  Elec       q    Type
REMARK                         _______ _______ _______ _____ _____    ______ ____
ROOT
ATOM      1  N   UNL     1       4.506   5.859  17.421  0.00  0.00    +0.000 NA
ATOM      2  H   UNL     1       3.582   5.501  17.173  0.00  0.00    +0.000 HD
ENDROOT
BRANCH   1   3
ATOM      3  C   UNL     1       5.285   6.109  16.205  0.00  0.00    +0.000 C 
BRANCH   3   4
ATOM      4  C   UNL     1       6.750   5.646  16.335  0.00  0.00    +0.000 C 
BRANCH   4   5
ATOM      5  O   UNL     1       7.652   6.767  16.436  0.00  0.00    +0.000 OA
ATOM      6  H   UNL     1       7.157   7.499  16.844  0.00  0.00    +0.000 HD
ENDBRANCH   4   5
BRANCH   4   7
ATOM      7  C   UNL     1       7.154   4.759  15.130  0.00  0.00    +0.000 C 
BRANCH   7   9
ATOM      8  C   UNL     1       5.915   3.763  13.172  0.00  0.00    +0.000 C 
ATOM      9  C   UNL     1       5.982   4.081  14.469  0.00  0.00    +0.000 C 
ENDBRANCH   7   9
BRANCH   7  10
ATOM     10  O   UNL     1       7.776   5.559  14.128  0.00  0.00    +0.000 OA
ATOM     11  H   UNL     1       7.490   6.474  14.305  0.00  0.00    +0.000 HD
ENDBRANCH   7  10
ENDBRANCH   4   7
ENDBRANCH   3   4
ENDBRANCH   1   3
BRANCH   1  12
ATOM     12  C   UNL     1       5.184   4.940  18.338  0.00  0.00    +0.000 C 
BRANCH  12  13
ATOM     13  C   UNL     1       4.257   3.868  18.928  0.00  0.00    +0.000 C 
BRANCH  13  14
ATOM     14  C   UNL     1       3.723   2.917  17.855  0.00  0.00    +0.000 C 
BRANCH  14  15
ATOM     15  C   UNL     1       2.225   3.101  17.632  0.00  0.00    +0.000 C 
BRANCH  15  16
ATOM     16  C   UNL     1       1.434   2.225  18.603  0.00  0.00    +0.000 C 
BRANCH  16  17
ATOM     17  C   UNL     1       0.821   3.059  19.723  0.00  0.00    +0.000 C 
BRANCH  17  18
ATOM     18  C   UNL     1       1.323   2.598  21.090  0.00  0.00    +0.000 C 
ATOM     19  C   UNL     1       2.183   3.666  21.743  0.00  0.00    +0.000 C 
ENDBRANCH  17  18
ENDBRANCH  16  17
ENDBRANCH  15  16
ENDBRANCH  14  15
ENDBRANCH  13  14
ENDBRANCH  12  13
ENDBRANCH   1  12
TORSDOF 13
ENDMDL
MODEL 5
REMARK VINA RESULT:      -5.4      3.626      6.643
REMARK  Name = 
REMARK  14 active torsions:
REMARK  status: ('A' for Active; 'I' for Inactive)
REMARK    1  A    between atoms: C_2  and  C_3
REMARK    2  A    between atoms: C_3  and  O_4
REMARK    3  A    between atoms: C_3  and  C_5
REMARK    4  A    between atoms: C_5  and  O_6
REMARK    5  A    between atoms: C_5  and  C_7
REMARK    6  A    between atoms: C_7  and  N_8
REMARK    7  A    between atoms: N_8  and  C_9
REMARK    8  A    between atoms: C_9  and  C_10
REMARK    9  A    between atoms: C_10  and  C_11
REMARK   10  A    between atoms: C_11  and  C_12
REMARK   11  A    between atoms: C_12  and  C_13
REMARK   12  A    between atoms: C_13  and  C_14
REMARK   13  A    between atoms: C_14  and  C_15
REMARK   14  A    between atoms: C_15  and  C_16
REMARK                            x       y       z     vdW  Elec       q    Type
REMARK                         _______ _______ _______ _____ _____    ______ ____
ROOT
ATOM      1  N   UNL     1       5.708   3.620  19.072  0.00  0.00    +0.000 NA
ATOM      2  H   UNL     1       5.813   2.835  18.427  0.00  0.00    +0.000 HD
ENDROOT
BRANCH   1   3
ATOM      3  C   UNL     1       4.323   3.689  19.548  0.00  0.00    +0.000 C 
BRANCH   3   4
ATOM      4  C   UNL     1       3.632   2.311  19.559  0.00  0.00    +0.000 C 
BRANCH   4   5
ATOM      5  O   UNL     1       4.186   1.433  18.557  0.00  0.00    +0.000 OA
ATOM      6  H   UNL     1       3.783   0.557  18.686  0.00  0.00    +0.000 HD
ENDBRANCH   4   5
BRANCH   4   7
ATOM      7  C   UNL     1       2.105   2.461  19.334  0.00  0.00    +0.000 C 
BRANCH   7   9
ATOM      8  C   UNL     1       1.447   4.282  17.719  0.00  0.00    +0.000 C 
ATOM      9  C   UNL     1       1.692   3.861  18.964  0.00  0.00    +0.000 C 
ENDBRANCH   7   9
BRANCH   7  10
ATOM     10  O   UNL     1       1.691   1.619  18.261  0.00  0.00    +0.000 OA
ATOM     11  H   UNL     1       2.500   1.409  17.761  0.00  0.00    +0.000 HD
ENDBRANCH   7  10
ENDBRANCH   4   7
ENDBRANCH   3   4
ENDBRANCH   1   3
BRANCH   1  12
ATOM     12  C   UNL     1       6.142   4.867  18.439  0.00  0.00    +0.000 C 
BRANCH  12  13
ATOM     13  C   UNL     1       6.748   4.668  17.043  0.00  0.00    +0.000 C 
BRANCH  13  14
ATOM     14  C   UNL     1       5.848   5.233  15.941  0.00  0.00    +0.000 C 
BRANCH  14  15
ATOM     15  C   UNL     1       6.444   5.008  14.555  0.00  0.00    +0.000 C 
BRANCH  15  16
ATOM     16  C   UNL     1       5.757   3.827  13.871  0.00  0.00    +0.000 C 
BRANCH  16  17
ATOM     17  C   UNL     1       6.355   3.566  12.492  0.00  0.00    +0.000 C 
BRANCH  17  18
ATOM     18  C   UNL     1       5.492   2.590  11.694  0.00  0.00    +0.000 C 
ATOM     19  C   UNL     1       4.171   3.227  11.299  0.00  0.00    +0.000 C 
ENDBRANCH  17  18
ENDBRANCH  16  17
ENDBRANCH  15  16
ENDBRANCH  14  15
ENDBRANCH  13  14
ENDBRANCH  12  13
ENDBRANCH   1  12
TORSDOF 13
ENDMDL
MODEL 6
REMARK VINA RESULT:      -5.4      1.801      2.836
REMARK  Name = 
REMARK  14 active torsions:
REMARK  status: ('A' for Active; 'I' for Inactive)
REMARK    1  A    between atoms: C_2  and  C_3
REMARK    2  A    between atoms: C_3  and  O_4
REMARK    3  A    between atoms: C_3  and  C_5
REMARK    4  A    between atoms: C_5  and  O_6
REMARK    5  A    between atoms: C_5  and  C_7
REMARK    6  A    between atoms: C_7  and  N_8
REMARK    7  A    between atoms: N_8  and  C_9
REMARK    8  A    between atoms: C_9  and  C_10
REMARK    9  A    between atoms: C_10  and  C_11
REMARK   10  A    between atoms: C_11  and  C_12
REMARK   11  A    between atoms: C_12  and  C_13
REMARK   12  A    between atoms: C_13  and  C_14
REMARK   13  A    between atoms: C_14  and  C_15
REMARK   14  A    between atoms: C_15  and  C_16
REMARK                            x       y       z     vdW  Elec       q    Type
REMARK                         _______ _______ _______ _____ _____    ______ ____
ROOT
ATOM      1  N   UNL     1       6.315   4.740  18.989  0.00  0.00    +0.000 NA
ATOM      2  H   UNL     1       6.985   4.444  19.700  0.00  0.00    +0.000 HD
ENDROOT
BRANCH   1   3
ATOM      3  C   UNL     1       6.646   6.090  18.525  0.00  0.00    +0.000 C 
BRANCH   3   4
ATOM      4  C   UNL     1       6.933   6.141  17.011  0.00  0.00    +0.000 C 
BRANCH   4   5
ATOM      5  O   UNL     1       5.948   6.930  16.312  0.00  0.00    +0.000 OA
ATOM      6  H   UNL     1       5.628   7.608  16.934  0.00  0.00    +0.000 HD
ENDBRANCH   4   5
BRANCH   4   7
ATOM      7  C   UNL     1       6.977   4.712  16.412  0.00  0.00    +0.000 C 
BRANCH   7   9
ATOM      8  C   UNL     1       6.121   4.144  14.110  0.00  0.00    +0.000 C 
ATOM      9  C   UNL     1       7.040   4.698  14.908  0.00  0.00    +0.000 C 
ENDBRANCH   7   9
BRANCH   7  10
ATOM     10  O   UNL     1       8.142   4.031  16.872  0.00  0.00    +0.000 OA
ATOM     11  H   UNL     1       7.822   3.205  17.278  0.00  0.00    +0.000 HD
ENDBRANCH   7  10
ENDBRANCH   4   7
ENDBRANCH   3   4
ENDBRANCH   1   3
BRANCH   1  12
ATOM     12  C   UNL     1       4.947   4.648  19.504  0.00  0.00    +0.000 C 
BRANCH  12  13
ATOM     13  C   UNL     1       4.008   5.726  18.946  0.00  0.00    +0.000 C 
BRANCH  13  14
ATOM     14  C   UNL     1       3.197   5.218  17.751  0.00  0.00    +0.000 C 
BRANCH  14  15
ATOM     15  C   UNL     1       1.816   4.729  18.175  0.00  0.00    +0.000 C 
BRANCH  15  16
ATOM     16  C   UNL     1       1.636   3.259  17.796  0.00  0.00    +0.000 C 
BRANCH  16  17
ATOM     17  C   UNL     1       1.077   2.454  18.964  0.00  0.00    +0.000 C 
BRANCH  17  18
ATOM     18  C   UNL     1       2.050   2.447  20.142  0.00  0.00    +0.000 C 
ATOM     19  C   UNL     1       1.359   2.880  21.423  0.00  0.00    +0.000 C 
ENDBRANCH  17  18
ENDBRANCH  16  17
ENDBRANCH  15  16
ENDBRANCH  14  15
ENDBRANCH  13  14
ENDBRANCH  12  13
ENDBRANCH   1  12
TORSDOF 13
ENDMDL
MODEL 7
REMARK VINA RESULT:      -5.4      3.439      6.557
REMARK  Name = 
REMARK  14 active torsions:
REMARK  status: ('A' for Active; 'I' for Inactive)
REMARK    1  A    between atoms: C_2  and  C_3
REMARK    2  A    between atoms: C_3  and  O_4
REMARK    3  A    between atoms: C_3  and  C_5
REMARK    4  A    between atoms: C_5  and  O_6
REMARK    5  A    between atoms: C_5  and  C_7
REMARK    6  A    between atoms: C_7  and  N_8
REMARK    7  A    between atoms: N_8  and  C_9
REMARK    8  A    between atoms: C_9  and  C_10
REMARK    9  A    between atoms: C_10  and  C_11
REMARK   10  A    between atoms: C_11  and  C_12
REMARK   11  A    between atoms: C_12  and  C_13
REMARK   12  A    between atoms: C_13  and  C_14
REMARK   13  A    between atoms: C_14  and  C_15
REMARK   14  A    between atoms: C_15  and  C_16
REMARK                            x       y       z     vdW  Elec       q    Type
REMARK                         _______ _______ _______ _____ _____    ______ ____
ROOT
ATOM      1  N   UNL     1       5.630   3.648  18.425  0.00  0.00    +0.000 NA
ATOM      2  H   UNL     1       6.295   3.184  17.805  0.00  0.00    +0.000 HD
ENDROOT
BRANCH   1   3
ATOM      3  C   UNL     1       4.272   3.178  18.139  0.00  0.00    +0.000 C 
BRANCH   3   4
ATOM      4  C   UNL     1       3.846   2.010  19.052  0.00  0.00    +0.000 C 
BRANCH   4   5
ATOM      5  O   UNL     1       3.953   0.742  18.373  0.00  0.00    +0.000 OA
ATOM      6  H   UNL     1       3.733   0.897  17.437  0.00  0.00    +0.000 HD
ENDBRANCH   4   5
BRANCH   4   7
ATOM      7  C   UNL     1       2.394   2.210  19.557  0.00  0.00    +0.000 C 
BRANCH   7   9
ATOM      8  C   UNL     1       0.900   4.072  20.370  0.00  0.00    +0.000 C 
ATOM      9  C   UNL     1       2.063   3.647  19.867  0.00  0.00    +0.000 C 
ENDBRANCH   7   9
BRANCH   7  10
ATOM     10  O   UNL     1       1.472   1.790  18.555  0.00  0.00    +0.000 OA
ATOM     11  H   UNL     1       1.815   0.941  18.220  0.00  0.00    +0.000 HD
ENDBRANCH   7  10
ENDBRANCH   4   7
ENDBRANCH   3   4
ENDBRANCH   1   3
BRANCH   1  12
ATOM     12  C   UNL     1       5.751   5.103  18.311  0.00  0.00    +0.000 C 
BRANCH  12  13
ATOM     13  C   UNL     1       4.735   5.729  17.346  0.00  0.00    +0.000 C 
BRANCH  13  14
ATOM     14  C   UNL     1       5.260   5.775  15.910  0.00  0.00    +0.000 C 
BRANCH  14  15
ATOM     15  C   UNL     1       6.736   5.399  15.836  0.00  0.00    +0.000 C 
BRANCH  15  16
ATOM     16  C   UNL     1       7.073   4.849  14.451  0.00  0.00    +0.000 C 
BRANCH  16  17
ATOM     17  C   UNL     1       5.991   3.892  13.961  0.00  0.00    +0.000 C 
BRANCH  17  18
ATOM     18  C   UNL     1       6.191   3.544  12.488  0.00  0.00    +0.000 C 
ATOM     19  C   UNL     1       4.864   3.233  11.816  0.00  0.00    +0.000 C 
ENDBRANCH  17  18
ENDBRANCH  16  17
ENDBRANCH  15  16
ENDBRANCH  14  15
ENDBRANCH  13  14
ENDBRANCH  12  13
ENDBRANCH   1  12
TORSDOF 13
ENDMDL
MODEL 8
REMARK VINA RESULT:      -5.3      2.116      2.784
REMARK  Name = 
REMARK  14 active torsions:
REMARK  status: ('A' for Active; 'I' for Inactive)
REMARK    1  A    between atoms: C_2  and  C_3
REMARK    2  A    between atoms: C_3  and  O_4
REMARK    3  A    between atoms: C_3  and  C_5
REMARK    4  A    between atoms: C_5  and  O_6
REMARK    5  A    between atoms: C_5  and  C_7
REMARK    6  A    between atoms: C_7  and  N_8
REMARK    7  A    between atoms: N_8  and  C_9
REMARK    8  A    between atoms: C_9  and  C_10
REMARK    9  A    between atoms: C_10  and  C_11
REMARK   10  A    between atoms: C_11  and  C_12
REMARK   11  A    between atoms: C_12  and  C_13
REMARK   12  A    between atoms: C_13  and  C_14
REMARK   13  A    between atoms: C_14  and  C_15
REMARK   14  A    between atoms: C_15  and  C_16
REMARK                            x       y       z     vdW  Elec       q    Type
REMARK                         _______ _______ _______ _____ _____    ______ ____
ROOT
ATOM      1  N   UNL     1       5.551   5.330  18.862  0.00  0.00    +0.000 NA
ATOM      2  H   UNL     1       6.108   6.132  18.565  0.00  0.00    +0.000 HD
ENDROOT
BRANCH   1   3
ATOM      3  C   UNL     1       5.619   4.274  17.848  0.00  0.00    +0.000 C 
BRANCH   3   4
ATOM      4  C   UNL     1       6.921   4.328  17.024  0.00  0.00    +0.000 C 
BRANCH   4   5
ATOM      5  O   UNL     1       8.027   4.810  17.815  0.00  0.00    +0.000 OA
ATOM      6  H   UNL     1       7.652   5.312  18.560  0.00  0.00    +0.000 HD
ENDBRANCH   4   5
BRANCH   4   7
ATOM      7  C   UNL     1       6.743   5.228  15.775  0.00  0.00    +0.000 C 
BRANCH   7   9
ATOM      8  C   UNL     1       5.868   3.985  13.762  0.00  0.00    +0.000 C 
ATOM      9  C   UNL     1       5.662   4.746  14.842  0.00  0.00    +0.000 C 
ENDBRANCH   7   9
BRANCH   7  10
ATOM     10  O   UNL     1       6.372   6.544  16.177  0.00  0.00    +0.000 OA
ATOM     11  H   UNL     1       6.589   6.602  17.125  0.00  0.00    +0.000 HD
ENDBRANCH   7  10
ENDBRANCH   4   7
ENDBRANCH   3   4
ENDBRANCH   1   3
BRANCH   1  12
ATOM     12  C   UNL     1       4.174   5.739  19.148  0.00  0.00    +0.000 C 
BRANCH  12  13
ATOM     13  C   UNL     1       3.292   5.839  17.896  0.00  0.00    +0.000 C 
BRANCH  13  14
ATOM     14  C   UNL     1       1.947   5.134  18.084  0.00  0.00    +0.000 C 
BRANCH  14  15
ATOM     15  C   UNL     1       1.980   3.705  17.553  0.00  0.00    +0.000 C 
BRANCH  15  16
ATOM     16  C   UNL     1       1.569   2.723  18.650  0.00  0.00    +0.000 C 
BRANCH  16  17
ATOM     17  C   UNL     1       2.781   2.248  19.444  0.00  0.00    +0.000 C 
BRANCH  17  18
ATOM     18  C   UNL     1       2.763   2.811  20.864  0.00  0.00    +0.000 C 
ATOM     19  C   UNL     1       1.358   2.790  21.442  0.00  0.00    +0.000 C 
ENDBRANCH  17  18
ENDBRANCH  16  17
ENDBRANCH  15  16
ENDBRANCH  14  15
ENDBRANCH  13  14
ENDBRANCH  12  13
ENDBRANCH   1  12
TORSDOF 13
ENDMDL
MODEL 9
REMARK VINA RESULT:      -5.3      2.139      3.489
REMARK  Name = 
REMARK  14 active torsions:
REMARK  status: ('A' for Active; 'I' for Inactive)
REMARK    1  A    between atoms: C_2  and  C_3
REMARK    2  A    between atoms: C_3  and  O_4
REMARK    3  A    between atoms: C_3  and  C_5
REMARK    4  A    between atoms: C_5  and  O_6
REMARK    5  A    between atoms: C_5  and  C_7
REMARK    6  A    between atoms: C_7  and  N_8
REMARK    7  A    between atoms: N_8  and  C_9
REMARK    8  A    between atoms: C_9  and  C_10
REMARK    9  A    between atoms: C_10  and  C_11
REMARK   10  A    between atoms: C_11  and  C_12
REMARK   11  A    between atoms: C_12  and  C_13
REMARK   12  A    between atoms: C_13  and  C_14
REMARK   13  A    between atoms: C_14  and  C_15
REMARK   14  A    between atoms: C_15  and  C_16
REMARK                            x       y       z     vdW  Elec       q    Type
REMARK                         _______ _______ _______ _____ _____    ______ ____
ROOT
ATOM      1  N   UNL     1       6.372   5.730  18.681  0.00  0.00    +0.000 NA
ATOM      2  H   UNL     1       6.101   6.441  18.000  0.00  0.00    +0.000 HD
ENDROOT
BRANCH   1   3
ATOM      3  C   UNL     1       7.168   4.689  18.022  0.00  0.00    +0.000 C 
BRANCH   3   4
ATOM      4  C   UNL     1       7.351   4.950  16.514  0.00  0.00    +0.000 C 
BRANCH   4   5
ATOM      5  O   UNL     1       7.494   6.358  16.234  0.00  0.00    +0.000 OA
ATOM      6  H   UNL     1       8.013   6.438  15.415  0.00  0.00    +0.000 HD
ENDBRANCH   4   5
BRANCH   4   7
ATOM      7  C   UNL     1       6.155   4.379  15.709  0.00  0.00    +0.000 C 
BRANCH   7   9
ATOM      8  C   UNL     1       5.604   3.805  13.316  0.00  0.00    +0.000 C 
ATOM      9  C   UNL     1       6.497   4.062  14.277  0.00  0.00    +0.000 C 
ENDBRANCH   7   9
BRANCH   7  10
ATOM     10  O   UNL     1       5.715   3.158  16.299  0.00  0.00    +0.000 OA
ATOM     11  H   UNL     1       5.715   2.501  15.580  0.00  0.00    +0.000 HD
ENDBRANCH   7  10
ENDBRANCH   4   7
ENDBRANCH   3   4
ENDBRANCH   1   3
BRANCH   1  12
ATOM     12  C   UNL     1       5.191   5.186  19.353  0.00  0.00    +0.000 C 
BRANCH  12  13
ATOM     13  C   UNL     1       3.877   5.480  18.616  0.00  0.00    +0.000 C 
BRANCH  13  14
ATOM     14  C   UNL     1       2.785   5.976  19.567  0.00  0.00    +0.000 C 
BRANCH  14  15
ATOM     15  C   UNL     1       2.482   4.957  20.660  0.00  0.00    +0.000 C 
BRANCH  15  16
ATOM     16  C   UNL     1       1.111   4.322  20.426  0.00  0.00    +0.000 C 
BRANCH  16  17
ATOM     17  C   UNL     1       1.234   2.820  20.193  0.00  0.00    +0.000 C 
BRANCH  17  18
ATOM     18  C   UNL     1       0.959   2.465  18.733  0.00  0.00    +0.000 C 
ATOM     19  C   UNL     1       2.256   2.250  17.971  0.00  0.00    +0.000 C 
ENDBRANCH  17  18
ENDBRANCH  16  17
ENDBRANCH  15  16
ENDBRANCH  14  15
ENDBRANCH  13  14
ENDBRANCH  12  13
ENDBRANCH   1  12
TORSDOF 13
ENDMDL
