MODEL 1
REMARK VINA RESULT:      -8.5      0.000      0.000
REMARK  Name = 
REMARK  6 active torsions:
REMARK  status: ('A' for Active; 'I' for Inactive)
REMARK    1  A    between atoms: C_1  and  C_2
REMARK    2  A    between atoms: C_2  and  C_3
REMARK    3  A    between atoms: N_10  and  C_11
REMARK    4  A    between atoms: C_16  and  N_17
REMARK    5  A    between atoms: C_24  and  C_25
REMARK    6  A    between atoms: C_24  and  C_26
REMARK                            x       y       z     vdW  Elec       q    Type
REMARK                         _______ _______ _______ _____ _____    ______ ____
ROOT
ATOM      1  C   UNL     1       2.900   6.679  18.805  0.00  0.00    +0.000 A 
ATOM      2  C   UNL     1       3.315   7.237  17.569  0.00  0.00    +0.000 A 
ATOM      3  C   UNL     1       3.096   8.573  17.259  0.00  0.00    +0.000 A 
ATOM      4  C   UNL     1       2.317   9.365  18.085  0.00  0.00    +0.000 A 
ATOM      5  C   UNL     1       1.692   8.820  19.221  0.00  0.00    +0.000 A 
ATOM      6  C   UNL     1       0.673   9.503  19.984  0.00  0.00    +0.000 A 
ATOM      7  C   UNL     1       0.175   8.825  21.114  0.00  0.00    +0.000 A 
ATOM      8  C   UNL     1       0.784   7.708  21.619  0.00  0.00    +0.000 A 
ATOM      9  C   UNL     1       1.792   7.118  20.914  0.00  0.00    +0.000 A 
ATOM     10  C   UNL     1       2.121   7.523  19.639  0.00  0.00    +0.000 A 
ENDROOT
BRANCH   1  20
ATOM     11  C   UNL     1       1.581   4.031  17.704  0.00  0.00    +0.000 C 
ATOM     12  C   UNL     1       2.255   4.102  19.083  0.00  0.00    +0.000 C 
ATOM     13  C   UNL     1       1.083   4.018  20.106  0.00  0.00    +0.000 C 
ATOM     14  N   UNL     1       2.928   2.838  19.313  0.00  0.00    +0.000 NA
ATOM     15  C   UNL     1       4.182   2.685  19.506  0.00  0.00    +0.000 C 
ATOM     16  N   UNL     1       4.695   1.414  19.835  0.00  0.00    +0.000 N 
ATOM     17  N   UNL     1       5.056   3.776  19.422  0.00  0.00    +0.000 NA
ATOM     18  C   UNL     1       4.663   4.977  19.234  0.00  0.00    +0.000 C 
ATOM     19  N   UNL     1       5.692   5.970  19.163  0.00  0.00    +0.000 N 
ATOM     20  N   UNL     1       3.242   5.284  19.126  0.00  0.00    +0.000 N 
ATOM     21  H   UNL     1       4.061   0.615  19.978  0.00  0.00    +0.000 HD
ATOM     22  H   UNL     1       5.704   1.299  20.009  0.00  0.00    +0.000 HD
ATOM     23  H   UNL     1       6.677   5.672  19.108  0.00  0.00    +0.000 HD
ATOM     24  H   UNL     1       5.537   6.984  19.158  0.00  0.00    +0.000 HD
ENDBRANCH   1  20
BRANCH   6  25
ATOM     25  N   UNL     1       0.123  10.813  19.655  0.00  0.00    +0.000 N 
ATOM     26  C   UNL     1      -0.599  11.048  18.408  0.00  0.00    +0.000 C 
ATOM     27  N   UNL     1      -1.020  10.004  17.532  0.00  0.00    +0.000 N 
ATOM     28  N   UNL     1      -0.924  12.244  18.062  0.00  0.00    +0.000 NA
ATOM     29  C   UNL     1      -0.645  13.364  18.865  0.00  0.00    +0.000 C 
ATOM     30  N   UNL     1      -1.076  14.645  18.448  0.00  0.00    +0.000 N 
ATOM     31  N   UNL     1      -0.026  13.246  19.973  0.00  0.00    +0.000 NA
ATOM     32  C   UNL     1       0.439  11.992  20.538  0.00  0.00    +0.000 C 
ATOM     33  C   UNL     1       1.968  12.124  20.682  0.00  0.00    +0.000 C 
ATOM     34  C   UNL     1      -0.169  11.926  21.967  0.00  0.00    +0.000 C 
ATOM     35  H   UNL     1      -0.969   9.008  17.785  0.00  0.00    +0.000 HD
ATOM     36  H   UNL     1      -1.342  10.239  16.581  0.00  0.00    +0.000 HD
ATOM     37  H   UNL     1      -1.555  14.762  17.542  0.00  0.00    +0.000 HD
ATOM     38  H   UNL     1      -0.939  15.464  19.057  0.00  0.00    +0.000 HD
ENDBRANCH   6  25
TORSDOF 2
ENDMDL
MODEL 2
REMARK VINA RESULT:      -7.9      2.148      3.837
REMARK  Name = 
REMARK  6 active torsions:
REMARK  status: ('A' for Active; 'I' for Inactive)
REMARK    1  A    between atoms: C_1  and  C_2
REMARK    2  A    between atoms: C_2  and  C_3
REMARK    3  A    between atoms: N_10  and  C_11
REMARK    4  A    between atoms: C_16  and  N_17
REMARK    5  A    between atoms: C_24  and  C_25
REMARK    6  A    between atoms: C_24  and  C_26
REMARK                            x       y       z     vdW  Elec       q    Type
REMARK                         _______ _______ _______ _____ _____    ______ ____
ROOT
ATOM      1  C   UNL     1       3.025   6.014  18.896  0.00  0.00    +0.000 A 
ATOM      2  C   UNL     1       2.654   5.319  20.076  0.00  0.00    +0.000 A 
ATOM      3  C   UNL     1       1.693   5.816  20.946  0.00  0.00    +0.000 A 
ATOM      4  C   UNL     1       1.180   7.091  20.770  0.00  0.00    +0.000 A 
ATOM      5  C   UNL     1       1.662   7.923  19.744  0.00  0.00    +0.000 A 
ATOM      6  C   UNL     1       1.370   9.334  19.648  0.00  0.00    +0.000 A 
ATOM      7  C   UNL     1       1.907  10.012  18.537  0.00  0.00    +0.000 A 
ATOM      8  C   UNL     1       2.454   9.347  17.474  0.00  0.00    +0.000 A 
ATOM      9  C   UNL     1       2.657   8.001  17.559  0.00  0.00    +0.000 A 
ATOM     10  C   UNL     1       2.467   7.310  18.735  0.00  0.00    +0.000 A 
ENDROOT
BRANCH   1  20
ATOM     11  C   UNL     1       6.110   5.478  19.297  0.00  0.00    +0.000 C 
ATOM     12  C   UNL     1       5.487   5.700  17.910  0.00  0.00    +0.000 C 
ATOM     13  C   UNL     1       5.997   7.102  17.462  0.00  0.00    +0.000 C 
ATOM     14  N   UNL     1       6.173   4.832  16.972  0.00  0.00    +0.000 NA
ATOM     15  C   UNL     1       5.630   3.909  16.276  0.00  0.00    +0.000 C 
ATOM     16  N   UNL     1       6.389   3.212  15.313  0.00  0.00    +0.000 N 
ATOM     17  N   UNL     1       4.274   3.596  16.437  0.00  0.00    +0.000 NA
ATOM     18  C   UNL     1       3.491   4.247  17.208  0.00  0.00    +0.000 C 
ATOM     19  N   UNL     1       2.137   3.785  17.262  0.00  0.00    +0.000 N 
ATOM     20  N   UNL     1       3.977   5.400  17.957  0.00  0.00    +0.000 N 
ATOM     21  H   UNL     1       7.365   3.478  15.124  0.00  0.00    +0.000 HD
ATOM     22  H   UNL     1       5.941   2.482  14.739  0.00  0.00    +0.000 HD
ATOM     23  H   UNL     1       1.892   2.888  16.819  0.00  0.00    +0.000 HD
ATOM     24  H   UNL     1       1.361   4.278  17.717  0.00  0.00    +0.000 HD
ENDBRANCH   1  20
BRANCH   6  25
ATOM     25  N   UNL     1       0.588  10.091  20.620  0.00  0.00    +0.000 N 
ATOM     26  C   UNL     1       0.783   9.920  22.057  0.00  0.00    +0.000 C 
ATOM     27  N   UNL     1       1.873   9.196  22.625  0.00  0.00    +0.000 N 
ATOM     28  N   UNL     1      -0.029  10.467  22.892  0.00  0.00    +0.000 NA
ATOM     29  C   UNL     1      -1.104  11.275  22.479  0.00  0.00    +0.000 C 
ATOM     30  N   UNL     1      -1.928  11.887  23.452  0.00  0.00    +0.000 N 
ATOM     31  N   UNL     1      -1.339  11.483  21.243  0.00  0.00    +0.000 NA
ATOM     32  C   UNL     1      -0.554  10.949  20.145  0.00  0.00    +0.000 C 
ATOM     33  C   UNL     1      -1.518  10.092  19.302  0.00  0.00    +0.000 C 
ATOM     34  C   UNL     1      -0.141  12.180  19.290  0.00  0.00    +0.000 C 
ATOM     35  H   UNL     1       2.672   8.864  22.069  0.00  0.00    +0.000 HD
ATOM     36  H   UNL     1       1.848   8.940  23.624  0.00  0.00    +0.000 HD
ATOM     37  H   UNL     1      -1.768  11.710  24.455  0.00  0.00    +0.000 HD
ATOM     38  H   UNL     1      -2.676  12.536  23.166  0.00  0.00    +0.000 HD
ENDBRANCH   6  25
TORSDOF 2
ENDMDL
MODEL 3
REMARK VINA RESULT:      -7.6      0.740      8.201
REMARK  Name = 
REMARK  6 active torsions:
REMARK  status: ('A' for Active; 'I' for Inactive)
REMARK    1  A    between atoms: C_1  and  C_2
REMARK    2  A    between atoms: C_2  and  C_3
REMARK    3  A    between atoms: N_10  and  C_11
REMARK    4  A    between atoms: C_16  and  N_17
REMARK    5  A    between atoms: C_24  and  C_25
REMARK    6  A    between atoms: C_24  and  C_26
REMARK                            x       y       z     vdW  Elec       q    Type
REMARK                         _______ _______ _______ _____ _____    ______ ____
ROOT
ATOM      1  C   UNL     1       0.853   9.483  19.882  0.00  0.00    +0.000 A 
ATOM      2  C   UNL     1       0.379   8.972  21.118  0.00  0.00    +0.000 A 
ATOM      3  C   UNL     1       0.900   7.812  21.678  0.00  0.00    +0.000 A 
ATOM      4  C   UNL     1       1.790   7.028  20.964  0.00  0.00    +0.000 A 
ATOM      5  C   UNL     1       2.140   7.360  19.643  0.00  0.00    +0.000 A 
ATOM      6  C   UNL     1       2.852   6.474  18.752  0.00  0.00    +0.000 A 
ATOM      7  C   UNL     1       3.151   6.979  17.472  0.00  0.00    +0.000 A 
ATOM      8  C   UNL     1       3.014   8.305  17.162  0.00  0.00    +0.000 A 
ATOM      9  C   UNL     1       2.400   9.139  18.050  0.00  0.00    +0.000 A 
ATOM     10  C   UNL     1       1.781   8.665  19.184  0.00  0.00    +0.000 A 
ENDROOT
BRANCH   1  20
ATOM     11  C   UNL     1      -2.148  10.364  19.462  0.00  0.00    +0.000 C 
ATOM     12  C   UNL     1      -0.996  10.948  18.631  0.00  0.00    +0.000 C 
ATOM     13  C   UNL     1      -1.187  10.348  17.206  0.00  0.00    +0.000 C 
ATOM     14  N   UNL     1      -1.286  12.349  18.393  0.00  0.00    +0.000 NA
ATOM     15  C   UNL     1      -0.562  13.334  18.765  0.00  0.00    +0.000 C 
ATOM     16  N   UNL     1      -0.897  14.645  18.369  0.00  0.00    +0.000 N 
ATOM     17  N   UNL     1       0.584  13.125  19.543  0.00  0.00    +0.000 NA
ATOM     18  C   UNL     1       1.017  11.965  19.856  0.00  0.00    +0.000 C 
ATOM     19  N   UNL     1       2.197  11.934  20.668  0.00  0.00    +0.000 N 
ATOM     20  N   UNL     1       0.338  10.766  19.379  0.00  0.00    +0.000 N 
ATOM     21  H   UNL     1      -1.689  14.813  17.733  0.00  0.00    +0.000 HD
ATOM     22  H   UNL     1      -0.299  15.435  18.653  0.00  0.00    +0.000 HD
ATOM     23  H   UNL     1       2.546  12.809  21.084  0.00  0.00    +0.000 HD
ATOM     24  H   UNL     1       2.744  11.094  20.884  0.00  0.00    +0.000 HD
ENDBRANCH   1  20
BRANCH   6  25
ATOM     25  N   UNL     1       3.254   5.111  19.079  0.00  0.00    +0.000 N 
ATOM     26  C   UNL     1       4.656   4.755  19.285  0.00  0.00    +0.000 C 
ATOM     27  N   UNL     1       5.703   5.716  19.408  0.00  0.00    +0.000 N 
ATOM     28  N   UNL     1       5.002   3.522  19.402  0.00  0.00    +0.000 NA
ATOM     29  C   UNL     1       4.068   2.471  19.380  0.00  0.00    +0.000 C 
ATOM     30  N   UNL     1       4.512   1.141  19.566  0.00  0.00    +0.000 N 
ATOM     31  N   UNL     1       2.824   2.694  19.213  0.00  0.00    +0.000 NA
ATOM     32  C   UNL     1       2.229   4.009  19.048  0.00  0.00    +0.000 C 
ATOM     33  C   UNL     1       1.534   3.997  17.672  0.00  0.00    +0.000 C 
ATOM     34  C   UNL     1       1.124   4.106  20.138  0.00  0.00    +0.000 C 
ATOM     35  H   UNL     1       5.526   6.726  19.503  0.00  0.00    +0.000 HD
ATOM     36  H   UNL     1       6.685   5.408  19.350  0.00  0.00    +0.000 HD
ATOM     37  H   UNL     1       5.517   0.939  19.675  0.00  0.00    +0.000 HD
ATOM     38  H   UNL     1       3.832   0.368  19.620  0.00  0.00    +0.000 HD
ENDBRANCH   6  25
TORSDOF 2
ENDMDL
MODEL 4
REMARK VINA RESULT:      -7.3      0.741      1.770
REMARK  Name = 
REMARK  6 active torsions:
REMARK  status: ('A' for Active; 'I' for Inactive)
REMARK    1  A    between atoms: C_1  and  C_2
REMARK    2  A    between atoms: C_2  and  C_3
REMARK    3  A    between atoms: N_10  and  C_11
REMARK    4  A    between atoms: C_16  and  N_17
REMARK    5  A    between atoms: C_24  and  C_25
REMARK    6  A    between atoms: C_24  and  C_26
REMARK                            x       y       z     vdW  Elec       q    Type
REMARK                         _______ _______ _______ _____ _____    ______ ____
ROOT
ATOM      1  C   UNL     1       2.928   6.621  18.755  0.00  0.00    +0.000 A 
ATOM      2  C   UNL     1       3.271   7.142  17.481  0.00  0.00    +0.000 A 
ATOM      3  C   UNL     1       3.057   8.475  17.153  0.00  0.00    +0.000 A 
ATOM      4  C   UNL     1       2.348   9.301  18.009  0.00  0.00    +0.000 A 
ATOM      5  C   UNL     1       1.788   8.795  19.195  0.00  0.00    +0.000 A 
ATOM      6  C   UNL     1       0.835   9.516  20.006  0.00  0.00    +0.000 A 
ATOM      7  C   UNL     1       0.399   8.874  21.182  0.00  0.00    +0.000 A 
ATOM      8  C   UNL     1       1.019   7.758  21.674  0.00  0.00    +0.000 A 
ATOM      9  C   UNL     1       1.968   7.132  20.920  0.00  0.00    +0.000 A 
ATOM     10  C   UNL     1       2.220   7.500  19.617  0.00  0.00    +0.000 A 
ENDROOT
BRANCH   1  20
ATOM     11  C   UNL     1       1.599   3.969  17.675  0.00  0.00    +0.000 C 
ATOM     12  C   UNL     1       2.272   4.049  19.053  0.00  0.00    +0.000 C 
ATOM     13  C   UNL     1       1.100   3.978  20.076  0.00  0.00    +0.000 C 
ATOM     14  N   UNL     1       2.941   2.784  19.294  0.00  0.00    +0.000 NA
ATOM     15  C   UNL     1       4.194   2.629  19.489  0.00  0.00    +0.000 C 
ATOM     16  N   UNL     1       4.702   1.358  19.828  0.00  0.00    +0.000 N 
ATOM     17  N   UNL     1       5.072   3.716  19.397  0.00  0.00    +0.000 NA
ATOM     18  C   UNL     1       4.684   4.916  19.199  0.00  0.00    +0.000 C 
ATOM     19  N   UNL     1       5.717   5.905  19.120  0.00  0.00    +0.000 N 
ATOM     20  N   UNL     1       3.264   5.228  19.087  0.00  0.00    +0.000 N 
ATOM     21  H   UNL     1       4.066   0.562  19.977  0.00  0.00    +0.000 HD
ATOM     22  H   UNL     1       5.711   1.240  20.004  0.00  0.00    +0.000 HD
ATOM     23  H   UNL     1       6.701   5.603  19.068  0.00  0.00    +0.000 HD
ATOM     24  H   UNL     1       5.566   6.919  19.107  0.00  0.00    +0.000 HD
ENDBRANCH   1  20
BRANCH   6  25
ATOM     25  N   UNL     1       0.289  10.829  19.681  0.00  0.00    +0.000 N 
ATOM     26  C   UNL     1       0.906  12.057  20.176  0.00  0.00    +0.000 C 
ATOM     27  N   UNL     1       2.184  12.098  20.808  0.00  0.00    +0.000 N 
ATOM     28  N   UNL     1       0.313  13.189  20.020  0.00  0.00    +0.000 NA
ATOM     29  C   UNL     1      -0.914  13.311  19.346  0.00  0.00    +0.000 C 
ATOM     30  N   UNL     1      -1.485  14.593  19.166  0.00  0.00    +0.000 N 
ATOM     31  N   UNL     1      -1.516  12.290  18.876  0.00  0.00    +0.000 NA
ATOM     32  C   UNL     1      -1.027  10.925  18.955  0.00  0.00    +0.000 C 
ATOM     33  C   UNL     1      -2.095  10.129  19.731  0.00  0.00    +0.000 C 
ATOM     34  C   UNL     1      -1.012  10.401  17.492  0.00  0.00    +0.000 C 
ATOM     35  H   UNL     1       2.821  11.291  20.833  0.00  0.00    +0.000 HD
ATOM     36  H   UNL     1       2.474  12.950  21.311  0.00  0.00    +0.000 HD
ATOM     37  H   UNL     1      -1.026  15.426  19.563  0.00  0.00    +0.000 HD
ATOM     38  H   UNL     1      -2.349  14.705  18.615  0.00  0.00    +0.000 HD
ENDBRANCH   6  25
TORSDOF 2
ENDMDL
MODEL 5
REMARK VINA RESULT:      -7.0      0.334      8.281
REMARK  Name = 
REMARK  6 active torsions:
REMARK  status: ('A' for Active; 'I' for Inactive)
REMARK    1  A    between atoms: C_1  and  C_2
REMARK    2  A    between atoms: C_2  and  C_3
REMARK    3  A    between atoms: N_10  and  C_11
REMARK    4  A    between atoms: C_16  and  N_17
REMARK    5  A    between atoms: C_24  and  C_25
REMARK    6  A    between atoms: C_24  and  C_26
REMARK                            x       y       z     vdW  Elec       q    Type
REMARK                         _______ _______ _______ _____ _____    ______ ____
ROOT
ATOM      1  C   UNL     1       0.735   9.516  20.145  0.00  0.00    +0.000 A 
ATOM      2  C   UNL     1       0.174   8.879  21.282  0.00  0.00    +0.000 A 
ATOM      3  C   UNL     1       0.645   7.656  21.742  0.00  0.00    +0.000 A 
ATOM      4  C   UNL     1       1.573   6.940  21.004  0.00  0.00    +0.000 A 
ATOM      5  C   UNL     1       2.014   7.411  19.754  0.00  0.00    +0.000 A 
ATOM      6  C   UNL     1       2.775   6.618  18.817  0.00  0.00    +0.000 A 
ATOM      7  C   UNL     1       3.164   7.257  17.624  0.00  0.00    +0.000 A 
ATOM      8  C   UNL     1       3.060   8.611  17.457  0.00  0.00    +0.000 A 
ATOM      9  C   UNL     1       2.396   9.352  18.390  0.00  0.00    +0.000 A 
ATOM     10  C   UNL     1       1.698   8.765  19.422  0.00  0.00    +0.000 A 
ENDROOT
BRANCH   1  20
ATOM     11  C   UNL     1       2.166  12.296  20.574  0.00  0.00    +0.000 C 
ATOM     12  C   UNL     1       0.639  12.164  20.481  0.00  0.00    +0.000 C 
ATOM     13  C   UNL     1       0.124  12.437  21.925  0.00  0.00    +0.000 C 
ATOM     14  N   UNL     1       0.135  13.326  19.772  0.00  0.00    +0.000 NA
ATOM     15  C   UNL     1      -0.516  13.304  18.673  0.00  0.00    +0.000 C 
ATOM     16  N   UNL     1      -1.051  14.498  18.147  0.00  0.00    +0.000 N 
ATOM     17  N   UNL     1      -0.731  12.099  17.992  0.00  0.00    +0.000 NA
ATOM     18  C   UNL     1      -0.373  10.962  18.451  0.00  0.00    +0.000 C 
ATOM     19  N   UNL     1      -0.660   9.832  17.619  0.00  0.00    +0.000 N 
ATOM     20  N   UNL     1       0.267  10.856  19.756  0.00  0.00    +0.000 N 
ATOM     21  H   UNL     1      -0.972  15.382  18.670  0.00  0.00    +0.000 HD
ATOM     22  H   UNL     1      -1.592  14.474  17.271  0.00  0.00    +0.000 HD
ATOM     23  H   UNL     1      -0.986   9.986  16.654  0.00  0.00    +0.000 HD
ATOM     24  H   UNL     1      -0.567   8.851  17.901  0.00  0.00    +0.000 HD
ENDBRANCH   1  20
BRANCH   6  25
ATOM     25  N   UNL     1       3.141   5.220  19.015  0.00  0.00    +0.000 N 
ATOM     26  C   UNL     1       4.533   4.810  19.179  0.00  0.00    +0.000 C 
ATOM     27  N   UNL     1       5.606   5.727  19.385  0.00  0.00    +0.000 N 
ATOM     28  N   UNL     1       4.846   3.562  19.181  0.00  0.00    +0.000 NA
ATOM     29  C   UNL     1       3.884   2.543  19.067  0.00  0.00    +0.000 C 
ATOM     30  N   UNL     1       4.292   1.190  19.127  0.00  0.00    +0.000 N 
ATOM     31  N   UNL     1       2.646   2.814  18.929  0.00  0.00    +0.000 NA
ATOM     32  C   UNL     1       2.086   4.153  18.889  0.00  0.00    +0.000 C 
ATOM     33  C   UNL     1       1.387   4.287  17.522  0.00  0.00    +0.000 C 
ATOM     34  C   UNL     1       0.988   4.179  19.989  0.00  0.00    +0.000 C 
ATOM     35  H   UNL     1       5.457   6.727  19.573  0.00  0.00    +0.000 HD
ATOM     36  H   UNL     1       6.579   5.399  19.293  0.00  0.00    +0.000 HD
ATOM     37  H   UNL     1       5.292   0.952  19.212  0.00  0.00    +0.000 HD
ATOM     38  H   UNL     1       3.592   0.434  19.114  0.00  0.00    +0.000 HD
ENDBRANCH   6  25
TORSDOF 2
ENDMDL
MODEL 6
REMARK VINA RESULT:      -6.9      5.885      8.183
REMARK  Name = 
REMARK  6 active torsions:
REMARK  status: ('A' for Active; 'I' for Inactive)
REMARK    1  A    between atoms: C_1  and  C_2
REMARK    2  A    between atoms: C_2  and  C_3
REMARK    3  A    between atoms: N_10  and  C_11
REMARK    4  A    between atoms: C_16  and  N_17
REMARK    5  A    between atoms: C_24  and  C_25
REMARK    6  A    between atoms: C_24  and  C_26
REMARK                            x       y       z     vdW  Elec       q    Type
REMARK                         _______ _______ _______ _____ _____    ______ ____
ROOT
ATOM      1  C   UNL     1       1.279  13.326  19.972  0.00  0.00    +0.000 A 
ATOM      2  C   UNL     1       1.362  11.944  20.281  0.00  0.00    +0.000 A 
ATOM      3  C   UNL     1       0.226  11.170  20.482  0.00  0.00    +0.000 A 
ATOM      4  C   UNL     1      -1.023  11.763  20.547  0.00  0.00    +0.000 A 
ATOM      5  C   UNL     1      -1.160  13.160  20.465  0.00  0.00    +0.000 A 
ATOM      6  C   UNL     1      -2.380  13.869  20.773  0.00  0.00    +0.000 A 
ATOM      7  C   UNL     1      -2.353  15.268  20.606  0.00  0.00    +0.000 A 
ATOM      8  C   UNL     1      -1.332  15.902  19.951  0.00  0.00    +0.000 A 
ATOM      9  C   UNL     1      -0.216  15.197  19.607  0.00  0.00    +0.000 A 
ATOM     10  C   UNL     1      -0.018  13.900  20.026  0.00  0.00    +0.000 A 
ENDROOT
BRANCH   1  20
ATOM     11  C   UNL     1       3.688  14.004  21.896  0.00  0.00    +0.000 C 
ATOM     12  C   UNL     1       3.316  14.893  20.700  0.00  0.00    +0.000 C 
ATOM     13  C   UNL     1       2.714  16.183  21.332  0.00  0.00    +0.000 C 
ATOM     14  N   UNL     1       4.547  15.402  20.126  0.00  0.00    +0.000 NA
ATOM     15  C   UNL     1       4.951  15.200  18.931  0.00  0.00    +0.000 C 
ATOM     16  N   UNL     1       6.112  15.848  18.460  0.00  0.00    +0.000 N 
ATOM     17  N   UNL     1       4.238  14.359  18.066  0.00  0.00    +0.000 NA
ATOM     18  C   UNL     1       3.124  13.818  18.377  0.00  0.00    +0.000 C 
ATOM     19  N   UNL     1       2.536  12.976  17.378  0.00  0.00    +0.000 N 
ATOM     20  N   UNL     1       2.507  14.080  19.671  0.00  0.00    +0.000 N 
ATOM     21  H   UNL     1       6.607  16.530  19.052  0.00  0.00    +0.000 HD
ATOM     22  H   UNL     1       6.424  15.699  17.489  0.00  0.00    +0.000 HD
ATOM     23  H   UNL     1       3.086  12.723  16.545  0.00  0.00    +0.000 HD
ATOM     24  H   UNL     1       1.588  12.587  17.416  0.00  0.00    +0.000 HD
ENDBRANCH   1  20
BRANCH   6  25
ATOM     25  N   UNL     1      -3.607  13.245  21.256  0.00  0.00    +0.000 N 
ATOM     26  C   UNL     1      -4.675  12.851  20.342  0.00  0.00    +0.000 C 
ATOM     27  N   UNL     1      -4.531  12.829  18.923  0.00  0.00    +0.000 N 
ATOM     28  N   UNL     1      -5.812  12.462  20.802  0.00  0.00    +0.000 NA
ATOM     29  C   UNL     1      -6.072  12.358  22.180  0.00  0.00    +0.000 C 
ATOM     30  N   UNL     1      -7.328  11.875  22.617  0.00  0.00    +0.000 N 
ATOM     31  N   UNL     1      -5.191  12.674  23.046  0.00  0.00    +0.000 NA
ATOM     32  C   UNL     1      -3.853  13.147  22.738  0.00  0.00    +0.000 C 
ATOM     33  C   UNL     1      -3.737  14.549  23.368  0.00  0.00    +0.000 C 
ATOM     34  C   UNL     1      -2.889  12.199  23.505  0.00  0.00    +0.000 C 
ATOM     35  H   UNL     1      -3.625  12.952  18.452  0.00  0.00    +0.000 HD
ATOM     36  H   UNL     1      -5.369  12.739  18.329  0.00  0.00    +0.000 HD
ATOM     37  H   UNL     1      -8.061  11.639  21.931  0.00  0.00    +0.000 HD
ATOM     38  H   UNL     1      -7.508  11.728  23.621  0.00  0.00    +0.000 HD
ENDBRANCH   6  25
TORSDOF 2
ENDMDL
MODEL 7
REMARK VINA RESULT:      -6.9      8.644     11.754
REMARK  Name = 
REMARK  6 active torsions:
REMARK  status: ('A' for Active; 'I' for Inactive)
REMARK    1  A    between atoms: C_1  and  C_2
REMARK    2  A    between atoms: C_2  and  C_3
REMARK    3  A    between atoms: N_10  and  C_11
REMARK    4  A    between atoms: C_16  and  N_17
REMARK    5  A    between atoms: C_24  and  C_25
REMARK    6  A    between atoms: C_24  and  C_26
REMARK                            x       y       z     vdW  Elec       q    Type
REMARK                         _______ _______ _______ _____ _____    ______ ____
ROOT
ATOM      1  C   UNL     1       7.252  15.325  22.779  0.00  0.00    +0.000 A 
ATOM      2  C   UNL     1       7.407  16.538  22.061  0.00  0.00    +0.000 A 
ATOM      3  C   UNL     1       7.932  16.566  20.775  0.00  0.00    +0.000 A 
ATOM      4  C   UNL     1       8.474  15.421  20.215  0.00  0.00    +0.000 A 
ATOM      5  C   UNL     1       8.551  14.227  20.955  0.00  0.00    +0.000 A 
ATOM      6  C   UNL     1       9.318  13.074  20.545  0.00  0.00    +0.000 A 
ATOM      7  C   UNL     1       9.259  11.948  21.388  0.00  0.00    +0.000 A 
ATOM      8  C   UNL     1       8.340  11.842  22.397  0.00  0.00    +0.000 A 
ATOM      9  C   UNL     1       7.576  12.925  22.722  0.00  0.00    +0.000 A 
ATOM     10  C   UNL     1       7.799  14.165  22.169  0.00  0.00    +0.000 A 
ENDROOT
BRANCH   1  20
ATOM     11  C   UNL     1       8.082  16.936  25.363  0.00  0.00    +0.000 C 
ATOM     12  C   UNL     1       7.320  15.604  25.434  0.00  0.00    +0.000 C 
ATOM     13  C   UNL     1       8.355  14.581  25.989  0.00  0.00    +0.000 C 
ATOM     14  N   UNL     1       6.381  15.689  26.537  0.00  0.00    +0.000 NA
ATOM     15  C   UNL     1       5.111  15.584  26.444  0.00  0.00    +0.000 C 
ATOM     16  N   UNL     1       4.318  15.568  27.609  0.00  0.00    +0.000 N 
ATOM     17  N   UNL     1       4.494  15.456  25.193  0.00  0.00    +0.000 NA
ATOM     18  C   UNL     1       5.143  15.356  24.098  0.00  0.00    +0.000 C 
ATOM     19  N   UNL     1       4.353  15.244  22.908  0.00  0.00    +0.000 N 
ATOM     20  N   UNL     1       6.601  15.337  24.099  0.00  0.00    +0.000 N 
ATOM     21  H   UNL     1       4.756  15.582  28.541  0.00  0.00    +0.000 HD
ATOM     22  H   UNL     1       3.295  15.463  27.531  0.00  0.00    +0.000 HD
ATOM     23  H   UNL     1       3.336  15.402  22.961  0.00  0.00    +0.000 HD
ATOM     24  H   UNL     1       4.716  15.016  21.977  0.00  0.00    +0.000 HD
ENDBRANCH   1  20
BRANCH   6  25
ATOM     25  N   UNL     1      10.150  13.010  19.348  0.00  0.00    +0.000 N 
ATOM     26  C   UNL     1      11.381  13.786  19.230  0.00  0.00    +0.000 C 
ATOM     27  N   UNL     1      11.985  14.477  20.322  0.00  0.00    +0.000 N 
ATOM     28  N   UNL     1      12.005  13.846  18.106  0.00  0.00    +0.000 NA
ATOM     29  C   UNL     1      11.570  13.151  16.964  0.00  0.00    +0.000 C 
ATOM     30  N   UNL     1      12.333  13.220  15.774  0.00  0.00    +0.000 N 
ATOM     31  N   UNL     1      10.510  12.443  16.983  0.00  0.00    +0.000 NA
ATOM     32  C   UNL     1       9.656  12.255  18.142  0.00  0.00    +0.000 C 
ATOM     33  C   UNL     1       8.265  12.786  17.744  0.00  0.00    +0.000 C 
ATOM     34  C   UNL     1       9.541  10.716  18.331  0.00  0.00    +0.000 C 
ATOM     35  H   UNL     1      11.675  14.362  21.296  0.00  0.00    +0.000 HD
ATOM     36  H   UNL     1      12.731  15.165  20.137  0.00  0.00    +0.000 HD
ATOM     37  H   UNL     1      13.178  13.809  15.733  0.00  0.00    +0.000 HD
ATOM     38  H   UNL     1      12.064  12.663  14.951  0.00  0.00    +0.000 HD
ENDBRANCH   6  25
TORSDOF 2
ENDMDL
MODEL 8
REMARK VINA RESULT:      -6.8      2.575      9.333
REMARK  Name = 
REMARK  6 active torsions:
REMARK  status: ('A' for Active; 'I' for Inactive)
REMARK    1  A    between atoms: C_1  and  C_2
REMARK    2  A    between atoms: C_2  and  C_3
REMARK    3  A    between atoms: N_10  and  C_11
REMARK    4  A    between atoms: C_16  and  N_17
REMARK    5  A    between atoms: C_24  and  C_25
REMARK    6  A    between atoms: C_24  and  C_26
REMARK                            x       y       z     vdW  Elec       q    Type
REMARK                         _______ _______ _______ _____ _____    ______ ____
ROOT
ATOM      1  C   UNL     1      -0.351  14.230  20.378  0.00  0.00    +0.000 A 
ATOM      2  C   UNL     1       0.888  14.456  21.031  0.00  0.00    +0.000 A 
ATOM      3  C   UNL     1       1.914  13.519  20.997  0.00  0.00    +0.000 A 
ATOM      4  C   UNL     1       1.698  12.263  20.457  0.00  0.00    +0.000 A 
ATOM      5  C   UNL     1       0.426  11.893  19.985  0.00  0.00    +0.000 A 
ATOM      6  C   UNL     1       0.055  10.539  19.646  0.00  0.00    +0.000 A 
ATOM      7  C   UNL     1      -1.252  10.350  19.156  0.00  0.00    +0.000 A 
ATOM      8  C   UNL     1      -2.045  11.398  18.776  0.00  0.00    +0.000 A 
ATOM      9  C   UNL     1      -1.643  12.674  19.045  0.00  0.00    +0.000 A 
ATOM     10  C   UNL     1      -0.534  12.939  19.816  0.00  0.00    +0.000 A 
ENDROOT
BRANCH   1  20
ATOM     11  C   UNL     1      -1.862  15.541  22.820  0.00  0.00    +0.000 C 
ATOM     12  C   UNL     1      -2.479  15.467  21.415  0.00  0.00    +0.000 C 
ATOM     13  C   UNL     1      -3.622  14.416  21.534  0.00  0.00    +0.000 C 
ATOM     14  N   UNL     1      -3.233  16.687  21.196  0.00  0.00    +0.000 NA
ATOM     15  C   UNL     1      -3.016  17.542  20.273  0.00  0.00    +0.000 C 
ATOM     16  N   UNL     1      -3.896  18.630  20.098  0.00  0.00    +0.000 N 
ATOM     17  N   UNL     1      -1.923  17.400  19.408  0.00  0.00    +0.000 NA
ATOM     18  C   UNL     1      -1.139  16.391  19.430  0.00  0.00    +0.000 C 
ATOM     19  N   UNL     1      -0.065  16.411  18.483  0.00  0.00    +0.000 N 
ATOM     20  N   UNL     1      -1.369  15.293  20.361  0.00  0.00    +0.000 N 
ATOM     21  H   UNL     1      -4.747  18.712  20.671  0.00  0.00    +0.000 HD
ATOM     22  H   UNL     1      -3.728  19.307  19.339  0.00  0.00    +0.000 HD
ATOM     23  H   UNL     1       0.123  17.274  17.952  0.00  0.00    +0.000 HD
ATOM     24  H   UNL     1       0.558  15.623  18.278  0.00  0.00    +0.000 HD
ENDBRANCH   1  20
BRANCH   6  25
ATOM     25  N   UNL     1       0.922   9.376  19.795  0.00  0.00    +0.000 N 
ATOM     26  C   UNL     1       1.724   8.872  18.683  0.00  0.00    +0.000 C 
ATOM     27  N   UNL     1       1.904   9.580  17.457  0.00  0.00    +0.000 N 
ATOM     28  N   UNL     1       2.346   7.751  18.787  0.00  0.00    +0.000 NA
ATOM     29  C   UNL     1       2.324   6.983  19.964  0.00  0.00    +0.000 C 
ATOM     30  N   UNL     1       3.072   5.784  20.028  0.00  0.00    +0.000 N 
ATOM     31  N   UNL     1       1.656   7.354  20.985  0.00  0.00    +0.000 NA
ATOM     32  C   UNL     1       0.876   8.576  21.070  0.00  0.00    +0.000 C 
ATOM     33  C   UNL     1      -0.577   8.142  21.346  0.00  0.00    +0.000 C 
ATOM     34  C   UNL     1       1.399   9.318  22.332  0.00  0.00    +0.000 C 
ATOM     35  H   UNL     1       1.601  10.554  17.324  0.00  0.00    +0.000 HD
ATOM     36  H   UNL     1       2.308   9.091  16.644  0.00  0.00    +0.000 HD
ATOM     37  H   UNL     1       3.597   5.455  19.203  0.00  0.00    +0.000 HD
ATOM     38  H   UNL     1       3.121   5.246  20.905  0.00  0.00    +0.000 HD
ENDBRANCH   6  25
TORSDOF 2
ENDMDL
MODEL 9
REMARK VINA RESULT:      -6.5      6.856     10.284
REMARK  Name = 
REMARK  6 active torsions:
REMARK  status: ('A' for Active; 'I' for Inactive)
REMARK    1  A    between atoms: C_1  and  C_2
REMARK    2  A    between atoms: C_2  and  C_3
REMARK    3  A    between atoms: N_10  and  C_11
REMARK    4  A    between atoms: C_16  and  N_17
REMARK    5  A    between atoms: C_24  and  C_25
REMARK    6  A    between atoms: C_24  and  C_26
REMARK                            x       y       z     vdW  Elec       q    Type
REMARK                         _______ _______ _______ _____ _____    ______ ____
ROOT
ATOM      1  C   UNL     1       3.257  14.965  20.140  0.00  0.00    +0.000 A 
ATOM      2  C   UNL     1       2.967  15.327  18.800  0.00  0.00    +0.000 A 
ATOM      3  C   UNL     1       3.947  15.336  17.816  0.00  0.00    +0.000 A 
ATOM      4  C   UNL     1       5.277  15.147  18.151  0.00  0.00    +0.000 A 
ATOM      5  C   UNL     1       5.665  14.998  19.494  0.00  0.00    +0.000 A 
ATOM      6  C   UNL     1       7.036  15.049  19.947  0.00  0.00    +0.000 A 
ATOM      7  C   UNL     1       7.250  14.847  21.325  0.00  0.00    +0.000 A 
ATOM      8  C   UNL     1       6.267  14.376  22.152  0.00  0.00    +0.000 A 
ATOM      9  C   UNL     1       4.991  14.270  21.682  0.00  0.00    +0.000 A 
ATOM     10  C   UNL     1       4.627  14.758  20.447  0.00  0.00    +0.000 A 
ENDROOT
BRANCH   1  20
ATOM     11  C   UNL     1       1.257  17.227  21.062  0.00  0.00    +0.000 C 
ATOM     12  C   UNL     1       1.647  16.053  21.973  0.00  0.00    +0.000 C 
ATOM     13  C   UNL     1       2.548  16.684  23.076  0.00  0.00    +0.000 C 
ATOM     14  N   UNL     1       0.474  15.679  22.741  0.00  0.00    +0.000 NA
ATOM     15  C   UNL     1      -0.096  14.536  22.720  0.00  0.00    +0.000 C 
ATOM     16  N   UNL     1      -1.162  14.263  23.602  0.00  0.00    +0.000 N 
ATOM     17  N   UNL     1       0.342  13.533  21.845  0.00  0.00    +0.000 NA
ATOM     18  C   UNL     1       1.364  13.660  21.090  0.00  0.00    +0.000 C 
ATOM     19  N   UNL     1       1.665  12.540  20.249  0.00  0.00    +0.000 N 
ATOM     20  N   UNL     1       2.165  14.877  21.124  0.00  0.00    +0.000 N 
ATOM     21  H   UNL     1      -1.449  14.958  24.306  0.00  0.00    +0.000 HD
ATOM     22  H   UNL     1      -1.607  13.334  23.597  0.00  0.00    +0.000 HD
ATOM     23  H   UNL     1       0.984  11.771  20.171  0.00  0.00    +0.000 HD
ATOM     24  H   UNL     1       2.521  12.429  19.696  0.00  0.00    +0.000 HD
ENDBRANCH   1  20
BRANCH   6  25
ATOM     25  N   UNL     1       8.187  15.313  19.091  0.00  0.00    +0.000 N 
ATOM     26  C   UNL     1       8.460  16.648  18.566  0.00  0.00    +0.000 C 
ATOM     27  N   UNL     1       7.784  17.823  19.011  0.00  0.00    +0.000 N 
ATOM     28  N   UNL     1       9.376  16.823  17.680  0.00  0.00    +0.000 NA
ATOM     29  C   UNL     1      10.176  15.769  17.206  0.00  0.00    +0.000 C 
ATOM     30  N   UNL     1      11.200  16.040  16.268  0.00  0.00    +0.000 N 
ATOM     31  N   UNL     1      10.010  14.574  17.617  0.00  0.00    +0.000 NA
ATOM     32  C   UNL     1       9.025  14.162  18.602  0.00  0.00    +0.000 C 
ATOM     33  C   UNL     1       8.118  13.133  17.899  0.00  0.00    +0.000 C 
ATOM     34  C   UNL     1       9.825  13.415  19.706  0.00  0.00    +0.000 C 
ATOM     35  H   UNL     1       7.160  17.833  19.829  0.00  0.00    +0.000 HD
ATOM     36  H   UNL     1       7.874  18.696  18.470  0.00  0.00    +0.000 HD
ATOM     37  H   UNL     1      11.332  16.996  15.904  0.00  0.00    +0.000 HD
ATOM     38  H   UNL     1      11.839  15.290  15.963  0.00  0.00    +0.000 HD
ENDBRANCH   6  25
TORSDOF 2
ENDMDL
