MODEL 1
REMARK VINA RESULT:      -8.7      0.000      0.000
REMARK  Name = 
REMARK  8 active torsions:
REMARK  status: ('A' for Active; 'I' for Inactive)
REMARK    1  A    between atoms: C_1  and  C_2
REMARK    2  A    between atoms: C_2  and  N_3
REMARK    3  A    between atoms: N_6  and  C_7
REMARK    4  A    between atoms: C_11  and  C_12
REMARK    5  A    between atoms: N_13  and  C_14
REMARK    6  A    between atoms: C_14  and  C_15
REMARK    7  A    between atoms: C_25  and  N_26
REMARK    8  A    between atoms: C_27  and  C_29
REMARK                            x       y       z     vdW  Elec       q    Type
REMARK                         _______ _______ _______ _____ _____    ______ ____
ROOT
ATOM      1  C   UNL     1      -0.061  10.787  20.505  0.00  0.00    +0.000 A 
ATOM      2  C   UNL     1       0.214   9.474  20.926  0.00  0.00    +0.000 A 
ATOM      3  C   UNL     1       1.071   8.639  20.202  0.00  0.00    +0.000 A 
ATOM      4  N   UNL     1       1.294   7.343  20.665  0.00  0.00    +0.000 NA
ATOM      5  C   UNL     1       2.031   6.543  19.959  0.00  0.00    +0.000 A 
ATOM      6  C   UNL     1       2.167   5.143  20.504  0.00  0.00    +0.000 C 
ATOM      7  N   UNL     1       2.634   6.898  18.768  0.00  0.00    +0.000 N 
ATOM      8  C   UNL     1       2.527   8.203  18.286  0.00  0.00    +0.000 A 
ATOM      9  O   UNL     1       3.079   8.619  17.270  0.00  0.00    +0.000 OA
ATOM     10  C   UNL     1       1.654   9.113  19.034  0.00  0.00    +0.000 A 
ATOM     11  C   UNL     1       1.398  10.402  18.568  0.00  0.00    +0.000 A 
ATOM     12  C   UNL     1       0.561  11.219  19.307  0.00  0.00    +0.000 A 
ENDROOT
BRANCH   1  16
ATOM     13  N   UNL     1      -2.508  13.594  22.687  0.00  0.00    +0.000 NA
ATOM     14  C   UNL     1      -1.197  13.073  23.171  0.00  0.00    +0.000 C 
ATOM     15  C   UNL     1      -0.853  11.639  22.692  0.00  0.00    +0.000 C 
ATOM     16  N   UNL     1      -0.884  11.643  21.226  0.00  0.00    +0.000 N 
ATOM     17  C   UNL     1      -2.210  12.010  20.686  0.00  0.00    +0.000 C 
ATOM     18  C   UNL     1      -2.571  13.426  21.212  0.00  0.00    +0.000 C 
BRANCH  13  20
ATOM     19  C   UNL     1      -4.994  13.218  22.878  0.00  0.00    +0.000 C 
ATOM     20  C   UNL     1      -3.599  12.922  23.410  0.00  0.00    +0.000 C 
ENDBRANCH  13  20
ENDBRANCH   1  16
BRANCH  12  21
ATOM     21  N   UNL     1       0.426  12.575  18.956  0.00  0.00    +0.000 N 
ATOM     22  C   UNL     1       1.126  13.588  19.587  0.00  0.00    +0.000 C 
ATOM     23  O   UNL     1       1.904  13.442  20.524  0.00  0.00    +0.000 OA
ATOM     24  H   UNL     1       0.179  12.724  17.986  0.00  0.00    +0.000 HD
BRANCH  22  25
ATOM     25  C   UNL     1       0.990  14.925  18.954  0.00  0.00    +0.000 A 
ATOM     26  C   UNL     1      -0.270  15.517  18.835  0.00  0.00    +0.000 A 
ATOM     27  C   UNL     1      -0.400  16.775  18.250  0.00  0.00    +0.000 A 
ATOM     28  C   UNL     1       0.733  17.449  17.777  0.00  0.00    +0.000 A 
ATOM     29  C   UNL     1       1.989  16.863  17.895  0.00  0.00    +0.000 A 
ATOM     30  C   UNL     1       2.115  15.608  18.482  0.00  0.00    +0.000 A 
ATOM     31  F   UNL     1       3.345  15.082  18.586  0.00  0.00    +0.000 F 
ENDBRANCH  22  25
ENDBRANCH  12  21
BRANCH   7  32
ATOM     32  C   UNL     1       3.325   5.953  17.881  0.00  0.00    +0.000 C 
BRANCH  32  33
ATOM     33  C   UNL     1       4.832   5.955  18.036  0.00  0.00    +0.000 A 
ATOM     34  C   UNL     1       5.436   5.356  19.149  0.00  0.00    +0.000 A 
ATOM     35  C   UNL     1       6.809   5.466  19.363  0.00  0.00    +0.000 A 
ATOM     36  C   UNL     1       7.607   6.141  18.444  0.00  0.00    +0.000 A 
ATOM     37  C   UNL     1       7.036   6.671  17.290  0.00  0.00    +0.000 A 
ATOM     38  C   UNL     1       5.658   6.575  17.086  0.00  0.00    +0.000 A 
ENDBRANCH  32  33
ENDBRANCH   7  32
TORSDOF 6
ENDMDL
MODEL 2
REMARK VINA RESULT:      -8.3      0.782      1.113
REMARK  Name = 
REMARK  8 active torsions:
REMARK  status: ('A' for Active; 'I' for Inactive)
REMARK    1  A    between atoms: C_1  and  C_2
REMARK    2  A    between atoms: C_2  and  N_3
REMARK    3  A    between atoms: N_6  and  C_7
REMARK    4  A    between atoms: C_11  and  C_12
REMARK    5  A    between atoms: N_13  and  C_14
REMARK    6  A    between atoms: C_14  and  C_15
REMARK    7  A    between atoms: C_25  and  N_26
REMARK    8  A    between atoms: C_27  and  C_29
REMARK                            x       y       z     vdW  Elec       q    Type
REMARK                         _______ _______ _______ _____ _____    ______ ____
ROOT
ATOM      1  C   UNL     1      -0.059  10.828  20.546  0.00  0.00    +0.000 A 
ATOM      2  C   UNL     1       0.200   9.507  20.951  0.00  0.00    +0.000 A 
ATOM      3  C   UNL     1       1.053   8.674  20.219  0.00  0.00    +0.000 A 
ATOM      4  N   UNL     1       1.262   7.370  20.667  0.00  0.00    +0.000 NA
ATOM      5  C   UNL     1       1.994   6.573  19.954  0.00  0.00    +0.000 A 
ATOM      6  C   UNL     1       2.115   5.164  20.480  0.00  0.00    +0.000 C 
ATOM      7  N   UNL     1       2.607   6.937  18.770  0.00  0.00    +0.000 N 
ATOM      8  C   UNL     1       2.515   8.249  18.305  0.00  0.00    +0.000 A 
ATOM      9  O   UNL     1       3.076   8.674  17.298  0.00  0.00    +0.000 OA
ATOM     10  C   UNL     1       1.647   9.158  19.061  0.00  0.00    +0.000 A 
ATOM     11  C   UNL     1       1.406  10.455  18.612  0.00  0.00    +0.000 A 
ATOM     12  C   UNL     1       0.572  11.270  19.357  0.00  0.00    +0.000 A 
ENDROOT
BRANCH   1  16
ATOM     13  N   UNL     1      -2.516  13.632  22.723  0.00  0.00    +0.000 NA
ATOM     14  C   UNL     1      -1.112  13.286  23.090  0.00  0.00    +0.000 C 
ATOM     15  C   UNL     1      -0.681  11.845  22.718  0.00  0.00    +0.000 C 
ATOM     16  N   UNL     1      -0.878  11.683  21.274  0.00  0.00    +0.000 N 
ATOM     17  C   UNL     1      -2.287  11.868  20.869  0.00  0.00    +0.000 C 
ATOM     18  C   UNL     1      -2.728  13.296  21.291  0.00  0.00    +0.000 C 
BRANCH  13  20
ATOM     19  C   UNL     1      -4.915  13.093  23.279  0.00  0.00    +0.000 C 
ATOM     20  C   UNL     1      -3.443  12.950  23.639  0.00  0.00    +0.000 C 
ENDBRANCH  13  20
ENDBRANCH   1  16
BRANCH  12  21
ATOM     21  N   UNL     1       0.452  12.632  19.023  0.00  0.00    +0.000 N 
ATOM     22  C   UNL     1       1.236  13.618  19.596  0.00  0.00    +0.000 C 
ATOM     23  O   UNL     1       2.086  13.442  20.463  0.00  0.00    +0.000 OA
ATOM     24  H   UNL     1       0.128  12.796  18.078  0.00  0.00    +0.000 HD
BRANCH  22  25
ATOM     25  C   UNL     1       1.090  14.963  18.981  0.00  0.00    +0.000 A 
ATOM     26  C   UNL     1       2.202  15.606  18.434  0.00  0.00    +0.000 A 
ATOM     27  C   UNL     1       2.067  16.863  17.848  0.00  0.00    +0.000 A 
ATOM     28  C   UNL     1       0.814  17.486  17.809  0.00  0.00    +0.000 A 
ATOM     29  C   UNL     1      -0.297  16.849  18.351  0.00  0.00    +0.000 A 
ATOM     30  C   UNL     1      -0.158  15.592  18.933  0.00  0.00    +0.000 A 
ATOM     31  F   UNL     1      -1.255  15.007  19.436  0.00  0.00    +0.000 F 
ENDBRANCH  22  25
ENDBRANCH  12  21
BRANCH   7  32
ATOM     32  C   UNL     1       3.293   5.998  17.874  0.00  0.00    +0.000 C 
BRANCH  32  33
ATOM     33  C   UNL     1       4.800   5.990  18.030  0.00  0.00    +0.000 A 
ATOM     34  C   UNL     1       5.400   5.365  19.130  0.00  0.00    +0.000 A 
ATOM     35  C   UNL     1       6.774   5.465  19.348  0.00  0.00    +0.000 A 
ATOM     36  C   UNL     1       7.575   6.155  18.443  0.00  0.00    +0.000 A 
ATOM     37  C   UNL     1       7.007   6.712  17.300  0.00  0.00    +0.000 A 
ATOM     38  C   UNL     1       5.629   6.626  17.093  0.00  0.00    +0.000 A 
ENDBRANCH  32  33
ENDBRANCH   7  32
TORSDOF 6
ENDMDL
MODEL 3
REMARK VINA RESULT:      -8.3      1.062      1.589
REMARK  Name = 
REMARK  8 active torsions:
REMARK  status: ('A' for Active; 'I' for Inactive)
REMARK    1  A    between atoms: C_1  and  C_2
REMARK    2  A    between atoms: C_2  and  N_3
REMARK    3  A    between atoms: N_6  and  C_7
REMARK    4  A    between atoms: C_11  and  C_12
REMARK    5  A    between atoms: N_13  and  C_14
REMARK    6  A    between atoms: C_14  and  C_15
REMARK    7  A    between atoms: C_25  and  N_26
REMARK    8  A    between atoms: C_27  and  C_29
REMARK                            x       y       z     vdW  Elec       q    Type
REMARK                         _______ _______ _______ _____ _____    ______ ____
ROOT
ATOM      1  C   UNL     1      -0.124  11.386  20.578  0.00  0.00    +0.000 A 
ATOM      2  C   UNL     1       0.089  10.073  21.033  0.00  0.00    +0.000 A 
ATOM      3  C   UNL     1       0.875   9.169  20.312  0.00  0.00    +0.000 A 
ATOM      4  N   UNL     1       1.041   7.878  20.811  0.00  0.00    +0.000 NA
ATOM      5  C   UNL     1       1.709   7.016  20.110  0.00  0.00    +0.000 A 
ATOM      6  C   UNL     1       1.784   5.628  20.696  0.00  0.00    +0.000 C 
ATOM      7  N   UNL     1       2.294   7.298  18.890  0.00  0.00    +0.000 N 
ATOM      8  C   UNL     1       2.245   8.591  18.370  0.00  0.00    +0.000 A 
ATOM      9  O   UNL     1       2.787   8.944  17.325  0.00  0.00    +0.000 OA
ATOM     10  C   UNL     1       1.448   9.572  19.113  0.00  0.00    +0.000 A 
ATOM     11  C   UNL     1       1.250  10.859  18.613  0.00  0.00    +0.000 A 
ATOM     12  C   UNL     1       0.482  11.744  19.348  0.00  0.00    +0.000 A 
ENDROOT
BRANCH   1  16
ATOM     13  N   UNL     1      -2.413  14.388  22.671  0.00  0.00    +0.000 NA
ATOM     14  C   UNL     1      -0.930  14.258  22.752  0.00  0.00    +0.000 C 
ATOM     15  C   UNL     1      -0.395  12.812  22.585  0.00  0.00    +0.000 C 
ATOM     16  N   UNL     1      -0.876  12.310  21.294  0.00  0.00    +0.000 N 
ATOM     17  C   UNL     1      -2.351  12.275  21.210  0.00  0.00    +0.000 C 
ATOM     18  C   UNL     1      -2.881  13.718  21.430  0.00  0.00    +0.000 C 
BRANCH  13  20
ATOM     19  C   UNL     1      -2.926  14.777  25.108  0.00  0.00    +0.000 C 
ATOM     20  C   UNL     1      -3.019  13.855  23.901  0.00  0.00    +0.000 C 
ENDBRANCH  13  20
ENDBRANCH   1  16
BRANCH  12  21
ATOM     21  N   UNL     1       0.412  13.094  18.957  0.00  0.00    +0.000 N 
ATOM     22  C   UNL     1       1.275  14.063  19.441  0.00  0.00    +0.000 C 
ATOM     23  O   UNL     1       2.160  13.881  20.270  0.00  0.00    +0.000 OA
ATOM     24  H   UNL     1       0.047  13.232  18.023  0.00  0.00    +0.000 HD
BRANCH  22  25
ATOM     25  C   UNL     1       1.163  15.384  18.771  0.00  0.00    +0.000 A 
ATOM     26  C   UNL     1       2.272  15.937  18.127  0.00  0.00    +0.000 A 
ATOM     27  C   UNL     1       2.168  17.172  17.490  0.00  0.00    +0.000 A 
ATOM     28  C   UNL     1       0.950  17.864  17.496  0.00  0.00    +0.000 A 
ATOM     29  C   UNL     1      -0.157  17.316  18.136  0.00  0.00    +0.000 A 
ATOM     30  C   UNL     1      -0.049  16.081  18.768  0.00  0.00    +0.000 A 
ATOM     31  F   UNL     1      -1.143  15.582  19.365  0.00  0.00    +0.000 F 
ENDBRANCH  22  25
ENDBRANCH  12  21
BRANCH   7  32
ATOM     32  C   UNL     1       2.903   6.288  18.015  0.00  0.00    +0.000 C 
BRANCH  32  33
ATOM     33  C   UNL     1       4.409   6.188  18.149  0.00  0.00    +0.000 A 
ATOM     34  C   UNL     1       5.251   6.783  17.202  0.00  0.00    +0.000 A 
ATOM     35  C   UNL     1       6.630   6.585  17.248  0.00  0.00    +0.000 A 
ATOM     36  C   UNL     1       7.193   5.825  18.268  0.00  0.00    +0.000 A 
ATOM     37  C   UNL     1       6.379   5.295  19.266  0.00  0.00    +0.000 A 
ATOM     38  C   UNL     1       4.996   5.479  19.209  0.00  0.00    +0.000 A 
ENDBRANCH  32  33
ENDBRANCH   7  32
TORSDOF 6
ENDMDL
MODEL 4
REMARK VINA RESULT:      -8.2      1.015      1.106
REMARK  Name = 
REMARK  8 active torsions:
REMARK  status: ('A' for Active; 'I' for Inactive)
REMARK    1  A    between atoms: C_1  and  C_2
REMARK    2  A    between atoms: C_2  and  N_3
REMARK    3  A    between atoms: N_6  and  C_7
REMARK    4  A    between atoms: C_11  and  C_12
REMARK    5  A    between atoms: N_13  and  C_14
REMARK    6  A    between atoms: C_14  and  C_15
REMARK    7  A    between atoms: C_25  and  N_26
REMARK    8  A    between atoms: C_27  and  C_29
REMARK                            x       y       z     vdW  Elec       q    Type
REMARK                         _______ _______ _______ _____ _____    ______ ____
ROOT
ATOM      1  C   UNL     1       0.475  10.413  19.973  0.00  0.00    +0.000 A 
ATOM      2  C   UNL     1       0.573   9.073  20.385  0.00  0.00    +0.000 A 
ATOM      3  C   UNL     1       1.407   8.165  19.724  0.00  0.00    +0.000 A 
ATOM      4  N   UNL     1       1.452   6.846  20.174  0.00  0.00    +0.000 NA
ATOM      5  C   UNL     1       2.168   5.985  19.521  0.00  0.00    +0.000 A 
ATOM      6  C   UNL     1       2.109   4.570  20.040  0.00  0.00    +0.000 C 
ATOM      7  N   UNL     1       2.918   6.294  18.401  0.00  0.00    +0.000 N 
ATOM      8  C   UNL     1       2.990   7.610  17.945  0.00  0.00    +0.000 A 
ATOM      9  O   UNL     1       3.678   7.983  16.997  0.00  0.00    +0.000 OA
ATOM     10  C   UNL     1       2.146   8.594  18.630  0.00  0.00    +0.000 A 
ATOM     11  C   UNL     1       2.068   9.910  18.174  0.00  0.00    +0.000 A 
ATOM     12  C   UNL     1       1.250  10.797  18.851  0.00  0.00    +0.000 A 
ENDROOT
BRANCH   1  16
ATOM     13  N   UNL     1      -1.902  13.429  21.944  0.00  0.00    +0.000 NA
ATOM     14  C   UNL     1      -0.553  12.992  22.405  0.00  0.00    +0.000 C 
ATOM     15  C   UNL     1      -0.204  11.516  22.084  0.00  0.00    +0.000 C 
ATOM     16  N   UNL     1      -0.323  11.339  20.634  0.00  0.00    +0.000 N 
ATOM     17  C   UNL     1      -1.688  11.615  20.137  0.00  0.00    +0.000 C 
ATOM     18  C   UNL     1      -2.049  13.079  20.507  0.00  0.00    +0.000 C 
BRANCH  13  20
ATOM     19  C   UNL     1      -3.487  13.770  23.875  0.00  0.00    +0.000 C 
ATOM     20  C   UNL     1      -2.931  12.834  22.811  0.00  0.00    +0.000 C 
ENDBRANCH  13  20
ENDBRANCH   1  16
BRANCH  12  21
ATOM     21  N   UNL     1       1.288  12.165  18.522  0.00  0.00    +0.000 N 
ATOM     22  C   UNL     1       1.955  13.104  19.290  0.00  0.00    +0.000 C 
ATOM     23  O   UNL     1       2.551  12.876  20.338  0.00  0.00    +0.000 OA
ATOM     24  H   UNL     1       1.220  12.351  17.530  0.00  0.00    +0.000 HD
BRANCH  22  25
ATOM     25  C   UNL     1       2.037  14.457  18.684  0.00  0.00    +0.000 A 
ATOM     26  C   UNL     1       0.973  15.351  18.823  0.00  0.00    +0.000 A 
ATOM     27  C   UNL     1       1.050  16.625  18.264  0.00  0.00    +0.000 A 
ATOM     28  C   UNL     1       2.197  17.011  17.557  0.00  0.00    +0.000 A 
ATOM     29  C   UNL     1       3.259  16.125  17.417  0.00  0.00    +0.000 A 
ATOM     30  C   UNL     1       3.178  14.855  17.980  0.00  0.00    +0.000 A 
ATOM     31  F   UNL     1       4.228  14.033  17.831  0.00  0.00    +0.000 F 
ENDBRANCH  22  25
ENDBRANCH  12  21
BRANCH   7  32
ATOM     32  C   UNL     1       3.592   5.296  17.560  0.00  0.00    +0.000 C 
BRANCH  32  33
ATOM     33  C   UNL     1       5.071   5.149  17.850  0.00  0.00    +0.000 A 
ATOM     34  C   UNL     1       5.595   5.517  19.096  0.00  0.00    +0.000 A 
ATOM     35  C   UNL     1       6.970   5.505  19.325  0.00  0.00    +0.000 A 
ATOM     36  C   UNL     1       7.841   5.082  18.325  0.00  0.00    +0.000 A 
ATOM     37  C   UNL     1       7.332   4.634  17.109  0.00  0.00    +0.000 A 
ATOM     38  C   UNL     1       5.956   4.663  16.875  0.00  0.00    +0.000 A 
ENDBRANCH  32  33
ENDBRANCH   7  32
TORSDOF 6
ENDMDL
MODEL 5
REMARK VINA RESULT:      -8.0      0.751      1.389
REMARK  Name = 
REMARK  8 active torsions:
REMARK  status: ('A' for Active; 'I' for Inactive)
REMARK    1  A    between atoms: C_1  and  C_2
REMARK    2  A    between atoms: C_2  and  N_3
REMARK    3  A    between atoms: N_6  and  C_7
REMARK    4  A    between atoms: C_11  and  C_12
REMARK    5  A    between atoms: N_13  and  C_14
REMARK    6  A    between atoms: C_14  and  C_15
REMARK    7  A    between atoms: C_25  and  N_26
REMARK    8  A    between atoms: C_27  and  C_29
REMARK                            x       y       z     vdW  Elec       q    Type
REMARK                         _______ _______ _______ _____ _____    ______ ____
ROOT
ATOM      1  C   UNL     1      -0.221  11.064  20.593  0.00  0.00    +0.000 A 
ATOM      2  C   UNL     1       0.037   9.747  21.012  0.00  0.00    +0.000 A 
ATOM      3  C   UNL     1       0.886   8.904  20.287  0.00  0.00    +0.000 A 
ATOM      4  N   UNL     1       1.093   7.605  20.749  0.00  0.00    +0.000 NA
ATOM      5  C   UNL     1       1.821   6.798  20.043  0.00  0.00    +0.000 A 
ATOM      6  C   UNL     1       1.941   5.395  20.585  0.00  0.00    +0.000 C 
ATOM      7  N   UNL     1       2.431   7.147  18.853  0.00  0.00    +0.000 N 
ATOM      8  C   UNL     1       2.339   8.454  18.373  0.00  0.00    +0.000 A 
ATOM      9  O   UNL     1       2.897   8.866  17.359  0.00  0.00    +0.000 OA
ATOM     10  C   UNL     1       1.476   9.373  19.121  0.00  0.00    +0.000 A 
ATOM     11  C   UNL     1       1.235  10.665  18.657  0.00  0.00    +0.000 A 
ATOM     12  C   UNL     1       0.406  11.491  19.396  0.00  0.00    +0.000 A 
ENDROOT
BRANCH   1  16
ATOM     13  N   UNL     1      -2.808  13.600  22.940  0.00  0.00    +0.000 NA
ATOM     14  C   UNL     1      -3.279  12.719  21.833  0.00  0.00    +0.000 C 
ATOM     15  C   UNL     1      -2.244  12.491  20.701  0.00  0.00    +0.000 C 
ATOM     16  N   UNL     1      -1.036  11.929  21.314  0.00  0.00    +0.000 N 
ATOM     17  C   UNL     1      -0.437  12.830  22.321  0.00  0.00    +0.000 C 
ATOM     18  C   UNL     1      -1.497  13.095  23.424  0.00  0.00    +0.000 C 
BRANCH  13  20
ATOM     19  C   UNL     1      -2.691  16.035  23.584  0.00  0.00    +0.000 C 
ATOM     20  C   UNL     1      -2.775  14.995  22.475  0.00  0.00    +0.000 C 
ENDBRANCH  13  20
ENDBRANCH   1  16
BRANCH  12  21
ATOM     21  N   UNL     1       0.287  12.849  19.047  0.00  0.00    +0.000 N 
ATOM     22  C   UNL     1       1.198  13.810  19.448  0.00  0.00    +0.000 C 
ATOM     23  O   UNL     1       2.176  13.614  20.163  0.00  0.00    +0.000 OA
ATOM     24  H   UNL     1      -0.186  13.006  18.166  0.00  0.00    +0.000 HD
BRANCH  22  25
ATOM     25  C   UNL     1       1.005  15.146  18.827  0.00  0.00    +0.000 A 
ATOM     26  C   UNL     1      -0.275  15.696  18.737  0.00  0.00    +0.000 A 
ATOM     27  C   UNL     1      -0.459  16.953  18.163  0.00  0.00    +0.000 A 
ATOM     28  C   UNL     1       0.642  17.667  17.674  0.00  0.00    +0.000 A 
ATOM     29  C   UNL     1       1.919  17.124  17.762  0.00  0.00    +0.000 A 
ATOM     30  C   UNL     1       2.098  15.869  18.339  0.00  0.00    +0.000 A 
ATOM     31  F   UNL     1       3.346  15.384  18.415  0.00  0.00    +0.000 F 
ENDBRANCH  22  25
ENDBRANCH  12  21
BRANCH   7  32
ATOM     32  C   UNL     1       3.111   6.196  17.965  0.00  0.00    +0.000 C 
BRANCH  32  33
ATOM     33  C   UNL     1       4.618   6.174  18.128  0.00  0.00    +0.000 A 
ATOM     34  C   UNL     1       5.445   6.835  17.212  0.00  0.00    +0.000 A 
ATOM     35  C   UNL     1       6.831   6.712  17.282  0.00  0.00    +0.000 A 
ATOM     36  C   UNL     1       7.415   5.961  18.298  0.00  0.00    +0.000 A 
ATOM     37  C   UNL     1       6.611   5.365  19.266  0.00  0.00    +0.000 A 
ATOM     38  C   UNL     1       5.222   5.474  19.185  0.00  0.00    +0.000 A 
ENDBRANCH  32  33
ENDBRANCH   7  32
TORSDOF 6
ENDMDL
MODEL 6
REMARK VINA RESULT:      -7.9      1.010      1.709
REMARK  Name = 
REMARK  8 active torsions:
REMARK  status: ('A' for Active; 'I' for Inactive)
REMARK    1  A    between atoms: C_1  and  C_2
REMARK    2  A    between atoms: C_2  and  N_3
REMARK    3  A    between atoms: N_6  and  C_7
REMARK    4  A    between atoms: C_11  and  C_12
REMARK    5  A    between atoms: N_13  and  C_14
REMARK    6  A    between atoms: C_14  and  C_15
REMARK    7  A    between atoms: C_25  and  N_26
REMARK    8  A    between atoms: C_27  and  C_29
REMARK                            x       y       z     vdW  Elec       q    Type
REMARK                         _______ _______ _______ _____ _____    ______ ____
ROOT
ATOM      1  C   UNL     1      -0.167  11.050  20.589  0.00  0.00    +0.000 A 
ATOM      2  C   UNL     1       0.068   9.728  21.006  0.00  0.00    +0.000 A 
ATOM      3  C   UNL     1       0.910   8.874  20.285  0.00  0.00    +0.000 A 
ATOM      4  N   UNL     1       1.094   7.571  20.743  0.00  0.00    +0.000 NA
ATOM      5  C   UNL     1       1.817   6.755  20.040  0.00  0.00    +0.000 A 
ATOM      6  C   UNL     1       1.911   5.349  20.578  0.00  0.00    +0.000 C 
ATOM      7  N   UNL     1       2.442   7.101  18.857  0.00  0.00    +0.000 N 
ATOM      8  C   UNL     1       2.374   8.410  18.382  0.00  0.00    +0.000 A 
ATOM      9  O   UNL     1       2.947   8.818  17.374  0.00  0.00    +0.000 OA
ATOM     10  C   UNL     1       1.518   9.339  19.126  0.00  0.00    +0.000 A 
ATOM     11  C   UNL     1       1.301  10.637  18.665  0.00  0.00    +0.000 A 
ATOM     12  C   UNL     1       0.477  11.472  19.400  0.00  0.00    +0.000 A 
ENDROOT
BRANCH   1  16
ATOM     13  N   UNL     1      -2.726  13.617  22.933  0.00  0.00    +0.000 NA
ATOM     14  C   UNL     1      -3.216  12.682  21.880  0.00  0.00    +0.000 C 
ATOM     15  C   UNL     1      -2.219  12.432  20.720  0.00  0.00    +0.000 C 
ATOM     16  N   UNL     1      -0.975  11.923  21.307  0.00  0.00    +0.000 N 
ATOM     17  C   UNL     1      -0.361  12.878  22.253  0.00  0.00    +0.000 C 
ATOM     18  C   UNL     1      -1.385  13.163  23.385  0.00  0.00    +0.000 C 
BRANCH  13  20
ATOM     19  C   UNL     1      -4.126  15.514  22.041  0.00  0.00    +0.000 C 
ATOM     20  C   UNL     1      -2.745  14.993  22.412  0.00  0.00    +0.000 C 
ENDBRANCH  13  20
ENDBRANCH   1  16
BRANCH  12  21
ATOM     21  N   UNL     1       0.382  12.833  19.055  0.00  0.00    +0.000 N 
ATOM     22  C   UNL     1       1.307  13.778  19.462  0.00  0.00    +0.000 C 
ATOM     23  O   UNL     1       2.280  13.563  20.179  0.00  0.00    +0.000 OA
ATOM     24  H   UNL     1      -0.086  13.001  18.174  0.00  0.00    +0.000 HD
BRANCH  22  25
ATOM     25  C   UNL     1       1.138  15.118  18.846  0.00  0.00    +0.000 A 
ATOM     26  C   UNL     1       2.227  15.753  18.243  0.00  0.00    +0.000 A 
ATOM     27  C   UNL     1       2.070  17.006  17.655  0.00  0.00    +0.000 A 
ATOM     28  C   UNL     1       0.818  17.635  17.670  0.00  0.00    +0.000 A 
ATOM     29  C   UNL     1      -0.269  17.007  18.268  0.00  0.00    +0.000 A 
ATOM     30  C   UNL     1      -0.108  15.753  18.851  0.00  0.00    +0.000 A 
ATOM     31  F   UNL     1      -1.183  15.176  19.408  0.00  0.00    +0.000 F 
ENDBRANCH  22  25
ENDBRANCH  12  21
BRANCH   7  32
ATOM     32  C   UNL     1       3.116   6.143  17.971  0.00  0.00    +0.000 C 
BRANCH  32  33
ATOM     33  C   UNL     1       4.623   6.121  18.125  0.00  0.00    +0.000 A 
ATOM     34  C   UNL     1       5.447   6.723  17.166  0.00  0.00    +0.000 A 
ATOM     35  C   UNL     1       6.834   6.596  17.234  0.00  0.00    +0.000 A 
ATOM     36  C   UNL     1       7.421   5.901  18.287  0.00  0.00    +0.000 A 
ATOM     37  C   UNL     1       6.621   5.367  19.294  0.00  0.00    +0.000 A 
ATOM     38  C   UNL     1       5.231   5.480  19.216  0.00  0.00    +0.000 A 
ENDBRANCH  32  33
ENDBRANCH   7  32
TORSDOF 6
ENDMDL
MODEL 7
REMARK VINA RESULT:      -7.9      1.189      1.438
REMARK  Name = 
REMARK  8 active torsions:
REMARK  status: ('A' for Active; 'I' for Inactive)
REMARK    1  A    between atoms: C_1  and  C_2
REMARK    2  A    between atoms: C_2  and  N_3
REMARK    3  A    between atoms: N_6  and  C_7
REMARK    4  A    between atoms: C_11  and  C_12
REMARK    5  A    between atoms: N_13  and  C_14
REMARK    6  A    between atoms: C_14  and  C_15
REMARK    7  A    between atoms: C_25  and  N_26
REMARK    8  A    between atoms: C_27  and  C_29
REMARK                            x       y       z     vdW  Elec       q    Type
REMARK                         _______ _______ _______ _____ _____    ______ ____
ROOT
ATOM      1  C   UNL     1       0.399  10.228  20.263  0.00  0.00    +0.000 A 
ATOM      2  C   UNL     1       0.457   8.887  20.684  0.00  0.00    +0.000 A 
ATOM      3  C   UNL     1       1.289   7.959  20.050  0.00  0.00    +0.000 A 
ATOM      4  N   UNL     1       1.293   6.642  20.507  0.00  0.00    +0.000 NA
ATOM      5  C   UNL     1       2.009   5.762  19.878  0.00  0.00    +0.000 A 
ATOM      6  C   UNL     1       1.905   4.351  20.403  0.00  0.00    +0.000 C 
ATOM      7  N   UNL     1       2.794   6.049  18.778  0.00  0.00    +0.000 N 
ATOM      8  C   UNL     1       2.908   7.360  18.317  0.00  0.00    +0.000 A 
ATOM      9  O   UNL     1       3.628   7.714  17.387  0.00  0.00    +0.000 OA
ATOM     10  C   UNL     1       2.066   8.366  18.974  0.00  0.00    +0.000 A 
ATOM     11  C   UNL     1       2.029   9.680  18.511  0.00  0.00    +0.000 A 
ATOM     12  C   UNL     1       1.213  10.589  19.160  0.00  0.00    +0.000 A 
ENDROOT
BRANCH   1  16
ATOM     13  N   UNL     1      -1.952  13.303  22.172  0.00  0.00    +0.000 NA
ATOM     14  C   UNL     1      -0.696  12.733  22.741  0.00  0.00    +0.000 C 
ATOM     15  C   UNL     1      -0.424  11.256  22.361  0.00  0.00    +0.000 C 
ATOM     16  N   UNL     1      -0.397  11.174  20.897  0.00  0.00    +0.000 N 
ATOM     17  C   UNL     1      -1.675  11.587  20.281  0.00  0.00    +0.000 C 
ATOM     18  C   UNL     1      -1.967  13.051  20.708  0.00  0.00    +0.000 C 
BRANCH  13  20
ATOM     19  C   UNL     1      -3.576  13.557  24.084  0.00  0.00    +0.000 C 
ATOM     20  C   UNL     1      -3.110  12.742  22.885  0.00  0.00    +0.000 C 
ENDBRANCH  13  20
ENDBRANCH   1  16
BRANCH  12  21
ATOM     21  N   UNL     1       1.289  11.954  18.826  0.00  0.00    +0.000 N 
ATOM     22  C   UNL     1       1.908  12.892  19.634  0.00  0.00    +0.000 C 
ATOM     23  O   UNL     1       2.425  12.666  20.724  0.00  0.00    +0.000 OA
ATOM     24  H   UNL     1       1.294  12.133  17.830  0.00  0.00    +0.000 HD
BRANCH  22  25
ATOM     25  C   UNL     1       2.048  14.239  19.026  0.00  0.00    +0.000 A 
ATOM     26  C   UNL     1       2.992  14.458  18.020  0.00  0.00    +0.000 A 
ATOM     27  C   UNL     1       3.120  15.718  17.441  0.00  0.00    +0.000 A 
ATOM     28  C   UNL     1       2.302  16.772  17.869  0.00  0.00    +0.000 A 
ATOM     29  C   UNL     1       1.360  16.559  18.869  0.00  0.00    +0.000 A 
ATOM     30  C   UNL     1       1.234  15.297  19.442  0.00  0.00    +0.000 A 
ATOM     31  F   UNL     1       0.306  15.130  20.397  0.00  0.00    +0.000 F 
ENDBRANCH  22  25
ENDBRANCH  12  21
BRANCH   7  32
ATOM     32  C   UNL     1       3.469   5.032  17.960  0.00  0.00    +0.000 C 
BRANCH  32  33
ATOM     33  C   UNL     1       4.976   5.022  18.115  0.00  0.00    +0.000 A 
ATOM     34  C   UNL     1       5.572   5.398  19.325  0.00  0.00    +0.000 A 
ATOM     35  C   UNL     1       6.957   5.515  19.435  0.00  0.00    +0.000 A 
ATOM     36  C   UNL     1       7.771   5.214  18.347  0.00  0.00    +0.000 A 
ATOM     37  C   UNL     1       7.200   4.759  17.161  0.00  0.00    +0.000 A 
ATOM     38  C   UNL     1       5.812   4.659  17.048  0.00  0.00    +0.000 A 
ENDBRANCH  32  33
ENDBRANCH   7  32
TORSDOF 6
ENDMDL
MODEL 8
REMARK VINA RESULT:      -7.7      4.776      7.416
REMARK  Name = 
REMARK  8 active torsions:
REMARK  status: ('A' for Active; 'I' for Inactive)
REMARK    1  A    between atoms: C_1  and  C_2
REMARK    2  A    between atoms: C_2  and  N_3
REMARK    3  A    between atoms: N_6  and  C_7
REMARK    4  A    between atoms: C_11  and  C_12
REMARK    5  A    between atoms: N_13  and  C_14
REMARK    6  A    between atoms: C_14  and  C_15
REMARK    7  A    between atoms: C_25  and  N_26
REMARK    8  A    between atoms: C_27  and  C_29
REMARK                            x       y       z     vdW  Elec       q    Type
REMARK                         _______ _______ _______ _____ _____    ______ ____
ROOT
ATOM      1  C   UNL     1       3.089  15.840  18.888  0.00  0.00    +0.000 A 
ATOM      2  C   UNL     1       4.156  16.751  18.976  0.00  0.00    +0.000 A 
ATOM      3  C   UNL     1       5.458  16.387  18.618  0.00  0.00    +0.000 A 
ATOM      4  N   UNL     1       6.476  17.332  18.738  0.00  0.00    +0.000 NA
ATOM      5  C   UNL     1       7.695  16.977  18.475  0.00  0.00    +0.000 A 
ATOM      6  C   UNL     1       8.738  18.045  18.692  0.00  0.00    +0.000 C 
ATOM      7  N   UNL     1       8.059  15.711  18.059  0.00  0.00    +0.000 N 
ATOM      8  C   UNL     1       7.085  14.738  17.833  0.00  0.00    +0.000 A 
ATOM      9  O   UNL     1       7.313  13.608  17.406  0.00  0.00    +0.000 OA
ATOM     10  C   UNL     1       5.705  15.094  18.176  0.00  0.00    +0.000 A 
ATOM     11  C   UNL     1       4.681  14.151  18.088  0.00  0.00    +0.000 A 
ATOM     12  C   UNL     1       3.396  14.535  18.432  0.00  0.00    +0.000 A 
ENDROOT
BRANCH   1  16
ATOM     13  N   UNL     1      -1.023  16.750  19.836  0.00  0.00    +0.000 NA
ATOM     14  C   UNL     1      -0.463  16.744  18.453  0.00  0.00    +0.000 C 
ATOM     15  C   UNL     1       1.037  17.123  18.359  0.00  0.00    +0.000 C 
ATOM     16  N   UNL     1       1.783  16.190  19.209  0.00  0.00    +0.000 N 
ATOM     17  C   UNL     1       1.372  16.259  20.627  0.00  0.00    +0.000 C 
ATOM     18  C   UNL     1      -0.143  15.929  20.708  0.00  0.00    +0.000 C 
BRANCH  13  20
ATOM     19  C   UNL     1      -1.905  18.293  21.624  0.00  0.00    +0.000 C 
ATOM     20  C   UNL     1      -1.184  18.139  20.292  0.00  0.00    +0.000 C 
ENDBRANCH  13  20
ENDBRANCH   1  16
BRANCH  12  21
ATOM     21  N   UNL     1       2.321  13.660  18.186  0.00  0.00    +0.000 N 
ATOM     22  C   UNL     1       1.780  12.842  19.163  0.00  0.00    +0.000 C 
ATOM     23  O   UNL     1       2.177  12.753  20.321  0.00  0.00    +0.000 OA
ATOM     24  H   UNL     1       1.697  13.973  17.454  0.00  0.00    +0.000 HD
BRANCH  22  25
ATOM     25  C   UNL     1       0.539  12.133  18.761  0.00  0.00    +0.000 A 
ATOM     26  C   UNL     1      -0.629  12.857  18.508  0.00  0.00    +0.000 A 
ATOM     27  C   UNL     1      -1.793  12.196  18.122  0.00  0.00    +0.000 A 
ATOM     28  C   UNL     1      -1.796  10.801  17.988  0.00  0.00    +0.000 A 
ATOM     29  C   UNL     1      -0.636  10.077  18.237  0.00  0.00    +0.000 A 
ATOM     30  C   UNL     1       0.526  10.742  18.620  0.00  0.00    +0.000 A 
ATOM     31  F   UNL     1       1.627  10.008  18.841  0.00  0.00    +0.000 F 
ENDBRANCH  22  25
ENDBRANCH  12  21
BRANCH   7  32
ATOM     32  C   UNL     1       9.448  15.255  17.925  0.00  0.00    +0.000 C 
BRANCH  32  33
ATOM     33  C   UNL     1       9.872  14.257  18.983  0.00  0.00    +0.000 A 
ATOM     34  C   UNL     1      10.437  13.028  18.620  0.00  0.00    +0.000 A 
ATOM     35  C   UNL     1      10.709  12.055  19.580  0.00  0.00    +0.000 A 
ATOM     36  C   UNL     1      10.460  12.312  20.925  0.00  0.00    +0.000 A 
ATOM     37  C   UNL     1       9.975  13.558  21.312  0.00  0.00    +0.000 A 
ATOM     38  C   UNL     1       9.687  14.526  20.348  0.00  0.00    +0.000 A 
ENDBRANCH  32  33
ENDBRANCH   7  32
TORSDOF 6
ENDMDL
MODEL 9
REMARK VINA RESULT:      -7.6      3.110      9.730
REMARK  Name = 
REMARK  8 active torsions:
REMARK  status: ('A' for Active; 'I' for Inactive)
REMARK    1  A    between atoms: C_1  and  C_2
REMARK    2  A    between atoms: C_2  and  N_3
REMARK    3  A    between atoms: N_6  and  C_7
REMARK    4  A    between atoms: C_11  and  C_12
REMARK    5  A    between atoms: N_13  and  C_14
REMARK    6  A    between atoms: C_14  and  C_15
REMARK    7  A    between atoms: C_25  and  N_26
REMARK    8  A    between atoms: C_27  and  C_29
REMARK                            x       y       z     vdW  Elec       q    Type
REMARK                         _______ _______ _______ _____ _____    ______ ____
ROOT
ATOM      1  C   UNL     1       2.636   6.097  19.613  0.00  0.00    +0.000 A 
ATOM      2  C   UNL     1       1.830   6.665  20.615  0.00  0.00    +0.000 A 
ATOM      3  C   UNL     1       1.301   7.953  20.483  0.00  0.00    +0.000 A 
ATOM      4  N   UNL     1       0.517   8.464  21.517  0.00  0.00    +0.000 NA
ATOM      5  C   UNL     1       0.084   9.683  21.431  0.00  0.00    +0.000 A 
ATOM      6  C   UNL     1      -0.702  10.174  22.621  0.00  0.00    +0.000 C 
ATOM      7  N   UNL     1       0.335  10.519  20.359  0.00  0.00    +0.000 N 
ATOM      8  C   UNL     1       1.038  10.048  19.250  0.00  0.00    +0.000 A 
ATOM      9  O   UNL     1       1.254  10.702  18.232  0.00  0.00    +0.000 OA
ATOM     10  C   UNL     1       1.588   8.692  19.344  0.00  0.00    +0.000 A 
ATOM     11  C   UNL     1       2.397   8.177  18.332  0.00  0.00    +0.000 A 
ATOM     12  C   UNL     1       2.898   6.895  18.472  0.00  0.00    +0.000 A 
ENDROOT
BRANCH   1  16
ATOM     13  N   UNL     1       4.189   2.071  19.723  0.00  0.00    +0.000 NA
ATOM     14  C   UNL     1       2.736   2.409  19.718  0.00  0.00    +0.000 C 
ATOM     15  C   UNL     1       2.382   3.759  20.392  0.00  0.00    +0.000 C 
ATOM     16  N   UNL     1       3.146   4.808  19.709  0.00  0.00    +0.000 N 
ATOM     17  C   UNL     1       4.607   4.604  19.809  0.00  0.00    +0.000 C 
ATOM     18  C   UNL     1       4.947   3.227  19.178  0.00  0.00    +0.000 C 
BRANCH  13  20
ATOM     19  C   UNL     1       5.574   0.515  21.143  0.00  0.00    +0.000 C 
ATOM     20  C   UNL     1       4.595   1.679  21.081  0.00  0.00    +0.000 C 
ENDBRANCH  13  20
ENDBRANCH   1  16
BRANCH  12  21
ATOM     21  N   UNL     1       3.568   6.289  17.393  0.00  0.00    +0.000 N 
ATOM     22  C   UNL     1       4.874   6.595  17.052  0.00  0.00    +0.000 C 
ATOM     23  O   UNL     1       5.581   7.430  17.609  0.00  0.00    +0.000 OA
ATOM     24  H   UNL     1       3.249   5.352  17.186  0.00  0.00    +0.000 HD
BRANCH  22  25
ATOM     25  C   UNL     1       5.464   5.721  16.007  0.00  0.00    +0.000 A 
ATOM     26  C   UNL     1       4.633   4.985  15.160  0.00  0.00    +0.000 A 
ATOM     27  C   UNL     1       5.182   4.171  14.172  0.00  0.00    +0.000 A 
ATOM     28  C   UNL     1       6.573   4.087  14.027  0.00  0.00    +0.000 A 
ATOM     29  C   UNL     1       7.405   4.819  14.866  0.00  0.00    +0.000 A 
ATOM     30  C   UNL     1       6.851   5.634  15.850  0.00  0.00    +0.000 A 
ATOM     31  F   UNL     1       7.687   6.332  16.633  0.00  0.00    +0.000 F 
ENDBRANCH  22  25
ENDBRANCH  12  21
BRANCH   7  32
ATOM     32  C   UNL     1      -0.005  11.947  20.331  0.00  0.00    +0.000 C 
BRANCH  32  33
ATOM     33  C   UNL     1      -1.469  12.224  20.057  0.00  0.00    +0.000 A 
ATOM     34  C   UNL     1      -2.203  13.075  20.892  0.00  0.00    +0.000 A 
ATOM     35  C   UNL     1      -3.578  13.233  20.722  0.00  0.00    +0.000 A 
ATOM     36  C   UNL     1      -4.232  12.575  19.685  0.00  0.00    +0.000 A 
ATOM     37  C   UNL     1      -3.504  11.791  18.794  0.00  0.00    +0.000 A 
ATOM     38  C   UNL     1      -2.130  11.620  18.977  0.00  0.00    +0.000 A 
ENDBRANCH  32  33
ENDBRANCH   7  32
TORSDOF 6
ENDMDL
