MODEL 1
REMARK VINA RESULT:      -9.2      0.000      0.000
REMARK  Name = 
REMARK  6 active torsions:
REMARK  status: ('A' for Active; 'I' for Inactive)
REMARK    1  A    between atoms: C_1  and  C_2
REMARK    2  A    between atoms: C_2  and  C_4
REMARK    3  A    between atoms: C_4  and  N_5
REMARK    4  A    between atoms: C_11  and  C_12
REMARK    5  A    between atoms: C_17  and  C_18
REMARK    6  A    between atoms: C_27  and  C_28
REMARK                            x       y       z     vdW  Elec       q    Type
REMARK                         _______ _______ _______ _____ _____    ______ ____
ROOT
ATOM      1  C   UNL     1       1.219   9.166  19.432  0.00  0.00    +0.000 A 
ATOM      2  C   UNL     1       1.565  10.063  18.481  0.00  0.00    +0.000 A 
ATOM      3  C   UNL     1       2.440   9.641  17.388  0.00  0.00    +0.000 A 
ATOM      4  N   UNL     1       2.964   8.470  17.258  0.00  0.00    +0.000 NA
ATOM      5  C   UNL     1       2.717   7.597  18.281  0.00  0.00    +0.000 A 
ATOM      6  C   UNL     1       3.243   6.338  18.492  0.00  0.00    +0.000 A 
ATOM      7  C   UNL     1       2.556   5.862  19.656  0.00  0.00    +0.000 A 
ATOM      8  N   UNL     1       1.696   6.783  20.143  0.00  0.00    +0.000 NA
ATOM      9  N   UNL     1       1.834   7.877  19.342  0.00  0.00    +0.000 N 
ENDROOT
BRANCH   6  10
ATOM     10  C   UNL     1       4.188   5.712  17.562  0.00  0.00    +0.000 A 
ATOM     11  C   UNL     1       3.855   4.541  16.852  0.00  0.00    +0.000 A 
ATOM     12  C   UNL     1       4.770   3.908  16.008  0.00  0.00    +0.000 A 
ATOM     13  C   UNL     1       6.031   4.456  15.774  0.00  0.00    +0.000 A 
ATOM     14  C   UNL     1       6.337   5.647  16.435  0.00  0.00    +0.000 A 
ATOM     15  N   UNL     1       7.451   6.445  16.372  0.00  0.00    +0.000 N 
ATOM     16  N   UNL     1       7.429   7.489  17.212  0.00  0.00    +0.000 NA
ATOM     17  C   UNL     1       6.234   7.378  17.798  0.00  0.00    +0.000 A 
ATOM     18  C   UNL     1       5.475   6.268  17.337  0.00  0.00    +0.000 A 
ATOM     19  H   UNL     1       8.262   6.327  15.777  0.00  0.00    +0.000 HD
ENDBRANCH   6  10
BRANCH   1  26
ATOM     20  N   UNL     1      -1.063  12.300  20.971  0.00  0.00    +0.000 NA
ATOM     21  C   UNL     1      -0.839  11.762  19.640  0.00  0.00    +0.000 C 
ATOM     22  C   UNL     1       0.568  12.382  19.517  0.00  0.00    +0.000 C 
ATOM     23  C   UNL     1       1.176  12.341  20.930  0.00  0.00    +0.000 C 
ATOM     24  C   UNL     1       0.039  11.761  21.775  0.00  0.00    +0.000 C 
ATOM     25  C   UNL     1       0.269  10.215  21.800  0.00  0.00    +0.000 C 
ATOM     26  C   UNL     1       0.082   9.482  20.436  0.00  0.00    +0.000 C 
ATOM     27  C   UNL     1      -1.072  10.229  19.743  0.00  0.00    +0.000 C 
BRANCH  20  28
ATOM     28  C   UNL     1      -2.444  12.438  21.384  0.00  0.00    +0.000 C 
BRANCH  28  30
ATOM     29  C   UNL     1      -1.893  13.802  23.543  0.00  0.00    +0.000 C 
ATOM     30  C   UNL     1      -2.469  12.550  22.928  0.00  0.00    +0.000 C 
ATOM     31  O   UNL     1      -3.005  11.695  23.639  0.00  0.00    +0.000 OA
ENDBRANCH  28  30
ENDBRANCH  20  28
ENDBRANCH   1  26
BRANCH   7  32
ATOM     32  C   UNL     1       2.669   4.522  20.259  0.00  0.00    +0.000 A 
ATOM     33  C   UNL     1       1.672   4.021  21.099  0.00  0.00    +0.000 A 
ATOM     34  C   UNL     1       1.922   2.862  21.820  0.00  0.00    +0.000 A 
ATOM     35  N   UNL     1       3.055   2.138  21.709  0.00  0.00    +0.000 NA
ATOM     36  C   UNL     1       3.972   2.597  20.827  0.00  0.00    +0.000 A 
ATOM     37  C   UNL     1       3.836   3.766  20.095  0.00  0.00    +0.000 A 
ENDBRANCH   7  32
TORSDOF 5
ENDMDL
MODEL 2
REMARK VINA RESULT:      -8.9      1.036      1.074
REMARK  Name = 
REMARK  6 active torsions:
REMARK  status: ('A' for Active; 'I' for Inactive)
REMARK    1  A    between atoms: C_1  and  C_2
REMARK    2  A    between atoms: C_2  and  C_4
REMARK    3  A    between atoms: C_4  and  N_5
REMARK    4  A    between atoms: C_11  and  C_12
REMARK    5  A    between atoms: C_17  and  C_18
REMARK    6  A    between atoms: C_27  and  C_28
REMARK                            x       y       z     vdW  Elec       q    Type
REMARK                         _______ _______ _______ _____ _____    ______ ____
ROOT
ATOM      1  C   UNL     1       1.392   8.994  19.269  0.00  0.00    +0.000 A 
ATOM      2  C   UNL     1       1.835   9.867  18.335  0.00  0.00    +0.000 A 
ATOM      3  C   UNL     1       2.794   9.410  17.330  0.00  0.00    +0.000 A 
ATOM      4  N   UNL     1       3.306   8.228  17.267  0.00  0.00    +0.000 NA
ATOM      5  C   UNL     1       2.957   7.379  18.280  0.00  0.00    +0.000 A 
ATOM      6  C   UNL     1       3.440   6.116  18.558  0.00  0.00    +0.000 A 
ATOM      7  C   UNL     1       2.646   5.674  19.667  0.00  0.00    +0.000 A 
ATOM      8  N   UNL     1       1.764   6.618  20.060  0.00  0.00    +0.000 NA
ATOM      9  N   UNL     1       1.990   7.695  19.255  0.00  0.00    +0.000 N 
ENDROOT
BRANCH   6  10
ATOM     10  C   UNL     1       4.451   5.458  17.726  0.00  0.00    +0.000 A 
ATOM     11  C   UNL     1       4.140   4.966  16.443  0.00  0.00    +0.000 A 
ATOM     12  C   UNL     1       5.083   4.287  15.667  0.00  0.00    +0.000 A 
ATOM     13  C   UNL     1       6.399   4.138  16.103  0.00  0.00    +0.000 A 
ATOM     14  C   UNL     1       6.719   4.676  17.351  0.00  0.00    +0.000 A 
ATOM     15  N   UNL     1       7.915   4.739  18.020  0.00  0.00    +0.000 N 
ATOM     16  N   UNL     1       7.833   5.272  19.247  0.00  0.00    +0.000 NA
ATOM     17  C   UNL     1       6.544   5.606  19.343  0.00  0.00    +0.000 A 
ATOM     18  C   UNL     1       5.786   5.298  18.180  0.00  0.00    +0.000 A 
ATOM     19  H   UNL     1       8.821   4.430  17.692  0.00  0.00    +0.000 HD
ENDBRANCH   6  10
BRANCH   1  26
ATOM     20  N   UNL     1      -0.918  12.202  20.599  0.00  0.00    +0.000 NA
ATOM     21  C   UNL     1      -0.589  11.657  19.293  0.00  0.00    +0.000 C 
ATOM     22  C   UNL     1       0.842  12.230  19.303  0.00  0.00    +0.000 C 
ATOM     23  C   UNL     1       1.315  12.169  20.766  0.00  0.00    +0.000 C 
ATOM     24  C   UNL     1       0.086  11.627  21.501  0.00  0.00    +0.000 C 
ATOM     25  C   UNL     1       0.262  10.074  21.542  0.00  0.00    +0.000 C 
ATOM     26  C   UNL     1       0.178   9.347  20.164  0.00  0.00    +0.000 C 
ATOM     27  C   UNL     1      -0.882  10.133  19.369  0.00  0.00    +0.000 C 
BRANCH  20  28
ATOM     28  C   UNL     1      -2.326  12.386  20.884  0.00  0.00    +0.000 C 
BRANCH  28  30
ATOM     29  C   UNL     1      -3.001  12.343  23.407  0.00  0.00    +0.000 C 
ATOM     30  C   UNL     1      -2.445  13.121  22.241  0.00  0.00    +0.000 C 
ATOM     31  O   UNL     1      -2.032  14.275  22.400  0.00  0.00    +0.000 OA
ENDBRANCH  28  30
ENDBRANCH  20  28
ENDBRANCH   1  26
BRANCH   7  32
ATOM     32  C   UNL     1       2.683   4.345  20.301  0.00  0.00    +0.000 A 
ATOM     33  C   UNL     1       1.698   3.949  21.209  0.00  0.00    +0.000 A 
ATOM     34  C   UNL     1       1.893   2.791  21.949  0.00  0.00    +0.000 A 
ATOM     35  N   UNL     1       2.955   1.973  21.797  0.00  0.00    +0.000 NA
ATOM     36  C   UNL     1       3.854   2.332  20.852  0.00  0.00    +0.000 A 
ATOM     37  C   UNL     1       3.772   3.490  20.096  0.00  0.00    +0.000 A 
ENDBRANCH   7  32
TORSDOF 5
ENDMDL
MODEL 3
REMARK VINA RESULT:      -8.9      0.858      1.351
REMARK  Name = 
REMARK  6 active torsions:
REMARK  status: ('A' for Active; 'I' for Inactive)
REMARK    1  A    between atoms: C_1  and  C_2
REMARK    2  A    between atoms: C_2  and  C_4
REMARK    3  A    between atoms: C_4  and  N_5
REMARK    4  A    between atoms: C_11  and  C_12
REMARK    5  A    between atoms: C_17  and  C_18
REMARK    6  A    between atoms: C_27  and  C_28
REMARK                            x       y       z     vdW  Elec       q    Type
REMARK                         _______ _______ _______ _____ _____    ______ ____
ROOT
ATOM      1  C   UNL     1       1.254   9.132  19.497  0.00  0.00    +0.000 A 
ATOM      2  C   UNL     1       1.473  10.002  18.484  0.00  0.00    +0.000 A 
ATOM      3  C   UNL     1       2.283   9.578  17.342  0.00  0.00    +0.000 A 
ATOM      4  N   UNL     1       2.861   8.432  17.220  0.00  0.00    +0.000 NA
ATOM      5  C   UNL     1       2.746   7.595  18.295  0.00  0.00    +0.000 A 
ATOM      6  C   UNL     1       3.358   6.377  18.515  0.00  0.00    +0.000 A 
ATOM      7  C   UNL     1       2.792   5.919  19.750  0.00  0.00    +0.000 A 
ATOM      8  N   UNL     1       1.921   6.814  20.265  0.00  0.00    +0.000 NA
ATOM      9  N   UNL     1       1.933   7.876  19.410  0.00  0.00    +0.000 N 
ENDROOT
BRANCH   6  10
ATOM     10  C   UNL     1       4.261   5.761  17.539  0.00  0.00    +0.000 A 
ATOM     11  C   UNL     1       3.884   4.618  16.807  0.00  0.00    +0.000 A 
ATOM     12  C   UNL     1       4.761   3.992  15.917  0.00  0.00    +0.000 A 
ATOM     13  C   UNL     1       6.024   4.524  15.659  0.00  0.00    +0.000 A 
ATOM     14  C   UNL     1       6.374   5.689  16.344  0.00  0.00    +0.000 A 
ATOM     15  N   UNL     1       7.500   6.468  16.270  0.00  0.00    +0.000 N 
ATOM     16  N   UNL     1       7.524   7.487  17.139  0.00  0.00    +0.000 NA
ATOM     17  C   UNL     1       6.346   7.381  17.758  0.00  0.00    +0.000 A 
ATOM     18  C   UNL     1       5.551   6.300  17.290  0.00  0.00    +0.000 A 
ATOM     19  H   UNL     1       8.290   6.352  15.647  0.00  0.00    +0.000 HD
ENDBRANCH   6  10
BRANCH   1  26
ATOM     20  N   UNL     1      -1.076  12.207  21.082  0.00  0.00    +0.000 NA
ATOM     21  C   UNL     1      -0.926  11.622  19.761  0.00  0.00    +0.000 C 
ATOM     22  C   UNL     1       0.429  12.310  19.500  0.00  0.00    +0.000 C 
ATOM     23  C   UNL     1       1.147  12.366  20.860  0.00  0.00    +0.000 C 
ATOM     24  C   UNL     1       0.114  11.765  21.817  0.00  0.00    +0.000 C 
ATOM     25  C   UNL     1       0.433  10.237  21.888  0.00  0.00    +0.000 C 
ATOM     26  C   UNL     1       0.183   9.433  20.575  0.00  0.00    +0.000 C 
ATOM     27  C   UNL     1      -1.063  10.085  19.946  0.00  0.00    +0.000 C 
BRANCH  20  28
ATOM     28  C   UNL     1      -2.427  12.290  21.600  0.00  0.00    +0.000 C 
BRANCH  28  30
ATOM     29  C   UNL     1      -4.459  12.840  20.053  0.00  0.00    +0.000 C 
ATOM     30  C   UNL     1      -3.203  13.317  20.739  0.00  0.00    +0.000 C 
ATOM     31  O   UNL     1      -2.864  14.502  20.669  0.00  0.00    +0.000 OA
ENDBRANCH  28  30
ENDBRANCH  20  28
ENDBRANCH   1  26
BRANCH   7  32
ATOM     32  C   UNL     1       3.029   4.617  20.397  0.00  0.00    +0.000 A 
ATOM     33  C   UNL     1       4.104   3.808  20.021  0.00  0.00    +0.000 A 
ATOM     34  C   UNL     1       4.158   2.503  20.490  0.00  0.00    +0.000 A 
ATOM     35  N   UNL     1       3.264   1.978  21.353  0.00  0.00    +0.000 NA
ATOM     36  C   UNL     1       2.279   2.805  21.769  0.00  0.00    +0.000 A 
ATOM     37  C   UNL     1       2.113   4.108  21.325  0.00  0.00    +0.000 A 
ENDBRANCH   7  32
TORSDOF 5
ENDMDL
MODEL 4
REMARK VINA RESULT:      -8.7      1.318      1.760
REMARK  Name = 
REMARK  6 active torsions:
REMARK  status: ('A' for Active; 'I' for Inactive)
REMARK    1  A    between atoms: C_1  and  C_2
REMARK    2  A    between atoms: C_2  and  C_4
REMARK    3  A    between atoms: C_4  and  N_5
REMARK    4  A    between atoms: C_11  and  C_12
REMARK    5  A    between atoms: C_17  and  C_18
REMARK    6  A    between atoms: C_27  and  C_28
REMARK                            x       y       z     vdW  Elec       q    Type
REMARK                         _______ _______ _______ _____ _____    ______ ____
ROOT
ATOM      1  C   UNL     1       1.063   8.932  19.315  0.00  0.00    +0.000 A 
ATOM      2  C   UNL     1       1.413   9.882  18.416  0.00  0.00    +0.000 A 
ATOM      3  C   UNL     1       2.439   9.577  17.421  0.00  0.00    +0.000 A 
ATOM      4  N   UNL     1       3.094   8.469  17.336  0.00  0.00    +0.000 NA
ATOM      5  C   UNL     1       2.833   7.553  18.316  0.00  0.00    +0.000 A 
ATOM      6  C   UNL     1       3.463   6.351  18.569  0.00  0.00    +0.000 A 
ATOM      7  C   UNL     1       2.709   5.781  19.647  0.00  0.00    +0.000 A 
ATOM      8  N   UNL     1       1.710   6.596  20.047  0.00  0.00    +0.000 NA
ATOM      9  N   UNL     1       1.816   7.717  19.278  0.00  0.00    +0.000 N 
ENDROOT
BRANCH   6  10
ATOM     10  C   UNL     1       4.563   5.847  17.742  0.00  0.00    +0.000 A 
ATOM     11  C   UNL     1       4.408   5.647  16.355  0.00  0.00    +0.000 A 
ATOM     12  C   UNL     1       5.433   5.115  15.570  0.00  0.00    +0.000 A 
ATOM     13  C   UNL     1       6.684   4.831  16.117  0.00  0.00    +0.000 A 
ATOM     14  C   UNL     1       6.853   5.084  17.480  0.00  0.00    +0.000 A 
ATOM     15  N   UNL     1       7.958   4.963  18.284  0.00  0.00    +0.000 N 
ATOM     16  N   UNL     1       7.730   5.229  19.577  0.00  0.00    +0.000 NA
ATOM     17  C   UNL     1       6.442   5.579  19.590  0.00  0.00    +0.000 A 
ATOM     18  C   UNL     1       5.831   5.549  18.307  0.00  0.00    +0.000 A 
ATOM     19  H   UNL     1       8.895   4.698  18.007  0.00  0.00    +0.000 HD
ENDBRANCH   6  10
BRANCH   1  26
ATOM     20  N   UNL     1      -0.362  10.876  22.719  0.00  0.00    +0.000 NA
ATOM     21  C   UNL     1       0.220  11.318  21.464  0.00  0.00    +0.000 C 
ATOM     22  C   UNL     1       1.651  10.911  21.868  0.00  0.00    +0.000 C 
ATOM     23  C   UNL     1       1.507   9.641  22.725  0.00  0.00    +0.000 C 
ATOM     24  C   UNL     1      -0.011   9.454  22.807  0.00  0.00    +0.000 C 
ATOM     25  C   UNL     1      -0.391   8.509  21.622  0.00  0.00    +0.000 C 
ATOM     26  C   UNL     1      -0.201   9.106  20.193  0.00  0.00    +0.000 C 
ATOM     27  C   UNL     1      -0.570  10.595  20.337  0.00  0.00    +0.000 C 
BRANCH  20  28
ATOM     28  C   UNL     1      -1.629  11.474  23.087  0.00  0.00    +0.000 C 
BRANCH  28  30
ATOM     29  C   UNL     1      -2.347  13.716  21.954  0.00  0.00    +0.000 C 
ATOM     30  C   UNL     1      -1.480  13.011  22.968  0.00  0.00    +0.000 C 
ATOM     31  O   UNL     1      -0.744  13.659  23.719  0.00  0.00    +0.000 OA
ENDBRANCH  28  30
ENDBRANCH  20  28
ENDBRANCH   1  26
BRANCH   7  32
ATOM     32  C   UNL     1       2.898   4.447  20.244  0.00  0.00    +0.000 A 
ATOM     33  C   UNL     1       3.693   3.482  19.620  0.00  0.00    +0.000 A 
ATOM     34  C   UNL     1       3.660   2.178  20.094  0.00  0.00    +0.000 A 
ATOM     35  N   UNL     1       2.954   1.789  21.176  0.00  0.00    +0.000 NA
ATOM     36  C   UNL     1       2.259   2.758  21.814  0.00  0.00    +0.000 A 
ATOM     37  C   UNL     1       2.191   4.077  21.394  0.00  0.00    +0.000 A 
ENDBRANCH   7  32
TORSDOF 5
ENDMDL
MODEL 5
REMARK VINA RESULT:      -8.5      1.135      1.265
REMARK  Name = 
REMARK  6 active torsions:
REMARK  status: ('A' for Active; 'I' for Inactive)
REMARK    1  A    between atoms: C_1  and  C_2
REMARK    2  A    between atoms: C_2  and  C_4
REMARK    3  A    between atoms: C_4  and  N_5
REMARK    4  A    between atoms: C_11  and  C_12
REMARK    5  A    between atoms: C_17  and  C_18
REMARK    6  A    between atoms: C_27  and  C_28
REMARK                            x       y       z     vdW  Elec       q    Type
REMARK                         _______ _______ _______ _____ _____    ______ ____
ROOT
ATOM      1  C   UNL     1       1.109   9.339  19.225  0.00  0.00    +0.000 A 
ATOM      2  C   UNL     1       1.634  10.302  18.432  0.00  0.00    +0.000 A 
ATOM      3  C   UNL     1       2.700   9.950  17.494  0.00  0.00    +0.000 A 
ATOM      4  N   UNL     1       3.234   8.783  17.372  0.00  0.00    +0.000 NA
ATOM      5  C   UNL     1       2.794   7.837  18.256  0.00  0.00    +0.000 A 
ATOM      6  C   UNL     1       3.265   6.556  18.460  0.00  0.00    +0.000 A 
ATOM      7  C   UNL     1       2.367   6.003  19.431  0.00  0.00    +0.000 A 
ATOM      8  N   UNL     1       1.433   6.899  19.818  0.00  0.00    +0.000 NA
ATOM      9  N   UNL     1       1.726   8.050  19.148  0.00  0.00    +0.000 N 
ENDROOT
BRANCH   6  10
ATOM     10  C   UNL     1       4.368   5.987  17.679  0.00  0.00    +0.000 A 
ATOM     11  C   UNL     1       4.270   5.818  16.284  0.00  0.00    +0.000 A 
ATOM     12  C   UNL     1       5.295   5.225  15.541  0.00  0.00    +0.000 A 
ATOM     13  C   UNL     1       6.493   4.846  16.145  0.00  0.00    +0.000 A 
ATOM     14  C   UNL     1       6.608   5.066  17.519  0.00  0.00    +0.000 A 
ATOM     15  N   UNL     1       7.660   4.855  18.374  0.00  0.00    +0.000 N 
ATOM     16  N   UNL     1       7.386   5.118  19.660  0.00  0.00    +0.000 NA
ATOM     17  C   UNL     1       6.126   5.559  19.614  0.00  0.00    +0.000 A 
ATOM     18  C   UNL     1       5.581   5.591  18.301  0.00  0.00    +0.000 A 
ATOM     19  H   UNL     1       8.589   4.529  18.141  0.00  0.00    +0.000 HD
ENDBRANCH   6  10
BRANCH   1  26
ATOM     20  N   UNL     1      -1.227  12.385  20.855  0.00  0.00    +0.000 NA
ATOM     21  C   UNL     1      -0.752  12.072  19.518  0.00  0.00    +0.000 C 
ATOM     22  C   UNL     1       0.687  12.541  19.812  0.00  0.00    +0.000 C 
ATOM     23  C   UNL     1       0.961  12.180  21.282  0.00  0.00    +0.000 C 
ATOM     24  C   UNL     1      -0.374  11.590  21.744  0.00  0.00    +0.000 C 
ATOM     25  C   UNL     1      -0.266  10.049  21.508  0.00  0.00    +0.000 C 
ATOM     26  C   UNL     1      -0.196   9.597  20.017  0.00  0.00    +0.000 C 
ATOM     27  C   UNL     1      -1.111  10.581  19.264  0.00  0.00    +0.000 C 
BRANCH  20  28
ATOM     28  C   UNL     1      -2.653  12.602  20.996  0.00  0.00    +0.000 C 
BRANCH  28  30
ATOM     29  C   UNL     1      -2.508  14.196  23.060  0.00  0.00    +0.000 C 
ATOM     30  C   UNL     1      -2.947  12.869  22.492  0.00  0.00    +0.000 C 
ATOM     31  O   UNL     1      -3.584  12.072  23.187  0.00  0.00    +0.000 OA
ENDBRANCH  28  30
ENDBRANCH  20  28
ENDBRANCH   1  26
BRANCH   7  32
ATOM     32  C   UNL     1       2.358   4.618  19.934  0.00  0.00    +0.000 A 
ATOM     33  C   UNL     1       2.183   3.536  19.068  0.00  0.00    +0.000 A 
ATOM     34  C   UNL     1       1.955   2.277  19.605  0.00  0.00    +0.000 A 
ATOM     35  N   UNL     1       1.960   2.013  20.928  0.00  0.00    +0.000 NA
ATOM     36  C   UNL     1       2.215   3.060  21.745  0.00  0.00    +0.000 A 
ATOM     37  C   UNL     1       2.410   4.361  21.309  0.00  0.00    +0.000 A 
ENDBRANCH   7  32
TORSDOF 5
ENDMDL
MODEL 6
REMARK VINA RESULT:      -8.4      1.253      1.519
REMARK  Name = 
REMARK  6 active torsions:
REMARK  status: ('A' for Active; 'I' for Inactive)
REMARK    1  A    between atoms: C_1  and  C_2
REMARK    2  A    between atoms: C_2  and  C_4
REMARK    3  A    between atoms: C_4  and  N_5
REMARK    4  A    between atoms: C_11  and  C_12
REMARK    5  A    between atoms: C_17  and  C_18
REMARK    6  A    between atoms: C_27  and  C_28
REMARK                            x       y       z     vdW  Elec       q    Type
REMARK                         _______ _______ _______ _____ _____    ______ ____
ROOT
ATOM      1  C   UNL     1       1.360   9.071  19.342  0.00  0.00    +0.000 A 
ATOM      2  C   UNL     1       1.782   9.913  18.370  0.00  0.00    +0.000 A 
ATOM      3  C   UNL     1       2.713   9.421  17.356  0.00  0.00    +0.000 A 
ATOM      4  N   UNL     1       3.220   8.236  17.317  0.00  0.00    +0.000 NA
ATOM      5  C   UNL     1       2.895   7.421  18.365  0.00  0.00    +0.000 A 
ATOM      6  C   UNL     1       3.382   6.166  18.671  0.00  0.00    +0.000 A 
ATOM      7  C   UNL     1       2.616   5.761  19.813  0.00  0.00    +0.000 A 
ATOM      8  N   UNL     1       1.746   6.720  20.199  0.00  0.00    +0.000 NA
ATOM      9  N   UNL     1       1.954   7.770  19.354  0.00  0.00    +0.000 N 
ENDROOT
BRANCH   6  10
ATOM     10  C   UNL     1       4.369   5.478  17.834  0.00  0.00    +0.000 A 
ATOM     11  C   UNL     1       4.029   4.964  16.566  0.00  0.00    +0.000 A 
ATOM     12  C   UNL     1       4.950   4.259  15.787  0.00  0.00    +0.000 A 
ATOM     13  C   UNL     1       6.271   4.101  16.203  0.00  0.00    +0.000 A 
ATOM     14  C   UNL     1       6.620   4.659  17.434  0.00  0.00    +0.000 A 
ATOM     15  N   UNL     1       7.829   4.720  18.080  0.00  0.00    +0.000 N 
ATOM     16  N   UNL     1       7.776   5.278  19.298  0.00  0.00    +0.000 NA
ATOM     17  C   UNL     1       6.493   5.630  19.410  0.00  0.00    +0.000 A 
ATOM     18  C   UNL     1       5.711   5.310  18.268  0.00  0.00    +0.000 A 
ATOM     19  H   UNL     1       8.725   4.393  17.743  0.00  0.00    +0.000 HD
ENDBRANCH   6  10
BRANCH   1  26
ATOM     20  N   UNL     1      -0.911  12.326  20.624  0.00  0.00    +0.000 NA
ATOM     21  C   UNL     1      -0.618  11.737  19.329  0.00  0.00    +0.000 C 
ATOM     22  C   UNL     1       0.814  12.307  19.281  0.00  0.00    +0.000 C 
ATOM     23  C   UNL     1       1.326  12.295  20.732  0.00  0.00    +0.000 C 
ATOM     24  C   UNL     1       0.116  11.780  21.517  0.00  0.00    +0.000 C 
ATOM     25  C   UNL     1       0.292  10.230  21.607  0.00  0.00    +0.000 C 
ATOM     26  C   UNL     1       0.171   9.456  20.257  0.00  0.00    +0.000 C 
ATOM     27  C   UNL     1      -0.909  10.216  19.464  0.00  0.00    +0.000 C 
BRANCH  20  28
ATOM     28  C   UNL     1      -2.311  12.522  20.939  0.00  0.00    +0.000 C 
BRANCH  28  30
ATOM     29  C   UNL     1      -1.447  14.987  20.903  0.00  0.00    +0.000 C 
ATOM     30  C   UNL     1      -2.616  14.035  20.829  0.00  0.00    +0.000 C 
ATOM     31  O   UNL     1      -3.754  14.461  20.611  0.00  0.00    +0.000 OA
ENDBRANCH  28  30
ENDBRANCH  20  28
ENDBRANCH   1  26
BRANCH   7  32
ATOM     32  C   UNL     1       2.666   4.452  20.488  0.00  0.00    +0.000 A 
ATOM     33  C   UNL     1       3.753   3.592  20.315  0.00  0.00    +0.000 A 
ATOM     34  C   UNL     1       3.657   2.288  20.780  0.00  0.00    +0.000 A 
ATOM     35  N   UNL     1       2.594   1.810  21.460  0.00  0.00    +0.000 NA
ATOM     36  C   UNL     1       1.590   2.685  21.689  0.00  0.00    +0.000 A 
ATOM     37  C   UNL     1       1.571   3.992  21.227  0.00  0.00    +0.000 A 
ENDBRANCH   7  32
TORSDOF 5
ENDMDL
MODEL 7
REMARK VINA RESULT:      -8.3      2.260      4.640
REMARK  Name = 
REMARK  6 active torsions:
REMARK  status: ('A' for Active; 'I' for Inactive)
REMARK    1  A    between atoms: C_1  and  C_2
REMARK    2  A    between atoms: C_2  and  C_4
REMARK    3  A    between atoms: C_4  and  N_5
REMARK    4  A    between atoms: C_11  and  C_12
REMARK    5  A    between atoms: C_17  and  C_18
REMARK    6  A    between atoms: C_27  and  C_28
REMARK                            x       y       z     vdW  Elec       q    Type
REMARK                         _______ _______ _______ _____ _____    ______ ____
ROOT
ATOM      1  C   UNL     1       0.952   9.887  19.973  0.00  0.00    +0.000 A 
ATOM      2  C   UNL     1      -0.016   9.716  20.904  0.00  0.00    +0.000 A 
ATOM      3  C   UNL     1      -0.184   8.402  21.523  0.00  0.00    +0.000 A 
ATOM      4  N   UNL     1       0.494   7.345  21.232  0.00  0.00    +0.000 NA
ATOM      5  C   UNL     1       1.387   7.481  20.206  0.00  0.00    +0.000 A 
ATOM      6  C   UNL     1       2.148   6.511  19.585  0.00  0.00    +0.000 A 
ATOM      7  C   UNL     1       2.961   7.244  18.658  0.00  0.00    +0.000 A 
ATOM      8  N   UNL     1       2.688   8.566  18.689  0.00  0.00    +0.000 NA
ATOM      9  N   UNL     1       1.678   8.715  19.592  0.00  0.00    +0.000 N 
ENDROOT
BRANCH   6  10
ATOM     10  C   UNL     1       2.115   5.103  19.989  0.00  0.00    +0.000 A 
ATOM     11  C   UNL     1       2.149   4.727  21.347  0.00  0.00    +0.000 A 
ATOM     12  C   UNL     1       2.174   3.386  21.738  0.00  0.00    +0.000 A 
ATOM     13  C   UNL     1       2.087   2.361  20.797  0.00  0.00    +0.000 A 
ATOM     14  C   UNL     1       1.997   2.737  19.456  0.00  0.00    +0.000 A 
ATOM     15  N   UNL     1       1.848   1.981  18.321  0.00  0.00    +0.000 N 
ATOM     16  N   UNL     1       1.871   2.686  17.182  0.00  0.00    +0.000 NA
ATOM     17  C   UNL     1       1.990   3.945  17.610  0.00  0.00    +0.000 A 
ATOM     18  C   UNL     1       2.039   4.063  19.026  0.00  0.00    +0.000 A 
ATOM     19  H   UNL     1       1.730   0.977  18.260  0.00  0.00    +0.000 HD
ENDBRANCH   6  10
BRANCH   1  26
ATOM     20  N   UNL     1      -0.494  13.783  19.615  0.00  0.00    +0.000 NA
ATOM     21  C   UNL     1      -0.320  12.861  20.724  0.00  0.00    +0.000 C 
ATOM     22  C   UNL     1      -1.536  11.999  20.329  0.00  0.00    +0.000 C 
ATOM     23  C   UNL     1      -1.585  12.008  18.792  0.00  0.00    +0.000 C 
ATOM     24  C   UNL     1      -0.426  12.937  18.419  0.00  0.00    +0.000 C 
ATOM     25  C   UNL     1       0.818  12.012  18.219  0.00  0.00    +0.000 C 
ATOM     26  C   UNL     1       1.351  11.309  19.505  0.00  0.00    +0.000 C 
ATOM     27  C   UNL     1       1.141  12.338  20.632  0.00  0.00    +0.000 C 
BRANCH  20  28
ATOM     28  C   UNL     1       0.091  15.098  19.775  0.00  0.00    +0.000 C 
BRANCH  28  30
ATOM     29  C   UNL     1      -2.148  16.163  20.599  0.00  0.00    +0.000 C 
ATOM     30  C   UNL     1      -1.033  16.145  19.582  0.00  0.00    +0.000 C 
ATOM     31  O   UNL     1      -0.995  16.990  18.682  0.00  0.00    +0.000 OA
ENDBRANCH  28  30
ENDBRANCH  20  28
ENDBRANCH   1  26
BRANCH   7  32
ATOM     32  C   UNL     1       4.029   6.699  17.803  0.00  0.00    +0.000 A 
ATOM     33  C   UNL     1       5.065   5.931  18.341  0.00  0.00    +0.000 A 
ATOM     34  C   UNL     1       6.162   5.633  17.545  0.00  0.00    +0.000 A 
ATOM     35  N   UNL     1       6.264   5.982  16.246  0.00  0.00    +0.000 NA
ATOM     36  C   UNL     1       5.212   6.652  15.723  0.00  0.00    +0.000 A 
ATOM     37  C   UNL     1       4.094   7.036  16.446  0.00  0.00    +0.000 A 
ENDBRANCH   7  32
TORSDOF 5
ENDMDL
MODEL 8
REMARK VINA RESULT:      -8.2      5.550      9.710
REMARK  Name = 
REMARK  6 active torsions:
REMARK  status: ('A' for Active; 'I' for Inactive)
REMARK    1  A    between atoms: C_1  and  C_2
REMARK    2  A    between atoms: C_2  and  C_4
REMARK    3  A    between atoms: C_4  and  N_5
REMARK    4  A    between atoms: C_11  and  C_12
REMARK    5  A    between atoms: C_17  and  C_18
REMARK    6  A    between atoms: C_27  and  C_28
REMARK                            x       y       z     vdW  Elec       q    Type
REMARK                         _______ _______ _______ _____ _____    ______ ____
ROOT
ATOM      1  C   UNL     1       1.012  15.981  20.987  0.00  0.00    +0.000 A 
ATOM      2  C   UNL     1       0.282  17.106  20.805  0.00  0.00    +0.000 A 
ATOM      3  C   UNL     1      -1.175  17.033  20.899  0.00  0.00    +0.000 A 
ATOM      4  N   UNL     1      -1.859  15.959  21.106  0.00  0.00    +0.000 NA
ATOM      5  C   UNL     1      -1.135  14.801  21.168  0.00  0.00    +0.000 A 
ATOM      6  C   UNL     1      -1.588  13.499  21.242  0.00  0.00    +0.000 A 
ATOM      7  C   UNL     1      -0.392  12.720  21.379  0.00  0.00    +0.000 A 
ATOM      8  N   UNL     1       0.716  13.493  21.353  0.00  0.00    +0.000 NA
ATOM      9  N   UNL     1       0.273  14.768  21.160  0.00  0.00    +0.000 N 
ENDROOT
BRANCH   6  10
ATOM     10  C   UNL     1      -3.013  13.161  21.295  0.00  0.00    +0.000 A 
ATOM     11  C   UNL     1      -3.779  13.022  20.120  0.00  0.00    +0.000 A 
ATOM     12  C   UNL     1      -5.150  12.755  20.164  0.00  0.00    +0.000 A 
ATOM     13  C   UNL     1      -5.801  12.538  21.377  0.00  0.00    +0.000 A 
ATOM     14  C   UNL     1      -5.028  12.621  22.536  0.00  0.00    +0.000 A 
ATOM     15  N   UNL     1      -5.358  12.409  23.851  0.00  0.00    +0.000 N 
ATOM     16  N   UNL     1      -4.364  12.653  24.715  0.00  0.00    +0.000 NA
ATOM     17  C   UNL     1      -3.347  12.985  23.917  0.00  0.00    +0.000 A 
ATOM     18  C   UNL     1      -3.674  12.953  22.534  0.00  0.00    +0.000 A 
ATOM     19  H   UNL     1      -6.249  12.102  24.221  0.00  0.00    +0.000 HD
ENDBRANCH   6  10
BRANCH   1  26
ATOM     20  N   UNL     1       4.615  15.966  18.886  0.00  0.00    +0.000 NA
ATOM     21  C   UNL     1       3.427  16.803  18.863  0.00  0.00    +0.000 C 
ATOM     22  C   UNL     1       2.581  15.755  18.112  0.00  0.00    +0.000 C 
ATOM     23  C   UNL     1       3.054  14.382  18.620  0.00  0.00    +0.000 C 
ATOM     24  C   UNL     1       4.191  14.745  19.579  0.00  0.00    +0.000 C 
ATOM     25  C   UNL     1       3.536  14.869  20.993  0.00  0.00    +0.000 C 
ATOM     26  C   UNL     1       2.547  16.060  21.178  0.00  0.00    +0.000 C 
ATOM     27  C   UNL     1       3.147  17.204  20.339  0.00  0.00    +0.000 C 
BRANCH  20  28
ATOM     28  C   UNL     1       5.881  16.652  19.044  0.00  0.00    +0.000 C 
BRANCH  28  30
ATOM     29  C   UNL     1       7.856  15.185  19.923  0.00  0.00    +0.000 C 
ATOM     30  C   UNL     1       7.011  15.634  18.756  0.00  0.00    +0.000 C 
ATOM     31  O   UNL     1       7.179  15.138  17.638  0.00  0.00    +0.000 OA
ENDBRANCH  28  30
ENDBRANCH  20  28
ENDBRANCH   1  26
BRANCH   7  32
ATOM     32  C   UNL     1      -0.309  11.266  21.596  0.00  0.00    +0.000 A 
ATOM     33  C   UNL     1      -0.607  10.703  22.840  0.00  0.00    +0.000 A 
ATOM     34  C   UNL     1      -0.299   9.368  23.063  0.00  0.00    +0.000 A 
ATOM     35  N   UNL     1       0.213   8.548  22.123  0.00  0.00    +0.000 NA
ATOM     36  C   UNL     1       0.415   9.093  20.902  0.00  0.00    +0.000 A 
ATOM     37  C   UNL     1       0.183  10.424  20.592  0.00  0.00    +0.000 A 
ENDBRANCH   7  32
TORSDOF 5
ENDMDL
MODEL 9
REMARK VINA RESULT:      -8.2      5.658      9.878
REMARK  Name = 
REMARK  6 active torsions:
REMARK  status: ('A' for Active; 'I' for Inactive)
REMARK    1  A    between atoms: C_1  and  C_2
REMARK    2  A    between atoms: C_2  and  C_4
REMARK    3  A    between atoms: C_4  and  N_5
REMARK    4  A    between atoms: C_11  and  C_12
REMARK    5  A    between atoms: C_17  and  C_18
REMARK    6  A    between atoms: C_27  and  C_28
REMARK                            x       y       z     vdW  Elec       q    Type
REMARK                         _______ _______ _______ _____ _____    ______ ____
ROOT
ATOM      1  C   UNL     1       1.076  15.974  21.898  0.00  0.00    +0.000 A 
ATOM      2  C   UNL     1       0.451  17.142  22.175  0.00  0.00    +0.000 A 
ATOM      3  C   UNL     1      -0.923  17.114  22.672  0.00  0.00    +0.000 A 
ATOM      4  N   UNL     1      -1.637  16.053  22.843  0.00  0.00    +0.000 NA
ATOM      5  C   UNL     1      -1.053  14.881  22.448  0.00  0.00    +0.000 A 
ATOM      6  C   UNL     1      -1.606  13.618  22.379  0.00  0.00    +0.000 A 
ATOM      7  C   UNL     1      -0.511  12.777  21.995  0.00  0.00    +0.000 A 
ATOM      8  N   UNL     1       0.624  13.485  21.809  0.00  0.00    +0.000 NA
ATOM      9  N   UNL     1       0.287  14.788  22.023  0.00  0.00    +0.000 N 
ENDROOT
BRANCH   6  10
ATOM     10  C   UNL     1      -2.990  13.340  22.772  0.00  0.00    +0.000 A 
ATOM     11  C   UNL     1      -3.359  13.219  24.127  0.00  0.00    +0.000 A 
ATOM     12  C   UNL     1      -4.665  12.899  24.508  0.00  0.00    +0.000 A 
ATOM     13  C   UNL     1      -5.678  12.763  23.559  0.00  0.00    +0.000 A 
ATOM     14  C   UNL     1      -5.321  12.939  22.221  0.00  0.00    +0.000 A 
ATOM     15  N   UNL     1      -6.083  12.923  21.081  0.00  0.00    +0.000 N 
ATOM     16  N   UNL     1      -5.382  13.061  19.947  0.00  0.00    +0.000 NA
ATOM     17  C   UNL     1      -4.131  13.218  20.384  0.00  0.00    +0.000 A 
ATOM     18  C   UNL     1      -4.015  13.191  21.801  0.00  0.00    +0.000 A 
ATOM     19  H   UNL     1      -7.088  12.819  21.012  0.00  0.00    +0.000 HD
ENDBRANCH   6  10
BRANCH   1  26
ATOM     20  N   UNL     1       3.936  16.144  18.867  0.00  0.00    +0.000 NA
ATOM     21  C   UNL     1       2.878  17.032  19.319  0.00  0.00    +0.000 C 
ATOM     22  C   UNL     1       1.757  16.178  18.693  0.00  0.00    +0.000 C 
ATOM     23  C   UNL     1       2.213  14.714  18.825  0.00  0.00    +0.000 C 
ATOM     24  C   UNL     1       3.602  14.843  19.457  0.00  0.00    +0.000 C 
ATOM     25  C   UNL     1       3.380  14.750  21.001  0.00  0.00    +0.000 C 
ATOM     26  C   UNL     1       2.604  15.940  21.646  0.00  0.00    +0.000 C 
ATOM     27  C   UNL     1       3.059  17.181  20.855  0.00  0.00    +0.000 C 
BRANCH  20  28
ATOM     28  C   UNL     1       5.258  16.725  18.754  0.00  0.00    +0.000 C 
BRANCH  28  30
ATOM     29  C   UNL     1       6.697  14.780  17.767  0.00  0.00    +0.000 C 
ATOM     30  C   UNL     1       6.294  15.594  18.972  0.00  0.00    +0.000 C 
ATOM     31  O   UNL     1       6.836  15.404  20.064  0.00  0.00    +0.000 OA
ENDBRANCH  28  30
ENDBRANCH  20  28
ENDBRANCH   1  26
BRANCH   7  32
ATOM     32  C   UNL     1      -0.530  11.309  21.872  0.00  0.00    +0.000 A 
ATOM     33  C   UNL     1      -0.716  10.492  22.990  0.00  0.00    +0.000 A 
ATOM     34  C   UNL     1      -0.501   9.127  22.867  0.00  0.00    +0.000 A 
ATOM     35  N   UNL     1      -0.187   8.518  21.704  0.00  0.00    +0.000 NA
ATOM     36  C   UNL     1      -0.095   9.318  20.618  0.00  0.00    +0.000 A 
ATOM     37  C   UNL     1      -0.247  10.695  20.646  0.00  0.00    +0.000 A 
ENDBRANCH   7  32
TORSDOF 5
ENDMDL
