MODEL 1
REMARK VINA RESULT:      -8.1      0.000      0.000
REMARK  Name = 
REMARK  7 active torsions:
REMARK  status: ('A' for Active; 'I' for Inactive)
REMARK    1  A    between atoms: C_1  and  O_2
REMARK    2  A    between atoms: O_2  and  C_3
REMARK    3  A    between atoms: C_3  and  C_5
REMARK    4  A    between atoms: C_5  and  C_6
REMARK    5  A    between atoms: C_6  and  C_7
REMARK    6  A    between atoms: C_12  and  N_13
REMARK    7  A    between atoms: N_16  and  C_17
REMARK                            x       y       z     vdW  Elec       q    Type
REMARK                         _______ _______ _______ _____ _____    ______ ____
ROOT
ATOM      1  N   UNL     1       7.916   7.262  18.330  0.00  0.00    +0.000 N 
ATOM      2  C   UNL     1       8.314   8.551  18.089  0.00  0.00    +0.000 C 
ATOM      3  O   UNL     1       8.153   9.086  17.003  0.00  0.00    +0.000 OA
ATOM      4  N   UNL     1       8.899   9.165  19.173  0.00  0.00    +0.000 N 
ATOM      5  H   UNL     1       8.490   6.761  18.994  0.00  0.00    +0.000 HD
ATOM      6  H   UNL     1       8.578   8.825  20.073  0.00  0.00    +0.000 HD
ENDROOT
BRANCH   4   7
ATOM      7  C   UNL     1       9.336  10.577  19.110  0.00  0.00    +0.000 C 
ATOM      8  C   UNL     1       9.409  11.224  20.520  0.00  0.00    +0.000 C 
ATOM      9  C   UNL     1       9.867  12.691  20.436  0.00  0.00    +0.000 C 
ATOM     10  C   UNL     1      11.260  12.756  19.797  0.00  0.00    +0.000 C 
ATOM     11  C   UNL     1      11.212  12.155  18.383  0.00  0.00    +0.000 C 
ATOM     12  C   UNL     1      10.209  12.934  17.515  0.00  0.00    +0.000 C 
ATOM     13  C   UNL     1       8.816  12.883  18.153  0.00  0.00    +0.000 C 
ATOM     14  C   UNL     1       8.884  13.490  19.564  0.00  0.00    +0.000 C 
ATOM     15  C   UNL     1       8.355  11.418  18.246  0.00  0.00    +0.000 C 
ATOM     16  C   UNL     1      10.758  10.685  18.474  0.00  0.00    +0.000 C 
ENDBRANCH   4   7
BRANCH   1  22
ATOM     17  C   UNL     1       3.772   4.443  17.993  0.00  0.00    +0.000 C 
ATOM     18  O   UNL     1       2.763   4.953  17.524  0.00  0.00    +0.000 OA
ATOM     19  N   UNL     1       4.939   5.169  18.213  0.00  0.00    +0.000 N 
ATOM     20  C   UNL     1       4.924   6.611  17.983  0.00  0.00    +0.000 C 
ATOM     21  C   UNL     1       5.897   6.978  16.875  0.00  0.00    +0.000 C 
ATOM     22  C   UNL     1       7.310   6.495  17.223  0.00  0.00    +0.000 C 
ATOM     23  C   UNL     1       7.288   4.983  17.485  0.00  0.00    +0.000 C 
ATOM     24  C   UNL     1       6.254   4.597  18.542  0.00  0.00    +0.000 C 
BRANCH  17  25
ATOM     25  C   UNL     1       3.792   2.990  18.415  0.00  0.00    +0.000 C 
BRANCH  25  26
ATOM     26  C   UNL     1       2.607   2.220  17.845  0.00  0.00    +0.000 C 
BRANCH  26  27
ATOM     27  C   UNL     1       1.468   2.200  18.833  0.00  0.00    +0.000 C 
ATOM     28  O   UNL     1       0.282   2.183  18.532  0.00  0.00    +0.000 OA
BRANCH  27  30
ATOM     29  C   UNL     1       1.298   3.141  20.965  0.00  0.00    +0.000 C 
ATOM     30  O   UNL     1       1.954   2.207  20.102  0.00  0.00    +0.000 OA
ENDBRANCH  27  30
ENDBRANCH  26  27
ENDBRANCH  25  26
ENDBRANCH  17  25
ENDBRANCH   1  22
TORSDOF 6
ENDMDL
MODEL 2
REMARK VINA RESULT:      -8.1      1.402      2.106
REMARK  Name = 
REMARK  7 active torsions:
REMARK  status: ('A' for Active; 'I' for Inactive)
REMARK    1  A    between atoms: C_1  and  O_2
REMARK    2  A    between atoms: O_2  and  C_3
REMARK    3  A    between atoms: C_3  and  C_5
REMARK    4  A    between atoms: C_5  and  C_6
REMARK    5  A    between atoms: C_6  and  C_7
REMARK    6  A    between atoms: C_12  and  N_13
REMARK    7  A    between atoms: N_16  and  C_17
REMARK                            x       y       z     vdW  Elec       q    Type
REMARK                         _______ _______ _______ _____ _____    ______ ____
ROOT
ATOM      1  N   UNL     1       7.409   7.725  17.306  0.00  0.00    +0.000 N 
ATOM      2  C   UNL     1       8.223   8.553  18.034  0.00  0.00    +0.000 C 
ATOM      3  O   UNL     1       8.934   8.134  18.934  0.00  0.00    +0.000 OA
ATOM      4  N   UNL     1       8.159   9.875  17.652  0.00  0.00    +0.000 N 
ATOM      5  H   UNL     1       6.555   8.157  16.979  0.00  0.00    +0.000 HD
ATOM      6  H   UNL     1       7.923  10.019  16.677  0.00  0.00    +0.000 HD
ENDROOT
BRANCH   4   7
ATOM      7  C   UNL     1       9.015  10.898  18.291  0.00  0.00    +0.000 C 
ATOM      8  C   UNL     1       8.444  12.330  18.101  0.00  0.00    +0.000 C 
ATOM      9  C   UNL     1       9.344  13.382  18.775  0.00  0.00    +0.000 C 
ATOM     10  C   UNL     1       9.436  13.089  20.278  0.00  0.00    +0.000 C 
ATOM     11  C   UNL     1      10.034  11.690  20.499  0.00  0.00    +0.000 C 
ATOM     12  C   UNL     1      11.436  11.612  19.870  0.00  0.00    +0.000 C 
ATOM     13  C   UNL     1      11.352  11.914  18.369  0.00  0.00    +0.000 C 
ATOM     14  C   UNL     1      10.756  13.317  18.169  0.00  0.00    +0.000 C 
ATOM     15  C   UNL     1      10.449  10.870  17.692  0.00  0.00    +0.000 C 
ATOM     16  C   UNL     1       9.125  10.641  19.828  0.00  0.00    +0.000 C 
ENDBRANCH   4   7
BRANCH   1  22
ATOM     17  C   UNL     1       3.685   4.362  17.522  0.00  0.00    +0.000 C 
ATOM     18  O   UNL     1       3.524   3.615  16.565  0.00  0.00    +0.000 OA
ATOM     19  N   UNL     1       4.627   5.386  17.517  0.00  0.00    +0.000 N 
ATOM     20  C   UNL     1       5.369   5.652  16.287  0.00  0.00    +0.000 C 
ATOM     21  C   UNL     1       6.855   5.417  16.507  0.00  0.00    +0.000 C 
ATOM     22  C   UNL     1       7.370   6.292  17.657  0.00  0.00    +0.000 C 
ATOM     23  C   UNL     1       6.554   6.009  18.926  0.00  0.00    +0.000 C 
ATOM     24  C   UNL     1       5.052   6.165  18.690  0.00  0.00    +0.000 C 
BRANCH  17  25
ATOM     25  C   UNL     1       2.823   4.245  18.760  0.00  0.00    +0.000 C 
BRANCH  25  26
ATOM     26  C   UNL     1       2.724   2.804  19.246  0.00  0.00    +0.000 C 
BRANCH  26  27
ATOM     27  C   UNL     1       3.758   2.536  20.311  0.00  0.00    +0.000 C 
ATOM     28  O   UNL     1       4.946   2.338  20.098  0.00  0.00    +0.000 OA
BRANCH  27  30
ATOM     29  C   UNL     1       1.742   2.534  21.494  0.00  0.00    +0.000 C 
ATOM     30  O   UNL     1       3.172   2.544  21.538  0.00  0.00    +0.000 OA
ENDBRANCH  27  30
ENDBRANCH  26  27
ENDBRANCH  25  26
ENDBRANCH  17  25
ENDBRANCH   1  22
TORSDOF 6
ENDMDL
MODEL 3
REMARK VINA RESULT:      -8.1      1.111      1.306
REMARK  Name = 
REMARK  7 active torsions:
REMARK  status: ('A' for Active; 'I' for Inactive)
REMARK    1  A    between atoms: C_1  and  O_2
REMARK    2  A    between atoms: O_2  and  C_3
REMARK    3  A    between atoms: C_3  and  C_5
REMARK    4  A    between atoms: C_5  and  C_6
REMARK    5  A    between atoms: C_6  and  C_7
REMARK    6  A    between atoms: C_12  and  N_13
REMARK    7  A    between atoms: N_16  and  C_17
REMARK                            x       y       z     vdW  Elec       q    Type
REMARK                         _______ _______ _______ _____ _____    ______ ____
ROOT
ATOM      1  N   UNL     1       7.411   7.907  17.401  0.00  0.00    +0.000 N 
ATOM      2  C   UNL     1       8.272   8.726  18.084  0.00  0.00    +0.000 C 
ATOM      3  O   UNL     1       9.063   8.291  18.906  0.00  0.00    +0.000 OA
ATOM      4  N   UNL     1       8.156  10.057  17.752  0.00  0.00    +0.000 N 
ATOM      5  H   UNL     1       6.526   8.333  17.163  0.00  0.00    +0.000 HD
ATOM      6  H   UNL     1       7.835  10.228  16.805  0.00  0.00    +0.000 HD
ENDROOT
BRANCH   4   7
ATOM      7  C   UNL     1       9.048  11.075  18.349  0.00  0.00    +0.000 C 
ATOM      8  C   UNL     1       9.215  10.872  19.879  0.00  0.00    +0.000 C 
ATOM      9  C   UNL     1      10.148  11.937  20.484  0.00  0.00    +0.000 C 
ATOM     10  C   UNL     1      11.531  11.839  19.825  0.00  0.00    +0.000 C 
ATOM     11  C   UNL     1      11.403  12.072  18.311  0.00  0.00    +0.000 C 
ATOM     12  C   UNL     1      10.801  13.462  18.043  0.00  0.00    +0.000 C 
ATOM     13  C   UNL     1       9.423  13.572  18.707  0.00  0.00    +0.000 C 
ATOM     14  C   UNL     1       9.572  13.338  20.220  0.00  0.00    +0.000 C 
ATOM     15  C   UNL     1       8.488  12.505  18.112  0.00  0.00    +0.000 C 
ATOM     16  C   UNL     1      10.472  11.000  17.711  0.00  0.00    +0.000 C 
ENDBRANCH   4   7
BRANCH   1  22
ATOM     17  C   UNL     1       4.010   4.259  16.804  0.00  0.00    +0.000 C 
ATOM     18  O   UNL     1       4.102   3.539  15.819  0.00  0.00    +0.000 OA
ATOM     19  N   UNL     1       4.846   5.353  17.007  0.00  0.00    +0.000 N 
ATOM     20  C   UNL     1       5.790   5.721  15.955  0.00  0.00    +0.000 C 
ATOM     21  C   UNL     1       7.218   5.594  16.461  0.00  0.00    +0.000 C 
ATOM     22  C   UNL     1       7.423   6.463  17.707  0.00  0.00    +0.000 C 
ATOM     23  C   UNL     1       6.400   6.071  18.783  0.00  0.00    +0.000 C 
ATOM     24  C   UNL     1       4.966   6.119  18.257  0.00  0.00    +0.000 C 
BRANCH  17  25
ATOM     25  C   UNL     1       2.934   4.031  17.844  0.00  0.00    +0.000 C 
BRANCH  25  26
ATOM     26  C   UNL     1       2.433   2.592  17.830  0.00  0.00    +0.000 C 
BRANCH  26  27
ATOM     27  C   UNL     1       1.424   2.376  18.931  0.00  0.00    +0.000 C 
ATOM     28  O   UNL     1       0.215   2.295  18.766  0.00  0.00    +0.000 OA
BRANCH  27  30
ATOM     29  C   UNL     1       1.441   3.058  21.166  0.00  0.00    +0.000 C 
ATOM     30  O   UNL     1       2.058   2.288  20.130  0.00  0.00    +0.000 OA
ENDBRANCH  27  30
ENDBRANCH  26  27
ENDBRANCH  25  26
ENDBRANCH  17  25
ENDBRANCH   1  22
TORSDOF 6
ENDMDL
MODEL 4
REMARK VINA RESULT:      -8.0      1.137      1.843
REMARK  Name = 
REMARK  7 active torsions:
REMARK  status: ('A' for Active; 'I' for Inactive)
REMARK    1  A    between atoms: C_1  and  O_2
REMARK    2  A    between atoms: O_2  and  C_3
REMARK    3  A    between atoms: C_3  and  C_5
REMARK    4  A    between atoms: C_5  and  C_6
REMARK    5  A    between atoms: C_6  and  C_7
REMARK    6  A    between atoms: C_12  and  N_13
REMARK    7  A    between atoms: N_16  and  C_17
REMARK                            x       y       z     vdW  Elec       q    Type
REMARK                         _______ _______ _______ _____ _____    ______ ____
ROOT
ATOM      1  N   UNL     1       7.477   7.868  17.248  0.00  0.00    +0.000 N 
ATOM      2  C   UNL     1       8.271   8.688  18.007  0.00  0.00    +0.000 C 
ATOM      3  O   UNL     1       8.942   8.262  18.934  0.00  0.00    +0.000 OA
ATOM      4  N   UNL     1       8.233  10.010  17.624  0.00  0.00    +0.000 N 
ATOM      5  H   UNL     1       6.641   8.307  16.888  0.00  0.00    +0.000 HD
ATOM      6  H   UNL     1       8.036  10.157  16.640  0.00  0.00    +0.000 HD
ENDROOT
BRANCH   4   7
ATOM      7  C   UNL     1       9.073  11.026  18.296  0.00  0.00    +0.000 C 
ATOM      8  C   UNL     1       8.511  12.461  18.102  0.00  0.00    +0.000 C 
ATOM      9  C   UNL     1       9.395  13.505  18.810  0.00  0.00    +0.000 C 
ATOM     10  C   UNL     1       9.443  13.198  20.313  0.00  0.00    +0.000 C 
ATOM     11  C   UNL     1      10.030  11.796  20.539  0.00  0.00    +0.000 C 
ATOM     12  C   UNL     1      11.449  11.719  19.950  0.00  0.00    +0.000 C 
ATOM     13  C   UNL     1      11.410  12.034  18.449  0.00  0.00    +0.000 C 
ATOM     14  C   UNL     1      10.823  13.441  18.244  0.00  0.00    +0.000 C 
ATOM     15  C   UNL     1      10.523  10.998  17.738  0.00  0.00    +0.000 C 
ATOM     16  C   UNL     1       9.138  10.755  19.832  0.00  0.00    +0.000 C 
ENDBRANCH   4   7
BRANCH   1  22
ATOM     17  C   UNL     1       3.775   4.479  17.084  0.00  0.00    +0.000 C 
ATOM     18  O   UNL     1       3.718   3.730  16.117  0.00  0.00    +0.000 OA
ATOM     19  N   UNL     1       4.705   5.509  17.174  0.00  0.00    +0.000 N 
ATOM     20  C   UNL     1       5.569   5.779  16.028  0.00  0.00    +0.000 C 
ATOM     21  C   UNL     1       7.025   5.554  16.401  0.00  0.00    +0.000 C 
ATOM     22  C   UNL     1       7.412   6.435  17.596  0.00  0.00    +0.000 C 
ATOM     23  C   UNL     1       6.470   6.148  18.774  0.00  0.00    +0.000 C 
ATOM     24  C   UNL     1       5.000   6.293  18.383  0.00  0.00    +0.000 C 
BRANCH  17  25
ATOM     25  C   UNL     1       2.789   4.358  18.226  0.00  0.00    +0.000 C 
BRANCH  25  26
ATOM     26  C   UNL     1       2.513   2.903  18.582  0.00  0.00    +0.000 C 
BRANCH  26  27
ATOM     27  C   UNL     1       1.118   2.752  19.137  0.00  0.00    +0.000 C 
ATOM     28  O   UNL     1       0.205   2.158  18.580  0.00  0.00    +0.000 OA
BRANCH  27  30
ATOM     29  C   UNL     1       1.640   2.649  21.412  0.00  0.00    +0.000 C 
ATOM     30  O   UNL     1       1.028   3.374  20.342  0.00  0.00    +0.000 OA
ENDBRANCH  27  30
ENDBRANCH  26  27
ENDBRANCH  25  26
ENDBRANCH  17  25
ENDBRANCH   1  22
TORSDOF 6
ENDMDL
MODEL 5
REMARK VINA RESULT:      -8.0      1.107      1.921
REMARK  Name = 
REMARK  7 active torsions:
REMARK  status: ('A' for Active; 'I' for Inactive)
REMARK    1  A    between atoms: C_1  and  O_2
REMARK    2  A    between atoms: O_2  and  C_3
REMARK    3  A    between atoms: C_3  and  C_5
REMARK    4  A    between atoms: C_5  and  C_6
REMARK    5  A    between atoms: C_6  and  C_7
REMARK    6  A    between atoms: C_12  and  N_13
REMARK    7  A    between atoms: N_16  and  C_17
REMARK                            x       y       z     vdW  Elec       q    Type
REMARK                         _______ _______ _______ _____ _____    ______ ____
ROOT
ATOM      1  N   UNL     1       7.414   7.865  17.390  0.00  0.00    +0.000 N 
ATOM      2  C   UNL     1       8.269   8.684  18.082  0.00  0.00    +0.000 C 
ATOM      3  O   UNL     1       9.055   8.248  18.909  0.00  0.00    +0.000 OA
ATOM      4  N   UNL     1       8.152  10.016  17.753  0.00  0.00    +0.000 N 
ATOM      5  H   UNL     1       6.530   8.290  17.146  0.00  0.00    +0.000 HD
ATOM      6  H   UNL     1       7.838  10.189  16.805  0.00  0.00    +0.000 HD
ENDROOT
BRANCH   4   7
ATOM      7  C   UNL     1       9.037  11.034  18.360  0.00  0.00    +0.000 C 
ATOM      8  C   UNL     1      10.461  11.007  17.739  0.00  0.00    +0.000 C 
ATOM      9  C   UNL     1      11.367  12.074  18.379  0.00  0.00    +0.000 C 
ATOM     10  C   UNL     1      10.761  13.465  18.149  0.00  0.00    +0.000 C 
ATOM     11  C   UNL     1       9.364  13.534  18.786  0.00  0.00    +0.000 C 
ATOM     12  C   UNL     1       9.460  13.256  20.296  0.00  0.00    +0.000 C 
ATOM     13  C   UNL     1      10.075  11.871  20.533  0.00  0.00    +0.000 C 
ATOM     14  C   UNL     1      11.472  11.822  19.892  0.00  0.00    +0.000 C 
ATOM     15  C   UNL     1       9.177  10.801  19.890  0.00  0.00    +0.000 C 
ATOM     16  C   UNL     1       8.459  12.468  18.137  0.00  0.00    +0.000 C 
ENDBRANCH   4   7
BRANCH   1  22
ATOM     17  C   UNL     1       4.002   4.224  16.818  0.00  0.00    +0.000 C 
ATOM     18  O   UNL     1       4.082   3.507  15.829  0.00  0.00    +0.000 OA
ATOM     19  N   UNL     1       4.842   5.316  17.015  0.00  0.00    +0.000 N 
ATOM     20  C   UNL     1       5.775   5.686  15.955  0.00  0.00    +0.000 C 
ATOM     21  C   UNL     1       7.208   5.555  16.444  0.00  0.00    +0.000 C 
ATOM     22  C   UNL     1       7.428   6.420  17.692  0.00  0.00    +0.000 C 
ATOM     23  C   UNL     1       6.416   6.026  18.777  0.00  0.00    +0.000 C 
ATOM     24  C   UNL     1       4.976   6.078  18.266  0.00  0.00    +0.000 C 
BRANCH  17  25
ATOM     25  C   UNL     1       2.937   3.994  17.868  0.00  0.00    +0.000 C 
BRANCH  25  26
ATOM     26  C   UNL     1       2.502   2.535  17.920  0.00  0.00    +0.000 C 
BRANCH  26  27
ATOM     27  C   UNL     1       1.418   2.345  18.951  0.00  0.00    +0.000 C 
ATOM     28  O   UNL     1       0.220   2.298  18.706  0.00  0.00    +0.000 OA
BRANCH  27  30
ATOM     29  C   UNL     1       1.374   3.101  21.162  0.00  0.00    +0.000 C 
ATOM     30  O   UNL     1       1.969   2.237  20.189  0.00  0.00    +0.000 OA
ENDBRANCH  27  30
ENDBRANCH  26  27
ENDBRANCH  25  26
ENDBRANCH  17  25
ENDBRANCH   1  22
TORSDOF 6
ENDMDL
MODEL 6
REMARK VINA RESULT:      -8.0      1.403      2.231
REMARK  Name = 
REMARK  7 active torsions:
REMARK  status: ('A' for Active; 'I' for Inactive)
REMARK    1  A    between atoms: C_1  and  O_2
REMARK    2  A    between atoms: O_2  and  C_3
REMARK    3  A    between atoms: C_3  and  C_5
REMARK    4  A    between atoms: C_5  and  C_6
REMARK    5  A    between atoms: C_6  and  C_7
REMARK    6  A    between atoms: C_12  and  N_13
REMARK    7  A    between atoms: N_16  and  C_17
REMARK                            x       y       z     vdW  Elec       q    Type
REMARK                         _______ _______ _______ _____ _____    ______ ____
ROOT
ATOM      1  N   UNL     1       7.419   7.899  17.381  0.00  0.00    +0.000 N 
ATOM      2  C   UNL     1       8.271   8.717  18.076  0.00  0.00    +0.000 C 
ATOM      3  O   UNL     1       9.039   8.284  18.921  0.00  0.00    +0.000 OA
ATOM      4  N   UNL     1       8.174  10.046  17.729  0.00  0.00    +0.000 N 
ATOM      5  H   UNL     1       6.544   8.329  17.118  0.00  0.00    +0.000 HD
ATOM      6  H   UNL     1       7.876  10.210  16.774  0.00  0.00    +0.000 HD
ENDROOT
BRANCH   4   7
ATOM      7  C   UNL     1       9.060  11.063  18.337  0.00  0.00    +0.000 C 
ATOM      8  C   UNL     1      10.486  11.028  17.724  0.00  0.00    +0.000 C 
ATOM      9  C   UNL     1      11.394  12.093  18.365  0.00  0.00    +0.000 C 
ATOM     10  C   UNL     1      10.795  13.486  18.127  0.00  0.00    +0.000 C 
ATOM     11  C   UNL     1       9.395  13.563  18.756  0.00  0.00    +0.000 C 
ATOM     12  C   UNL     1       9.482  13.289  20.268  0.00  0.00    +0.000 C 
ATOM     13  C   UNL     1      10.090  11.903  20.513  0.00  0.00    +0.000 C 
ATOM     14  C   UNL     1      11.490  11.846  19.880  0.00  0.00    +0.000 C 
ATOM     15  C   UNL     1       9.190  10.834  19.869  0.00  0.00    +0.000 C 
ATOM     16  C   UNL     1       8.489  12.498  18.106  0.00  0.00    +0.000 C 
ENDBRANCH   4   7
BRANCH   1  22
ATOM     17  C   UNL     1       3.996   4.276  16.757  0.00  0.00    +0.000 C 
ATOM     18  O   UNL     1       4.099   3.546  15.780  0.00  0.00    +0.000 OA
ATOM     19  N   UNL     1       4.839   5.364  16.965  0.00  0.00    +0.000 N 
ATOM     20  C   UNL     1       5.805   5.714  15.927  0.00  0.00    +0.000 C 
ATOM     21  C   UNL     1       7.222   5.578  16.459  0.00  0.00    +0.000 C 
ATOM     22  C   UNL     1       7.413   6.458  17.701  0.00  0.00    +0.000 C 
ATOM     23  C   UNL     1       6.367   6.085  18.762  0.00  0.00    +0.000 C 
ATOM     24  C   UNL     1       4.943   6.141  18.210  0.00  0.00    +0.000 C 
BRANCH  17  25
ATOM     25  C   UNL     1       2.900   4.068  17.779  0.00  0.00    +0.000 C 
BRANCH  25  26
ATOM     26  C   UNL     1       3.025   2.717  18.472  0.00  0.00    +0.000 C 
BRANCH  26  27
ATOM     27  C   UNL     1       3.735   2.867  19.794  0.00  0.00    +0.000 C 
ATOM     28  O   UNL     1       4.831   2.392  20.056  0.00  0.00    +0.000 OA
BRANCH  27  30
ATOM     29  C   UNL     1       2.222   2.817  21.574  0.00  0.00    +0.000 C 
ATOM     30  O   UNL     1       2.977   3.604  20.647  0.00  0.00    +0.000 OA
ENDBRANCH  27  30
ENDBRANCH  26  27
ENDBRANCH  25  26
ENDBRANCH  17  25
ENDBRANCH   1  22
TORSDOF 6
ENDMDL
MODEL 7
REMARK VINA RESULT:      -7.8      1.373      2.042
REMARK  Name = 
REMARK  7 active torsions:
REMARK  status: ('A' for Active; 'I' for Inactive)
REMARK    1  A    between atoms: C_1  and  O_2
REMARK    2  A    between atoms: O_2  and  C_3
REMARK    3  A    between atoms: C_3  and  C_5
REMARK    4  A    between atoms: C_5  and  C_6
REMARK    5  A    between atoms: C_6  and  C_7
REMARK    6  A    between atoms: C_12  and  N_13
REMARK    7  A    between atoms: N_16  and  C_17
REMARK                            x       y       z     vdW  Elec       q    Type
REMARK                         _______ _______ _______ _____ _____    ______ ____
ROOT
ATOM      1  N   UNL     1       7.368   7.940  17.351  0.00  0.00    +0.000 N 
ATOM      2  C   UNL     1       8.267   8.732  18.017  0.00  0.00    +0.000 C 
ATOM      3  O   UNL     1       9.171   8.260  18.689  0.00  0.00    +0.000 OA
ATOM      4  N   UNL     1       8.049  10.081  17.852  0.00  0.00    +0.000 N 
ATOM      5  H   UNL     1       6.442   8.335  17.265  0.00  0.00    +0.000 HD
ATOM      6  H   UNL     1       7.608  10.332  16.974  0.00  0.00    +0.000 HD
ENDROOT
BRANCH   4   7
ATOM      7  C   UNL     1       8.959  11.082  18.452  0.00  0.00    +0.000 C 
ATOM      8  C   UNL     1       8.393  12.523  18.332  0.00  0.00    +0.000 C 
ATOM      9  C   UNL     1       9.350  13.551  18.964  0.00  0.00    +0.000 C 
ATOM     10  C   UNL     1       9.542  13.224  20.450  0.00  0.00    +0.000 C 
ATOM     11  C   UNL     1      10.136  11.815  20.600  0.00  0.00    +0.000 C 
ATOM     12  C   UNL     1      11.490  11.736  19.875  0.00  0.00    +0.000 C 
ATOM     13  C   UNL     1      11.308  12.071  18.390  0.00  0.00    +0.000 C 
ATOM     14  C   UNL     1      10.716  13.485  18.261  0.00  0.00    +0.000 C 
ATOM     15  C   UNL     1      10.348  11.052  17.755  0.00  0.00    +0.000 C 
ATOM     16  C   UNL     1       9.171  10.790  19.971  0.00  0.00    +0.000 C 
ENDBRANCH   4   7
BRANCH   1  22
ATOM     17  C   UNL     1       3.980   4.232  17.394  0.00  0.00    +0.000 C 
ATOM     18  O   UNL     1       3.786   3.613  16.356  0.00  0.00    +0.000 OA
ATOM     19  N   UNL     1       4.827   5.334  17.457  0.00  0.00    +0.000 N 
ATOM     20  C   UNL     1       5.418   5.838  16.220  0.00  0.00    +0.000 C 
ATOM     21  C   UNL     1       6.932   5.721  16.274  0.00  0.00    +0.000 C 
ATOM     22  C   UNL     1       7.484   6.475  17.490  0.00  0.00    +0.000 C 
ATOM     23  C   UNL     1       6.825   5.941  18.770  0.00  0.00    +0.000 C 
ATOM     24  C   UNL     1       5.299   5.982  18.691  0.00  0.00    +0.000 C 
BRANCH  17  25
ATOM     25  C   UNL     1       3.258   3.863  18.672  0.00  0.00    +0.000 C 
BRANCH  25  26
ATOM     26  C   UNL     1       1.859   4.465  18.724  0.00  0.00    +0.000 C 
BRANCH  26  27
ATOM     27  C   UNL     1       1.417   4.647  20.154  0.00  0.00    +0.000 C 
ATOM     28  O   UNL     1       1.594   5.660  20.817  0.00  0.00    +0.000 OA
BRANCH  27  30
ATOM     29  C   UNL     1       1.528   2.822  21.610  0.00  0.00    +0.000 C 
ATOM     30  O   UNL     1       0.798   3.521  20.596  0.00  0.00    +0.000 OA
ENDBRANCH  27  30
ENDBRANCH  26  27
ENDBRANCH  25  26
ENDBRANCH  17  25
ENDBRANCH   1  22
TORSDOF 6
ENDMDL
MODEL 8
REMARK VINA RESULT:      -7.8      0.599      1.748
REMARK  Name = 
REMARK  7 active torsions:
REMARK  status: ('A' for Active; 'I' for Inactive)
REMARK    1  A    between atoms: C_1  and  O_2
REMARK    2  A    between atoms: O_2  and  C_3
REMARK    3  A    between atoms: C_3  and  C_5
REMARK    4  A    between atoms: C_5  and  C_6
REMARK    5  A    between atoms: C_6  and  C_7
REMARK    6  A    between atoms: C_12  and  N_13
REMARK    7  A    between atoms: N_16  and  C_17
REMARK                            x       y       z     vdW  Elec       q    Type
REMARK                         _______ _______ _______ _____ _____    ______ ____
ROOT
ATOM      1  N   UNL     1       7.966   7.343  18.376  0.00  0.00    +0.000 N 
ATOM      2  C   UNL     1       8.359   8.628  18.106  0.00  0.00    +0.000 C 
ATOM      3  O   UNL     1       8.195   9.137  17.008  0.00  0.00    +0.000 OA
ATOM      4  N   UNL     1       8.942   9.269  19.176  0.00  0.00    +0.000 N 
ATOM      5  H   UNL     1       8.543   6.860  19.051  0.00  0.00    +0.000 HD
ATOM      6  H   UNL     1       8.623   8.948  20.083  0.00  0.00    +0.000 HD
ENDROOT
BRANCH   4   7
ATOM      7  C   UNL     1       9.373  10.681  19.079  0.00  0.00    +0.000 C 
ATOM      8  C   UNL     1       8.425  11.514  18.173  0.00  0.00    +0.000 C 
ATOM      9  C   UNL     1       8.886  12.981  18.087  0.00  0.00    +0.000 C 
ATOM     10  C   UNL     1       8.887  13.600  19.491  0.00  0.00    +0.000 C 
ATOM     11  C   UNL     1       9.846  12.817  20.403  0.00  0.00    +0.000 C 
ATOM     12  C   UNL     1      11.270  12.852  19.821  0.00  0.00    +0.000 C 
ATOM     13  C   UNL     1      11.274  12.244  18.413  0.00  0.00    +0.000 C 
ATOM     14  C   UNL     1      10.312  13.041  17.516  0.00  0.00    +0.000 C 
ATOM     15  C   UNL     1      10.808  10.780  18.493  0.00  0.00    +0.000 C 
ATOM     16  C   UNL     1       9.377  11.351  20.490  0.00  0.00    +0.000 C 
ENDBRANCH   4   7
BRANCH   1  22
ATOM     17  C   UNL     1       3.968   4.310  18.172  0.00  0.00    +0.000 C 
ATOM     18  O   UNL     1       2.917   4.766  17.741  0.00  0.00    +0.000 OA
ATOM     19  N   UNL     1       5.102   5.095  18.355  0.00  0.00    +0.000 N 
ATOM     20  C   UNL     1       5.002   6.535  18.132  0.00  0.00    +0.000 C 
ATOM     21  C   UNL     1       5.915   6.957  16.992  0.00  0.00    +0.000 C 
ATOM     22  C   UNL     1       7.363   6.548  17.288  0.00  0.00    +0.000 C 
ATOM     23  C   UNL     1       7.430   5.036  17.543  0.00  0.00    +0.000 C 
ATOM     24  C   UNL     1       6.456   4.593  18.634  0.00  0.00    +0.000 C 
BRANCH  17  25
ATOM     25  C   UNL     1       4.080   2.859  18.586  0.00  0.00    +0.000 C 
BRANCH  25  26
ATOM     26  C   UNL     1       3.809   2.673  20.074  0.00  0.00    +0.000 C 
BRANCH  26  27
ATOM     27  C   UNL     1       2.325   2.633  20.339  0.00  0.00    +0.000 C 
ATOM     28  O   UNL     1       1.761   3.225  21.249  0.00  0.00    +0.000 OA
BRANCH  27  30
ATOM     29  C   UNL     1       0.541   2.430  18.843  0.00  0.00    +0.000 C 
ATOM     30  O   UNL     1       1.711   1.842  19.420  0.00  0.00    +0.000 OA
ENDBRANCH  27  30
ENDBRANCH  26  27
ENDBRANCH  25  26
ENDBRANCH  17  25
ENDBRANCH   1  22
TORSDOF 6
ENDMDL
MODEL 9
REMARK VINA RESULT:      -7.7      6.993      9.704
REMARK  Name = 
REMARK  7 active torsions:
REMARK  status: ('A' for Active; 'I' for Inactive)
REMARK    1  A    between atoms: C_1  and  O_2
REMARK    2  A    between atoms: O_2  and  C_3
REMARK    3  A    between atoms: C_3  and  C_5
REMARK    4  A    between atoms: C_5  and  C_6
REMARK    5  A    between atoms: C_6  and  C_7
REMARK    6  A    between atoms: C_12  and  N_13
REMARK    7  A    between atoms: N_16  and  C_17
REMARK                            x       y       z     vdW  Elec       q    Type
REMARK                         _______ _______ _______ _____ _____    ______ ____
ROOT
ATOM      1  N   UNL     1       1.424   9.040  19.118  0.00  0.00    +0.000 N 
ATOM      2  C   UNL     1       2.174   8.119  18.435  0.00  0.00    +0.000 C 
ATOM      3  O   UNL     1       2.539   8.308  17.284  0.00  0.00    +0.000 OA
ATOM      4  N   UNL     1       2.467   6.988  19.163  0.00  0.00    +0.000 N 
ATOM      5  H   UNL     1       0.781   8.644  19.790  0.00  0.00    +0.000 HD
ATOM      6  H   UNL     1       2.517   7.135  20.165  0.00  0.00    +0.000 HD
ENDROOT
BRANCH   4   7
ATOM      7  C   UNL     1       3.317   5.915  18.601  0.00  0.00    +0.000 C 
ATOM      8  C   UNL     1       4.404   6.479  17.645  0.00  0.00    +0.000 C 
ATOM      9  C   UNL     1       5.281   5.351  17.073  0.00  0.00    +0.000 C 
ATOM     10  C   UNL     1       5.979   4.612  18.222  0.00  0.00    +0.000 C 
ATOM     11  C   UNL     1       4.927   4.011  19.168  0.00  0.00    +0.000 C 
ATOM     12  C   UNL     1       4.025   3.031  18.396  0.00  0.00    +0.000 C 
ATOM     13  C   UNL     1       3.332   3.760  17.239  0.00  0.00    +0.000 C 
ATOM     14  C   UNL     1       4.400   4.352  16.303  0.00  0.00    +0.000 C 
ATOM     15  C   UNL     1       2.459   4.893  17.804  0.00  0.00    +0.000 C 
ATOM     16  C   UNL     1       4.056   5.146  19.742  0.00  0.00    +0.000 C 
ENDBRANCH   4   7
BRANCH   1  22
ATOM     17  C   UNL     1      -1.962  12.601  20.157  0.00  0.00    +0.000 C 
ATOM     18  O   UNL     1      -1.573  13.631  20.693  0.00  0.00    +0.000 OA
ATOM     19  N   UNL     1      -1.118  11.522  19.917  0.00  0.00    +0.000 N 
ATOM     20  C   UNL     1       0.252  11.575  20.421  0.00  0.00    +0.000 C 
ATOM     21  C   UNL     1       1.240  11.534  19.267  0.00  0.00    +0.000 C 
ATOM     22  C   UNL     1       1.019  10.275  18.419  0.00  0.00    +0.000 C 
ATOM     23  C   UNL     1      -0.434  10.235  17.927  0.00  0.00    +0.000 C 
ATOM     24  C   UNL     1      -1.435  10.357  19.076  0.00  0.00    +0.000 C 
BRANCH  17  25
ATOM     25  C   UNL     1      -3.414  12.420  19.771  0.00  0.00    +0.000 C 
BRANCH  25  26
ATOM     26  C   UNL     1      -4.334  13.312  20.597  0.00  0.00    +0.000 C 
BRANCH  26  27
ATOM     27  C   UNL     1      -5.168  12.479  21.538  0.00  0.00    +0.000 C 
ATOM     28  O   UNL     1      -6.180  11.869  21.222  0.00  0.00    +0.000 OA
BRANCH  27  30
ATOM     29  C   UNL     1      -4.171  13.807  23.182  0.00  0.00    +0.000 C 
ATOM     30  O   UNL     1      -4.630  12.511  22.786  0.00  0.00    +0.000 OA
ENDBRANCH  27  30
ENDBRANCH  26  27
ENDBRANCH  25  26
ENDBRANCH  17  25
ENDBRANCH   1  22
TORSDOF 6
ENDMDL
