MODEL 1
REMARK VINA RESULT:      -8.7      0.000      0.000
REMARK  Name = 
REMARK  10 active torsions:
REMARK  status: ('A' for Active; 'I' for Inactive)
REMARK    1  A    between atoms: C_1  and  C_2
REMARK    2  A    between atoms: C_2  and  C_3
REMARK    3  A    between atoms: C_3  and  O_4
REMARK    4  A    between atoms: O_4  and  C_5
REMARK    5  A    between atoms: C_11  and  C_12
REMARK    6  A    between atoms: C_12  and  C_14
REMARK    7  A    between atoms: C_17  and  O_18
REMARK    8  A    between atoms: O_18  and  C_19
REMARK    9  A    between atoms: N_23  and  C_24
REMARK   10  A    between atoms: C_24  and  C_25
REMARK                            x       y       z     vdW  Elec       q    Type
REMARK                         _______ _______ _______ _____ _____    ______ ____
ROOT
ATOM      1  C   UNL     1       6.510   6.304  17.233  0.00  0.00    +0.000 A 
ATOM      2  C   UNL     1       6.449   4.911  17.233  0.00  0.00    +0.000 A 
ATOM      3  C   UNL     1       5.244   4.234  17.401  0.00  0.00    +0.000 A 
ATOM      4  C   UNL     1       4.079   4.982  17.607  0.00  0.00    +0.000 A 
ATOM      5  C   UNL     1       4.093   6.383  17.631  0.00  0.00    +0.000 A 
ATOM      6  C   UNL     1       5.336   7.046  17.436  0.00  0.00    +0.000 A 
ATOM      7  C   UNL     1       2.746   6.814  17.866  0.00  0.00    +0.000 A 
ATOM      8  C   UNL     1       1.967   5.671  17.918  0.00  0.00    +0.000 A 
ATOM      9  N   UNL     1       2.777   4.576  17.801  0.00  0.00    +0.000 N 
ENDROOT
BRANCH   7  10
ATOM     10  C   UNL     1       2.248   8.186  17.989  0.00  0.00    +0.000 C 
ATOM     11  O   UNL     1       2.207   8.961  17.041  0.00  0.00    +0.000 OA
BRANCH  10  12
ATOM     12  C   UNL     1       1.785   8.658  19.329  0.00  0.00    +0.000 A 
ATOM     13  C   UNL     1       1.850   7.792  20.426  0.00  0.00    +0.000 A 
ATOM     14  C   UNL     1       1.392   8.218  21.679  0.00  0.00    +0.000 A 
ATOM     15  C   UNL     1       0.879   9.507  21.853  0.00  0.00    +0.000 A 
ATOM     16  C   UNL     1       0.803  10.366  20.759  0.00  0.00    +0.000 A 
ATOM     17  C   UNL     1       1.239   9.938  19.501  0.00  0.00    +0.000 A 
BRANCH  15  18
ATOM     18  O   UNL     1       0.422   9.791  23.110  0.00  0.00    +0.000 OA
ATOM     19  C   UNL     1      -0.905  10.299  23.200  0.00  0.00    +0.000 C 
ENDBRANCH  15  18
ENDBRANCH  10  12
ENDBRANCH   7  10
BRANCH   1  20
ATOM     20  O   UNL     1       7.666   7.030  17.038  0.00  0.00    +0.000 OA
BRANCH  20  21
ATOM     21  C   UNL     1       8.094   7.788  18.175  0.00  0.00    +0.000 C 
BRANCH  21  23
ATOM     22  C   UNL     1       9.082   9.960  18.895  0.00  0.00    +0.000 C 
ATOM     23  C   UNL     1       8.211   9.271  17.852  0.00  0.00    +0.000 C 
ENDBRANCH  21  23
ENDBRANCH  20  21
ENDBRANCH   1  20
BRANCH   9  24
ATOM     24  C   UNL     1       2.283   3.209  17.742  0.00  0.00    +0.000 C 
BRANCH  24  25
ATOM     25  C   UNL     1       2.097   2.494  19.101  0.00  0.00    +0.000 C 
ATOM     26  C   UNL     1       1.007   3.165  19.954  0.00  0.00    +0.000 C 
ATOM     27  C   UNL     1       1.126   2.890  21.447  0.00  0.00    +0.000 C 
ATOM     28  O   UNL     1       2.452   3.148  21.896  0.00  0.00    +0.000 OA
ATOM     29  C   UNL     1       3.375   2.237  21.313  0.00  0.00    +0.000 C 
ATOM     30  C   UNL     1       3.464   2.464  19.813  0.00  0.00    +0.000 C 
ENDBRANCH  24  25
ENDBRANCH   9  24
TORSDOF 8
ENDMDL
MODEL 2
REMARK VINA RESULT:      -8.1      2.717      6.951
REMARK  Name = 
REMARK  10 active torsions:
REMARK  status: ('A' for Active; 'I' for Inactive)
REMARK    1  A    between atoms: C_1  and  C_2
REMARK    2  A    between atoms: C_2  and  C_3
REMARK    3  A    between atoms: C_3  and  O_4
REMARK    4  A    between atoms: O_4  and  C_5
REMARK    5  A    between atoms: C_11  and  C_12
REMARK    6  A    between atoms: C_12  and  C_14
REMARK    7  A    between atoms: C_17  and  O_18
REMARK    8  A    between atoms: O_18  and  C_19
REMARK    9  A    between atoms: N_23  and  C_24
REMARK   10  A    between atoms: C_24  and  C_25
REMARK                            x       y       z     vdW  Elec       q    Type
REMARK                         _______ _______ _______ _____ _____    ______ ____
ROOT
ATOM      1  C   UNL     1       2.894   7.925  17.966  0.00  0.00    +0.000 A 
ATOM      2  C   UNL     1       2.369   7.234  19.056  0.00  0.00    +0.000 A 
ATOM      3  C   UNL     1       2.958   6.064  19.530  0.00  0.00    +0.000 A 
ATOM      4  C   UNL     1       4.083   5.564  18.866  0.00  0.00    +0.000 A 
ATOM      5  C   UNL     1       4.638   6.215  17.756  0.00  0.00    +0.000 A 
ATOM      6  C   UNL     1       4.027   7.418  17.308  0.00  0.00    +0.000 A 
ATOM      7  C   UNL     1       5.763   5.436  17.329  0.00  0.00    +0.000 A 
ATOM      8  C   UNL     1       5.879   4.384  18.222  0.00  0.00    +0.000 A 
ATOM      9  N   UNL     1       4.847   4.445  19.117  0.00  0.00    +0.000 N 
ENDROOT
BRANCH   7  10
ATOM     10  C   UNL     1       6.661   5.694  16.202  0.00  0.00    +0.000 C 
ATOM     11  O   UNL     1       7.606   6.470  16.274  0.00  0.00    +0.000 OA
BRANCH  10  12
ATOM     12  C   UNL     1       6.402   4.989  14.910  0.00  0.00    +0.000 A 
ATOM     13  C   UNL     1       5.193   4.311  14.723  0.00  0.00    +0.000 A 
ATOM     14  C   UNL     1       4.955   3.625  13.526  0.00  0.00    +0.000 A 
ATOM     15  C   UNL     1       5.909   3.617  12.504  0.00  0.00    +0.000 A 
ATOM     16  C   UNL     1       7.119   4.281  12.693  0.00  0.00    +0.000 A 
ATOM     17  C   UNL     1       7.370   4.949  13.896  0.00  0.00    +0.000 A 
BRANCH  15  18
ATOM     18  O   UNL     1       5.582   2.876  11.402  0.00  0.00    +0.000 OA
ATOM     19  C   UNL     1       4.207   2.868  11.031  0.00  0.00    +0.000 C 
ENDBRANCH  15  18
ENDBRANCH  10  12
ENDBRANCH   7  10
BRANCH   1  20
ATOM     20  O   UNL     1       2.377   9.104  17.472  0.00  0.00    +0.000 OA
BRANCH  20  21
ATOM     21  C   UNL     1       1.108   9.475  18.020  0.00  0.00    +0.000 C 
BRANCH  21  23
ATOM     22  C   UNL     1       0.594  10.786  20.077  0.00  0.00    +0.000 C 
ATOM     23  C   UNL     1       1.155  10.855  18.662  0.00  0.00    +0.000 C 
ENDBRANCH  21  23
ENDBRANCH  20  21
ENDBRANCH   1  20
BRANCH   9  24
ATOM     24  C   UNL     1       4.700   3.536  20.242  0.00  0.00    +0.000 C 
BRANCH  24  25
ATOM     25  C   UNL     1       3.431   2.650  20.239  0.00  0.00    +0.000 C 
ATOM     26  C   UNL     1       2.814   2.544  18.833  0.00  0.00    +0.000 C 
ATOM     27  C   UNL     1       1.338   2.170  18.826  0.00  0.00    +0.000 C 
ATOM     28  O   UNL     1       0.609   3.008  19.716  0.00  0.00    +0.000 OA
ATOM     29  C   UNL     1       1.004   2.788  21.065  0.00  0.00    +0.000 C 
ATOM     30  C   UNL     1       2.443   3.229  21.271  0.00  0.00    +0.000 C 
ENDBRANCH  24  25
ENDBRANCH   9  24
TORSDOF 8
ENDMDL
MODEL 3
REMARK VINA RESULT:      -8.0      2.762      7.168
REMARK  Name = 
REMARK  10 active torsions:
REMARK  status: ('A' for Active; 'I' for Inactive)
REMARK    1  A    between atoms: C_1  and  C_2
REMARK    2  A    between atoms: C_2  and  C_3
REMARK    3  A    between atoms: C_3  and  O_4
REMARK    4  A    between atoms: O_4  and  C_5
REMARK    5  A    between atoms: C_11  and  C_12
REMARK    6  A    between atoms: C_12  and  C_14
REMARK    7  A    between atoms: C_17  and  O_18
REMARK    8  A    between atoms: O_18  and  C_19
REMARK    9  A    between atoms: N_23  and  C_24
REMARK   10  A    between atoms: C_24  and  C_25
REMARK                            x       y       z     vdW  Elec       q    Type
REMARK                         _______ _______ _______ _____ _____    ______ ____
ROOT
ATOM      1  C   UNL     1       2.844   7.943  17.882  0.00  0.00    +0.000 A 
ATOM      2  C   UNL     1       2.325   7.263  18.982  0.00  0.00    +0.000 A 
ATOM      3  C   UNL     1       2.927   6.108  19.475  0.00  0.00    +0.000 A 
ATOM      4  C   UNL     1       4.061   5.612  18.821  0.00  0.00    +0.000 A 
ATOM      5  C   UNL     1       4.609   6.252  17.701  0.00  0.00    +0.000 A 
ATOM      6  C   UNL     1       3.984   7.441  17.234  0.00  0.00    +0.000 A 
ATOM      7  C   UNL     1       5.744   5.481  17.289  0.00  0.00    +0.000 A 
ATOM      8  C   UNL     1       5.872   4.445  18.199  0.00  0.00    +0.000 A 
ATOM      9  N   UNL     1       4.837   4.506  19.090  0.00  0.00    +0.000 N 
ENDROOT
BRANCH   7  10
ATOM     10  C   UNL     1       6.641   5.732  16.159  0.00  0.00    +0.000 C 
ATOM     11  O   UNL     1       7.543   6.560  16.203  0.00  0.00    +0.000 OA
BRANCH  10  12
ATOM     12  C   UNL     1       6.436   4.954  14.901  0.00  0.00    +0.000 A 
ATOM     13  C   UNL     1       7.419   4.979  13.905  0.00  0.00    +0.000 A 
ATOM     14  C   UNL     1       7.222   4.275  12.711  0.00  0.00    +0.000 A 
ATOM     15  C   UNL     1       6.056   3.532  12.502  0.00  0.00    +0.000 A 
ATOM     16  C   UNL     1       5.071   3.515  13.488  0.00  0.00    +0.000 A 
ATOM     17  C   UNL     1       5.254   4.235  14.673  0.00  0.00    +0.000 A 
BRANCH  15  18
ATOM     18  O   UNL     1       5.957   2.925  11.282  0.00  0.00    +0.000 OA
ATOM     19  C   UNL     1       6.496   1.611  11.184  0.00  0.00    +0.000 C 
ENDBRANCH  15  18
ENDBRANCH  10  12
ENDBRANCH   7  10
BRANCH   1  20
ATOM     20  O   UNL     1       2.313   9.108  17.368  0.00  0.00    +0.000 OA
BRANCH  20  21
ATOM     21  C   UNL     1       1.616   9.917  18.321  0.00  0.00    +0.000 C 
BRANCH  21  23
ATOM     22  C   UNL     1      -0.615  10.248  19.381  0.00  0.00    +0.000 C 
ATOM     23  C   UNL     1       0.111   9.887  18.092  0.00  0.00    +0.000 C 
ENDBRANCH  21  23
ENDBRANCH  20  21
ENDBRANCH   1  20
BRANCH   9  24
ATOM     24  C   UNL     1       4.699   3.613  20.229  0.00  0.00    +0.000 C 
BRANCH  24  25
ATOM     25  C   UNL     1       3.466   2.679  20.215  0.00  0.00    +0.000 C 
ATOM     26  C   UNL     1       2.853   2.565  18.808  0.00  0.00    +0.000 C 
ATOM     27  C   UNL     1       1.393   2.134  18.796  0.00  0.00    +0.000 C 
ATOM     28  O   UNL     1       0.632   2.935  19.694  0.00  0.00    +0.000 OA
ATOM     29  C   UNL     1       1.035   2.715  21.040  0.00  0.00    +0.000 C 
ATOM     30  C   UNL     1       2.456   3.209  21.252  0.00  0.00    +0.000 C 
ENDBRANCH  24  25
ENDBRANCH   9  24
TORSDOF 8
ENDMDL
MODEL 4
REMARK VINA RESULT:      -7.9      0.878      1.337
REMARK  Name = 
REMARK  10 active torsions:
REMARK  status: ('A' for Active; 'I' for Inactive)
REMARK    1  A    between atoms: C_1  and  C_2
REMARK    2  A    between atoms: C_2  and  C_3
REMARK    3  A    between atoms: C_3  and  O_4
REMARK    4  A    between atoms: O_4  and  C_5
REMARK    5  A    between atoms: C_11  and  C_12
REMARK    6  A    between atoms: C_12  and  C_14
REMARK    7  A    between atoms: C_17  and  O_18
REMARK    8  A    between atoms: O_18  and  C_19
REMARK    9  A    between atoms: N_23  and  C_24
REMARK   10  A    between atoms: C_24  and  C_25
REMARK                            x       y       z     vdW  Elec       q    Type
REMARK                         _______ _______ _______ _____ _____    ______ ____
ROOT
ATOM      1  C   UNL     1       7.121   7.130  17.384  0.00  0.00    +0.000 A 
ATOM      2  C   UNL     1       7.333   5.753  17.359  0.00  0.00    +0.000 A 
ATOM      3  C   UNL     1       6.275   4.851  17.447  0.00  0.00    +0.000 A 
ATOM      4  C   UNL     1       4.978   5.353  17.595  0.00  0.00    +0.000 A 
ATOM      5  C   UNL     1       4.717   6.729  17.642  0.00  0.00    +0.000 A 
ATOM      6  C   UNL     1       5.815   7.625  17.529  0.00  0.00    +0.000 A 
ATOM      7  C   UNL     1       3.301   6.884  17.803  0.00  0.00    +0.000 A 
ATOM      8  C   UNL     1       2.759   5.610  17.792  0.00  0.00    +0.000 A 
ATOM      9  N   UNL     1       3.772   4.697  17.707  0.00  0.00    +0.000 N 
ENDROOT
BRANCH   7  10
ATOM     10  C   UNL     1       2.539   8.129  17.918  0.00  0.00    +0.000 C 
ATOM     11  O   UNL     1       2.548   8.992  17.048  0.00  0.00    +0.000 OA
BRANCH  10  12
ATOM     12  C   UNL     1       1.730   8.358  19.153  0.00  0.00    +0.000 A 
ATOM     13  C   UNL     1       0.841   9.438  19.207  0.00  0.00    +0.000 A 
ATOM     14  C   UNL     1       0.100   9.675  20.371  0.00  0.00    +0.000 A 
ATOM     15  C   UNL     1       0.227   8.836  21.483  0.00  0.00    +0.000 A 
ATOM     16  C   UNL     1       1.120   7.768  21.435  0.00  0.00    +0.000 A 
ATOM     17  C   UNL     1       1.878   7.540  20.283  0.00  0.00    +0.000 A 
BRANCH  15  18
ATOM     18  O   UNL     1      -0.513   9.195  22.574  0.00  0.00    +0.000 OA
ATOM     19  C   UNL     1      -0.586  10.589  22.859  0.00  0.00    +0.000 C 
ENDBRANCH  15  18
ENDBRANCH  10  12
ENDBRANCH   7  10
BRANCH   1  20
ATOM     20  O   UNL     1       8.122   8.072  17.268  0.00  0.00    +0.000 OA
BRANCH  20  21
ATOM     21  C   UNL     1       7.879   9.291  17.978  0.00  0.00    +0.000 C 
BRANCH  21  23
ATOM     22  C   UNL     1       9.061  11.486  18.006  0.00  0.00    +0.000 C 
ATOM     23  C   UNL     1       9.178  10.003  18.335  0.00  0.00    +0.000 C 
ENDBRANCH  21  23
ENDBRANCH  20  21
ENDBRANCH   1  20
BRANCH   9  24
ATOM     24  C   UNL     1       3.558   3.263  17.598  0.00  0.00    +0.000 C 
BRANCH  24  25
ATOM     25  C   UNL     1       2.753   2.606  18.745  0.00  0.00    +0.000 C 
ATOM     26  C   UNL     1       1.281   3.054  18.738  0.00  0.00    +0.000 C 
ATOM     27  C   UNL     1       0.577   2.904  20.079  0.00  0.00    +0.000 C 
ATOM     28  O   UNL     1       1.355   3.491  21.117  0.00  0.00    +0.000 OA
ATOM     29  C   UNL     1       2.577   2.787  21.300  0.00  0.00    +0.000 C 
ATOM     30  C   UNL     1       3.461   2.938  20.073  0.00  0.00    +0.000 C 
ENDBRANCH  24  25
ENDBRANCH   9  24
TORSDOF 8
ENDMDL
MODEL 5
REMARK VINA RESULT:      -7.5      2.182      3.257
REMARK  Name = 
REMARK  10 active torsions:
REMARK  status: ('A' for Active; 'I' for Inactive)
REMARK    1  A    between atoms: C_1  and  C_2
REMARK    2  A    between atoms: C_2  and  C_3
REMARK    3  A    between atoms: C_3  and  O_4
REMARK    4  A    between atoms: O_4  and  C_5
REMARK    5  A    between atoms: C_11  and  C_12
REMARK    6  A    between atoms: C_12  and  C_14
REMARK    7  A    between atoms: C_17  and  O_18
REMARK    8  A    between atoms: O_18  and  C_19
REMARK    9  A    between atoms: N_23  and  C_24
REMARK   10  A    between atoms: C_24  and  C_25
REMARK                            x       y       z     vdW  Elec       q    Type
REMARK                         _______ _______ _______ _____ _____    ______ ____
ROOT
ATOM      1  C   UNL     1       5.400   6.042  16.979  0.00  0.00    +0.000 A 
ATOM      2  C   UNL     1       5.521   4.989  17.884  0.00  0.00    +0.000 A 
ATOM      3  C   UNL     1       4.650   4.851  18.962  0.00  0.00    +0.000 A 
ATOM      4  C   UNL     1       3.654   5.816  19.146  0.00  0.00    +0.000 A 
ATOM      5  C   UNL     1       3.503   6.901  18.272  0.00  0.00    +0.000 A 
ATOM      6  C   UNL     1       4.395   7.004  17.169  0.00  0.00    +0.000 A 
ATOM      7  C   UNL     1       2.404   7.683  18.756  0.00  0.00    +0.000 A 
ATOM      8  C   UNL     1       1.901   7.018  19.862  0.00  0.00    +0.000 A 
ATOM      9  N   UNL     1       2.678   5.922  20.113  0.00  0.00    +0.000 N 
ENDROOT
BRANCH   7  10
ATOM     10  C   UNL     1       1.864   8.923  18.194  0.00  0.00    +0.000 C 
ATOM     11  O   UNL     1       2.199   9.351  17.097  0.00  0.00    +0.000 OA
BRANCH  10  12
ATOM     12  C   UNL     1       0.875   9.699  19.001  0.00  0.00    +0.000 A 
ATOM     13  C   UNL     1      -0.344  10.074  18.426  0.00  0.00    +0.000 A 
ATOM     14  C   UNL     1      -1.264  10.826  19.167  0.00  0.00    +0.000 A 
ATOM     15  C   UNL     1      -0.986  11.199  20.485  0.00  0.00    +0.000 A 
ATOM     16  C   UNL     1       0.233  10.838  21.055  0.00  0.00    +0.000 A 
ATOM     17  C   UNL     1       1.164  10.106  20.312  0.00  0.00    +0.000 A 
BRANCH  15  18
ATOM     18  O   UNL     1      -1.940  11.969  21.090  0.00  0.00    +0.000 OA
ATOM     19  C   UNL     1      -2.840  12.655  20.226  0.00  0.00    +0.000 C 
ENDBRANCH  15  18
ENDBRANCH  10  12
ENDBRANCH   7  10
BRANCH   1  20
ATOM     20  O   UNL     1       6.210   6.214  15.876  0.00  0.00    +0.000 OA
BRANCH  20  21
ATOM     21  C   UNL     1       6.668   4.998  15.276  0.00  0.00    +0.000 C 
BRANCH  21  23
ATOM     22  C   UNL     1       6.258   3.767  13.148  0.00  0.00    +0.000 C 
ATOM     23  C   UNL     1       5.604   4.376  14.382  0.00  0.00    +0.000 C 
ENDBRANCH  21  23
ENDBRANCH  20  21
ENDBRANCH   1  20
BRANCH   9  24
ATOM     24  C   UNL     1       2.394   4.954  21.160  0.00  0.00    +0.000 C 
BRANCH  24  25
ATOM     25  C   UNL     1       1.921   3.559  20.685  0.00  0.00    +0.000 C 
ATOM     26  C   UNL     1       3.106   2.649  20.320  0.00  0.00    +0.000 C 
ATOM     27  C   UNL     1       2.751   1.512  19.372  0.00  0.00    +0.000 C 
ATOM     28  O   UNL     1       2.036   2.010  18.246  0.00  0.00    +0.000 OA
ATOM     29  C   UNL     1       0.771   2.530  18.633  0.00  0.00    +0.000 C 
ATOM     30  C   UNL     1       0.952   3.763  19.503  0.00  0.00    +0.000 C 
ENDBRANCH  24  25
ENDBRANCH   9  24
TORSDOF 8
ENDMDL
MODEL 6
REMARK VINA RESULT:      -7.4      1.756      2.474
REMARK  Name = 
REMARK  10 active torsions:
REMARK  status: ('A' for Active; 'I' for Inactive)
REMARK    1  A    between atoms: C_1  and  C_2
REMARK    2  A    between atoms: C_2  and  C_3
REMARK    3  A    between atoms: C_3  and  O_4
REMARK    4  A    between atoms: O_4  and  C_5
REMARK    5  A    between atoms: C_11  and  C_12
REMARK    6  A    between atoms: C_12  and  C_14
REMARK    7  A    between atoms: C_17  and  O_18
REMARK    8  A    between atoms: O_18  and  C_19
REMARK    9  A    between atoms: N_23  and  C_24
REMARK   10  A    between atoms: C_24  and  C_25
REMARK                            x       y       z     vdW  Elec       q    Type
REMARK                         _______ _______ _______ _____ _____    ______ ____
ROOT
ATOM      1  C   UNL     1       5.767   5.398  16.085  0.00  0.00    +0.000 A 
ATOM      2  C   UNL     1       5.462   4.041  16.168  0.00  0.00    +0.000 A 
ATOM      3  C   UNL     1       4.279   3.594  16.752  0.00  0.00    +0.000 A 
ATOM      4  C   UNL     1       3.400   4.538  17.293  0.00  0.00    +0.000 A 
ATOM      5  C   UNL     1       3.671   5.913  17.248  0.00  0.00    +0.000 A 
ATOM      6  C   UNL     1       4.877   6.340  16.627  0.00  0.00    +0.000 A 
ATOM      7  C   UNL     1       2.576   6.579  17.890  0.00  0.00    +0.000 A 
ATOM      8  C   UNL     1       1.667   5.597  18.245  0.00  0.00    +0.000 A 
ATOM      9  N   UNL     1       2.185   4.374  17.920  0.00  0.00    +0.000 N 
ENDROOT
BRANCH   7  10
ATOM     10  C   UNL     1       2.400   8.016  18.107  0.00  0.00    +0.000 C 
ATOM     11  O   UNL     1       2.846   8.860  17.340  0.00  0.00    +0.000 OA
BRANCH  10  12
ATOM     12  C   UNL     1       1.655   8.467  19.321  0.00  0.00    +0.000 A 
ATOM     13  C   UNL     1       0.833   9.597  19.248  0.00  0.00    +0.000 A 
ATOM     14  C   UNL     1       0.154  10.042  20.389  0.00  0.00    +0.000 A 
ATOM     15  C   UNL     1       0.276   9.362  21.605  0.00  0.00    +0.000 A 
ATOM     16  C   UNL     1       1.103   8.244  21.682  0.00  0.00    +0.000 A 
ATOM     17  C   UNL     1       1.801   7.809  20.551  0.00  0.00    +0.000 A 
BRANCH  15  18
ATOM     18  O   UNL     1      -0.398   9.917  22.657  0.00  0.00    +0.000 OA
ATOM     19  C   UNL     1      -0.761  11.287  22.523  0.00  0.00    +0.000 C 
ENDBRANCH  15  18
ENDBRANCH  10  12
ENDBRANCH   7  10
BRANCH   1  20
ATOM     20  O   UNL     1       6.904   5.904  15.491  0.00  0.00    +0.000 OA
BRANCH  20  21
ATOM     21  C   UNL     1       7.620   4.967  14.680  0.00  0.00    +0.000 C 
BRANCH  21  23
ATOM     22  C   UNL     1       6.945   4.036  12.468  0.00  0.00    +0.000 C 
ATOM     23  C   UNL     1       7.462   5.271  13.196  0.00  0.00    +0.000 C 
ENDBRANCH  21  23
ENDBRANCH  20  21
ENDBRANCH   1  20
BRANCH   9  24
ATOM     24  C   UNL     1       1.463   3.123  18.087  0.00  0.00    +0.000 C 
BRANCH  24  25
ATOM     25  C   UNL     1       1.626   2.422  19.457  0.00  0.00    +0.000 C 
ATOM     26  C   UNL     1       0.819   3.130  20.559  0.00  0.00    +0.000 C 
ATOM     27  C   UNL     1       1.322   2.862  21.971  0.00  0.00    +0.000 C 
ATOM     28  O   UNL     1       2.726   3.084  22.048  0.00  0.00    +0.000 OA
ATOM     29  C   UNL     1       3.437   2.142  21.255  0.00  0.00    +0.000 C 
ATOM     30  C   UNL     1       3.131   2.357  19.782  0.00  0.00    +0.000 C 
ENDBRANCH  24  25
ENDBRANCH   9  24
TORSDOF 8
ENDMDL
MODEL 7
REMARK VINA RESULT:      -7.4      1.049      1.485
REMARK  Name = 
REMARK  10 active torsions:
REMARK  status: ('A' for Active; 'I' for Inactive)
REMARK    1  A    between atoms: C_1  and  C_2
REMARK    2  A    between atoms: C_2  and  C_3
REMARK    3  A    between atoms: C_3  and  O_4
REMARK    4  A    between atoms: O_4  and  C_5
REMARK    5  A    between atoms: C_11  and  C_12
REMARK    6  A    between atoms: C_12  and  C_14
REMARK    7  A    between atoms: C_17  and  O_18
REMARK    8  A    between atoms: O_18  and  C_19
REMARK    9  A    between atoms: N_23  and  C_24
REMARK   10  A    between atoms: C_24  and  C_25
REMARK                            x       y       z     vdW  Elec       q    Type
REMARK                         _______ _______ _______ _____ _____    ______ ____
ROOT
ATOM      1  C   UNL     1       5.656   5.840  16.462  0.00  0.00    +0.000 A 
ATOM      2  C   UNL     1       5.416   4.468  16.510  0.00  0.00    +0.000 A 
ATOM      3  C   UNL     1       4.211   3.954  16.984  0.00  0.00    +0.000 A 
ATOM      4  C   UNL     1       3.240   4.847  17.450  0.00  0.00    +0.000 A 
ATOM      5  C   UNL     1       3.441   6.234  17.437  0.00  0.00    +0.000 A 
ATOM      6  C   UNL     1       4.673   6.729  16.928  0.00  0.00    +0.000 A 
ATOM      7  C   UNL     1       2.261   6.836  17.983  0.00  0.00    +0.000 A 
ATOM      8  C   UNL     1       1.377   5.805  18.251  0.00  0.00    +0.000 A 
ATOM      9  N   UNL     1       1.984   4.614  17.966  0.00  0.00    +0.000 N 
ENDROOT
BRANCH   7  10
ATOM     10  C   UNL     1       1.991   8.260  18.191  0.00  0.00    +0.000 C 
ATOM     11  O   UNL     1       2.182   9.103  17.323  0.00  0.00    +0.000 OA
BRANCH  10  12
ATOM     12  C   UNL     1       1.473   8.700  19.522  0.00  0.00    +0.000 A 
ATOM     13  C   UNL     1       0.711   9.870  19.615  0.00  0.00    +0.000 A 
ATOM     14  C   UNL     1       0.247  10.303  20.863  0.00  0.00    +0.000 A 
ATOM     15  C   UNL     1       0.524   9.573  22.022  0.00  0.00    +0.000 A 
ATOM     16  C   UNL     1       1.293   8.415  21.933  0.00  0.00    +0.000 A 
ATOM     17  C   UNL     1       1.778   7.989  20.692  0.00  0.00    +0.000 A 
BRANCH  15  18
ATOM     18  O   UNL     1       0.057  10.119  23.185  0.00  0.00    +0.000 OA
ATOM     19  C   UNL     1      -1.125  10.907  23.082  0.00  0.00    +0.000 C 
ENDBRANCH  15  18
ENDBRANCH  10  12
ENDBRANCH   7  10
BRANCH   1  20
ATOM     20  O   UNL     1       6.813   6.410  15.973  0.00  0.00    +0.000 OA
BRANCH  20  21
ATOM     21  C   UNL     1       7.957   6.257  16.820  0.00  0.00    +0.000 C 
BRANCH  21  23
ATOM     22  C   UNL     1       7.905   5.850  19.278  0.00  0.00    +0.000 C 
ATOM     23  C   UNL     1       7.737   6.896  18.184  0.00  0.00    +0.000 C 
ENDBRANCH  21  23
ENDBRANCH  20  21
ENDBRANCH   1  20
BRANCH   9  24
ATOM     24  C   UNL     1       1.318   3.325  18.062  0.00  0.00    +0.000 C 
BRANCH  24  25
ATOM     25  C   UNL     1       1.525   2.549  19.384  0.00  0.00    +0.000 C 
ATOM     26  C   UNL     1       0.766   3.201  20.553  0.00  0.00    +0.000 C 
ATOM     27  C   UNL     1       1.319   2.852  21.928  0.00  0.00    +0.000 C 
ATOM     28  O   UNL     1       2.726   3.061  21.965  0.00  0.00    +0.000 OA
ATOM     29  C   UNL     1       3.399   2.159  21.095  0.00  0.00    +0.000 C 
ATOM     30  C   UNL     1       3.041   2.456  19.648  0.00  0.00    +0.000 C 
ENDBRANCH  24  25
ENDBRANCH   9  24
TORSDOF 8
ENDMDL
MODEL 8
REMARK VINA RESULT:      -7.4      1.981      5.494
REMARK  Name = 
REMARK  10 active torsions:
REMARK  status: ('A' for Active; 'I' for Inactive)
REMARK    1  A    between atoms: C_1  and  C_2
REMARK    2  A    between atoms: C_2  and  C_3
REMARK    3  A    between atoms: C_3  and  O_4
REMARK    4  A    between atoms: O_4  and  C_5
REMARK    5  A    between atoms: C_11  and  C_12
REMARK    6  A    between atoms: C_12  and  C_14
REMARK    7  A    between atoms: C_17  and  O_18
REMARK    8  A    between atoms: O_18  and  C_19
REMARK    9  A    between atoms: N_23  and  C_24
REMARK   10  A    between atoms: C_24  and  C_25
REMARK                            x       y       z     vdW  Elec       q    Type
REMARK                         _______ _______ _______ _____ _____    ______ ____
ROOT
ATOM      1  C   UNL     1       2.759   7.592  17.895  0.00  0.00    +0.000 A 
ATOM      2  C   UNL     1       1.680   6.733  18.097  0.00  0.00    +0.000 A 
ATOM      3  C   UNL     1       1.809   5.354  17.951  0.00  0.00    +0.000 A 
ATOM      4  C   UNL     1       3.048   4.834  17.562  0.00  0.00    +0.000 A 
ATOM      5  C   UNL     1       4.158   5.659  17.332  0.00  0.00    +0.000 A 
ATOM      6  C   UNL     1       4.000   7.061  17.508  0.00  0.00    +0.000 A 
ATOM      7  C   UNL     1       5.244   4.807  16.948  0.00  0.00    +0.000 A 
ATOM      8  C   UNL     1       4.771   3.507  17.014  0.00  0.00    +0.000 A 
ATOM      9  N   UNL     1       3.445   3.533  17.344  0.00  0.00    +0.000 N 
ENDROOT
BRANCH   7  10
ATOM     10  C   UNL     1       6.610   5.194  16.592  0.00  0.00    +0.000 C 
ATOM     11  O   UNL     1       7.250   4.629  15.713  0.00  0.00    +0.000 OA
BRANCH  10  12
ATOM     12  C   UNL     1       7.251   6.317  17.341  0.00  0.00    +0.000 A 
ATOM     13  C   UNL     1       7.274   7.599  16.780  0.00  0.00    +0.000 A 
ATOM     14  C   UNL     1       7.896   8.650  17.464  0.00  0.00    +0.000 A 
ATOM     15  C   UNL     1       8.489   8.439  18.713  0.00  0.00    +0.000 A 
ATOM     16  C   UNL     1       8.478   7.161  19.268  0.00  0.00    +0.000 A 
ATOM     17  C   UNL     1       7.876   6.103  18.578  0.00  0.00    +0.000 A 
BRANCH  15  18
ATOM     18  O   UNL     1       9.104   9.529  19.261  0.00  0.00    +0.000 OA
ATOM     19  C   UNL     1       9.350  10.624  18.384  0.00  0.00    +0.000 C 
ENDBRANCH  15  18
ENDBRANCH  10  12
ENDBRANCH   7  10
BRANCH   1  20
ATOM     20  O   UNL     1       2.703   8.960  18.056  0.00  0.00    +0.000 OA
BRANCH  20  21
ATOM     21  C   UNL     1       1.389   9.519  17.958  0.00  0.00    +0.000 C 
BRANCH  21  23
ATOM     22  C   UNL     1       2.193  11.861  18.243  0.00  0.00    +0.000 C 
ATOM     23  C   UNL     1       1.255  10.791  18.786  0.00  0.00    +0.000 C 
ENDBRANCH  21  23
ENDBRANCH  20  21
ENDBRANCH   1  20
BRANCH   9  24
ATOM     24  C   UNL     1       2.646   2.340  17.573  0.00  0.00    +0.000 C 
BRANCH  24  25
ATOM     25  C   UNL     1       2.371   1.979  19.052  0.00  0.00    +0.000 C 
ATOM     26  C   UNL     1       1.112   2.685  19.585  0.00  0.00    +0.000 C 
ATOM     27  C   UNL     1       1.069   2.824  21.101  0.00  0.00    +0.000 C 
ATOM     28  O   UNL     1       2.289   3.375  21.583  0.00  0.00    +0.000 OA
ATOM     29  C   UNL     1       3.376   2.486  21.359  0.00  0.00    +0.000 C 
ATOM     30  C   UNL     1       3.630   2.329  19.869  0.00  0.00    +0.000 C 
ENDBRANCH  24  25
ENDBRANCH   9  24
TORSDOF 8
ENDMDL
MODEL 9
REMARK VINA RESULT:      -7.4      2.499      8.093
REMARK  Name = 
REMARK  10 active torsions:
REMARK  status: ('A' for Active; 'I' for Inactive)
REMARK    1  A    between atoms: C_1  and  C_2
REMARK    2  A    between atoms: C_2  and  C_3
REMARK    3  A    between atoms: C_3  and  O_4
REMARK    4  A    between atoms: O_4  and  C_5
REMARK    5  A    between atoms: C_11  and  C_12
REMARK    6  A    between atoms: C_12  and  C_14
REMARK    7  A    between atoms: C_17  and  O_18
REMARK    8  A    between atoms: O_18  and  C_19
REMARK    9  A    between atoms: N_23  and  C_24
REMARK   10  A    between atoms: C_24  and  C_25
REMARK                            x       y       z     vdW  Elec       q    Type
REMARK                         _______ _______ _______ _____ _____    ______ ____
ROOT
ATOM      1  C   UNL     1       2.399   4.877  20.898  0.00  0.00    +0.000 A 
ATOM      2  C   UNL     1       1.385   5.830  20.820  0.00  0.00    +0.000 A 
ATOM      3  C   UNL     1       1.423   6.861  19.884  0.00  0.00    +0.000 A 
ATOM      4  C   UNL     1       2.528   6.948  19.029  0.00  0.00    +0.000 A 
ATOM      5  C   UNL     1       3.579   6.023  19.080  0.00  0.00    +0.000 A 
ATOM      6  C   UNL     1       3.502   4.970  20.033  0.00  0.00    +0.000 A 
ATOM      7  C   UNL     1       4.531   6.411  18.082  0.00  0.00    +0.000 A 
ATOM      8  C   UNL     1       3.999   7.512  17.433  0.00  0.00    +0.000 A 
ATOM      9  N   UNL     1       2.818   7.852  18.031  0.00  0.00    +0.000 N 
ENDROOT
BRANCH   7  10
ATOM     10  C   UNL     1       5.806   5.769  17.755  0.00  0.00    +0.000 C 
ATOM     11  O   UNL     1       6.754   5.749  18.531  0.00  0.00    +0.000 OA
BRANCH  10  12
ATOM     12  C   UNL     1       5.956   5.125  16.415  0.00  0.00    +0.000 A 
ATOM     13  C   UNL     1       7.028   5.487  15.591  0.00  0.00    +0.000 A 
ATOM     14  C   UNL     1       7.159   4.908  14.323  0.00  0.00    +0.000 A 
ATOM     15  C   UNL     1       6.237   3.960  13.870  0.00  0.00    +0.000 A 
ATOM     16  C   UNL     1       5.163   3.608  14.684  0.00  0.00    +0.000 A 
ATOM     17  C   UNL     1       5.015   4.199  15.943  0.00  0.00    +0.000 A 
BRANCH  15  18
ATOM     18  O   UNL     1       6.445   3.501  12.599  0.00  0.00    +0.000 OA
ATOM     19  C   UNL     1       5.283   3.138  11.860  0.00  0.00    +0.000 C 
ENDBRANCH  15  18
ENDBRANCH  10  12
ENDBRANCH   7  10
BRANCH   1  20
ATOM     20  O   UNL     1       2.402   3.816  21.779  0.00  0.00    +0.000 OA
BRANCH  20  21
ATOM     21  C   UNL     1       2.160   2.540  21.177  0.00  0.00    +0.000 C 
BRANCH  21  23
ATOM     22  C   UNL     1       1.316   2.166  18.861  0.00  0.00    +0.000 C 
ATOM     23  C   UNL     1       0.930   2.565  20.280  0.00  0.00    +0.000 C 
ENDBRANCH  21  23
ENDBRANCH  20  21
ENDBRANCH   1  20
BRANCH   9  24
ATOM     24  C   UNL     1       1.951   8.920  17.557  0.00  0.00    +0.000 C 
BRANCH  24  25
ATOM     25  C   UNL     1       1.617  10.030  18.582  0.00  0.00    +0.000 C 
ATOM     26  C   UNL     1       0.100  10.180  18.785  0.00  0.00    +0.000 C 
ATOM     27  C   UNL     1      -0.326  11.538  19.326  0.00  0.00    +0.000 C 
ATOM     28  O   UNL     1       0.261  12.584  18.559  0.00  0.00    +0.000 OA
ATOM     29  C   UNL     1       1.676  12.594  18.706  0.00  0.00    +0.000 C 
ATOM     30  C   UNL     1       2.277  11.337  18.099  0.00  0.00    +0.000 C 
ENDBRANCH  24  25
ENDBRANCH   9  24
TORSDOF 8
ENDMDL
