MODEL 1
REMARK VINA RESULT:      -7.1      0.000      0.000
REMARK  Name = 
REMARK  6 active torsions:
REMARK  status: ('A' for Active; 'I' for Inactive)
REMARK    1  A    between atoms: C_4  and  C_5
REMARK    2  A    between atoms: C_14  and  O_15
REMARK    3  A    between atoms: C_17  and  O_18
REMARK    4  A    between atoms: C_19  and  C_20
REMARK    5  A    between atoms: C_23  and  O_24
REMARK    6  A    between atoms: C_25  and  O_26
REMARK                            x       y       z     vdW  Elec       q    Type
REMARK                         _______ _______ _______ _____ _____    ______ ____
ROOT
ATOM      1  O   UNL     1      -1.948   9.976  16.360  0.00  0.00    +0.000 OA
ATOM      2  C   UNL     1      -2.172  10.596  17.377  0.00  0.00    +0.000 C 
ATOM      3  C   UNL     1      -3.399  11.294  17.832  0.00  0.00    +0.000 C 
ATOM      4  C   UNL     1      -4.545  11.337  17.144  0.00  0.00    +0.000 C 
ATOM      5  O   UNL     1      -3.186  11.886  19.070  0.00  0.00    +0.000 OA
ATOM      6  C   UNL     1      -1.895  11.569  19.448  0.00  0.00    +0.000 A 
ATOM      7  C   UNL     1      -1.237  10.823  18.467  0.00  0.00    +0.000 A 
ATOM      8  C   UNL     1       0.067  10.413  18.598  0.00  0.00    +0.000 A 
ATOM      9  C   UNL     1       0.732  10.759  19.766  0.00  0.00    +0.000 A 
ATOM     10  C   UNL     1       0.065  11.494  20.774  0.00  0.00    +0.000 A 
ATOM     11  C   UNL     1      -1.282  11.929  20.652  0.00  0.00    +0.000 A 
ENDROOT
BRANCH   4  12
ATOM     12  C   UNL     1      -5.715  12.067  17.637  0.00  0.00    +0.000 A 
ATOM     13  C   UNL     1      -6.168  13.197  16.948  0.00  0.00    +0.000 A 
ATOM     14  C   UNL     1      -7.266  13.918  17.421  0.00  0.00    +0.000 A 
ATOM     15  C   UNL     1      -7.916  13.514  18.585  0.00  0.00    +0.000 A 
ATOM     16  C   UNL     1      -7.467  12.391  19.280  0.00  0.00    +0.000 A 
ATOM     17  C   UNL     1      -6.368  11.669  18.809  0.00  0.00    +0.000 A 
ENDBRANCH   4  12
BRANCH  11  18
ATOM     18  C   UNL     1      -2.008  12.696  21.700  0.00  0.00    +0.000 A 
ATOM     19  C   UNL     1      -1.976  14.106  21.748  0.00  0.00    +0.000 A 
ATOM     20  C   UNL     1      -2.653  14.837  22.735  0.00  0.00    +0.000 A 
ATOM     21  C   UNL     1      -3.406  14.159  23.680  0.00  0.00    +0.000 A 
ATOM     22  C   UNL     1      -3.468  12.773  23.652  0.00  0.00    +0.000 A 
ATOM     23  C   UNL     1      -2.774  12.047  22.690  0.00  0.00    +0.000 A 
BRANCH  21  24
ATOM     24  O   UNL     1      -4.102  14.812  24.657  0.00  0.00    +0.000 OA
ATOM     25  H   UNL     1      -3.991  14.316  25.485  0.00  0.00    +0.000 HD
ENDBRANCH  21  24
BRANCH  22  26
ATOM     26  O   UNL     1      -4.219  12.105  24.577  0.00  0.00    +0.000 OA
ATOM     27  H   UNL     1      -5.144  12.289  24.321  0.00  0.00    +0.000 HD
ENDBRANCH  22  26
ENDBRANCH  11  18
BRANCH   8  28
ATOM     28  O   UNL     1       0.723   9.696  17.647  0.00  0.00    +0.000 OA
ATOM     29  H   UNL     1       0.636  10.163  16.789  0.00  0.00    +0.000 HD
ENDBRANCH   8  28
BRANCH  10  30
ATOM     30  O   UNL     1       0.766  11.768  21.924  0.00  0.00    +0.000 OA
ATOM     31  H   UNL     1       1.712  11.604  21.776  0.00  0.00    +0.000 HD
ENDBRANCH  10  30
TORSDOF 6
ENDMDL
MODEL 2
REMARK VINA RESULT:      -7.1      2.401      5.819
REMARK  Name = 
REMARK  6 active torsions:
REMARK  status: ('A' for Active; 'I' for Inactive)
REMARK    1  A    between atoms: C_4  and  C_5
REMARK    2  A    between atoms: C_14  and  O_15
REMARK    3  A    between atoms: C_17  and  O_18
REMARK    4  A    between atoms: C_19  and  C_20
REMARK    5  A    between atoms: C_23  and  O_24
REMARK    6  A    between atoms: C_25  and  O_26
REMARK                            x       y       z     vdW  Elec       q    Type
REMARK                         _______ _______ _______ _____ _____    ______ ____
ROOT
ATOM      1  O   UNL     1      -7.246  15.392  23.488  0.00  0.00    +0.000 OA
ATOM      2  C   UNL     1      -6.323  14.667  23.187  0.00  0.00    +0.000 C 
ATOM      3  C   UNL     1      -6.280  13.470  22.314  0.00  0.00    +0.000 C 
ATOM      4  C   UNL     1      -7.334  12.974  21.657  0.00  0.00    +0.000 C 
ATOM      5  O   UNL     1      -4.994  12.948  22.273  0.00  0.00    +0.000 OA
ATOM      6  C   UNL     1      -4.202  13.776  23.047  0.00  0.00    +0.000 A 
ATOM      7  C   UNL     1      -4.946  14.801  23.634  0.00  0.00    +0.000 A 
ATOM      8  C   UNL     1      -4.387  15.734  24.474  0.00  0.00    +0.000 A 
ATOM      9  C   UNL     1      -3.026  15.637  24.722  0.00  0.00    +0.000 A 
ATOM     10  C   UNL     1      -2.261  14.614  24.111  0.00  0.00    +0.000 A 
ATOM     11  C   UNL     1      -2.825  13.639  23.245  0.00  0.00    +0.000 A 
ENDROOT
BRANCH   4  12
ATOM     12  C   UNL     1      -7.232  11.770  20.829  0.00  0.00    +0.000 A 
ATOM     13  C   UNL     1      -7.756  10.560  21.297  0.00  0.00    +0.000 A 
ATOM     14  C   UNL     1      -7.643   9.399  20.530  0.00  0.00    +0.000 A 
ATOM     15  C   UNL     1      -7.005   9.441  19.292  0.00  0.00    +0.000 A 
ATOM     16  C   UNL     1      -6.476  10.642  18.821  0.00  0.00    +0.000 A 
ATOM     17  C   UNL     1      -6.587  11.806  19.588  0.00  0.00    +0.000 A 
ENDBRANCH   4  12
BRANCH  11  18
ATOM     18  C   UNL     1      -2.042  12.559  22.585  0.00  0.00    +0.000 A 
ATOM     19  C   UNL     1      -1.640  12.650  21.236  0.00  0.00    +0.000 A 
ATOM     20  C   UNL     1      -0.907  11.636  20.604  0.00  0.00    +0.000 A 
ATOM     21  C   UNL     1      -0.535  10.517  21.332  0.00  0.00    +0.000 A 
ATOM     22  C   UNL     1      -0.904  10.404  22.666  0.00  0.00    +0.000 A 
ATOM     23  C   UNL     1      -1.656  11.397  23.284  0.00  0.00    +0.000 A 
BRANCH  21  24
ATOM     24  O   UNL     1       0.194   9.502  20.782  0.00  0.00    +0.000 OA
ATOM     25  H   UNL     1       0.138   8.737  21.378  0.00  0.00    +0.000 HD
ENDBRANCH  21  24
BRANCH  22  26
ATOM     26  O   UNL     1      -0.529   9.306  23.387  0.00  0.00    +0.000 OA
ATOM     27  H   UNL     1       0.411   9.465  23.601  0.00  0.00    +0.000 HD
ENDBRANCH  22  26
ENDBRANCH  11  18
BRANCH   8  28
ATOM     28  O   UNL     1      -5.101  16.732  25.061  0.00  0.00    +0.000 OA
ATOM     29  H   UNL     1      -4.547  17.541  25.082  0.00  0.00    +0.000 HD
ENDBRANCH   8  28
BRANCH  10  30
ATOM     30  O   UNL     1      -0.911  14.599  24.365  0.00  0.00    +0.000 OA
ATOM     31  H   UNL     1      -0.432  14.317  23.568  0.00  0.00    +0.000 HD
ENDBRANCH  10  30
TORSDOF 6
ENDMDL
MODEL 3
REMARK VINA RESULT:      -6.8      0.645      1.348
REMARK  Name = 
REMARK  6 active torsions:
REMARK  status: ('A' for Active; 'I' for Inactive)
REMARK    1  A    between atoms: C_4  and  C_5
REMARK    2  A    between atoms: C_14  and  O_15
REMARK    3  A    between atoms: C_17  and  O_18
REMARK    4  A    between atoms: C_19  and  C_20
REMARK    5  A    between atoms: C_23  and  O_24
REMARK    6  A    between atoms: C_25  and  O_26
REMARK                            x       y       z     vdW  Elec       q    Type
REMARK                         _______ _______ _______ _____ _____    ______ ____
ROOT
ATOM      1  O   UNL     1      -2.003   9.741  16.331  0.00  0.00    +0.000 OA
ATOM      2  C   UNL     1      -2.194  10.408  17.326  0.00  0.00    +0.000 C 
ATOM      3  C   UNL     1      -3.409  11.114  17.797  0.00  0.00    +0.000 C 
ATOM      4  C   UNL     1      -4.582  11.113  17.155  0.00  0.00    +0.000 C 
ATOM      5  O   UNL     1      -3.154  11.766  18.996  0.00  0.00    +0.000 OA
ATOM      6  C   UNL     1      -1.845  11.480  19.336  0.00  0.00    +0.000 A 
ATOM      7  C   UNL     1      -1.219  10.695  18.366  0.00  0.00    +0.000 A 
ATOM      8  C   UNL     1       0.094  10.304  18.463  0.00  0.00    +0.000 A 
ATOM      9  C   UNL     1       0.801  10.711  19.585  0.00  0.00    +0.000 A 
ATOM     10  C   UNL     1       0.166  11.488  20.584  0.00  0.00    +0.000 A 
ATOM     11  C   UNL     1      -1.189  11.903  20.496  0.00  0.00    +0.000 A 
ENDROOT
BRANCH   4  12
ATOM     12  C   UNL     1      -5.741  11.854  17.660  0.00  0.00    +0.000 A 
ATOM     13  C   UNL     1      -6.094  13.073  17.070  0.00  0.00    +0.000 A 
ATOM     14  C   UNL     1      -7.180  13.803  17.558  0.00  0.00    +0.000 A 
ATOM     15  C   UNL     1      -7.916  13.320  18.638  0.00  0.00    +0.000 A 
ATOM     16  C   UNL     1      -7.566  12.109  19.234  0.00  0.00    +0.000 A 
ATOM     17  C   UNL     1      -6.479  11.376  18.747  0.00  0.00    +0.000 A 
ENDBRANCH   4  12
BRANCH  11  18
ATOM     18  C   UNL     1      -1.882  12.712  21.535  0.00  0.00    +0.000 A 
ATOM     19  C   UNL     1      -2.503  12.115  22.652  0.00  0.00    +0.000 A 
ATOM     20  C   UNL     1      -3.163  12.869  23.633  0.00  0.00    +0.000 A 
ATOM     21  C   UNL     1      -3.181  14.249  23.525  0.00  0.00    +0.000 A 
ATOM     22  C   UNL     1      -2.567  14.869  22.445  0.00  0.00    +0.000 A 
ATOM     23  C   UNL     1      -1.938  14.119  21.457  0.00  0.00    +0.000 A 
BRANCH  21  24
ATOM     24  O   UNL     1      -3.791  15.042  24.456  0.00  0.00    +0.000 OA
ATOM     25  H   UNL     1      -4.441  15.599  23.995  0.00  0.00    +0.000 HD
ENDBRANCH  21  24
BRANCH  22  26
ATOM     26  O   UNL     1      -2.577  16.231  22.344  0.00  0.00    +0.000 OA
ATOM     27  H   UNL     1      -3.121  16.413  21.553  0.00  0.00    +0.000 HD
ENDBRANCH  22  26
ENDBRANCH  11  18
BRANCH   8  28
ATOM     28  O   UNL     1       0.720   9.549  17.521  0.00  0.00    +0.000 OA
ATOM     29  H   UNL     1       0.284   8.671  17.485  0.00  0.00    +0.000 HD
ENDBRANCH   8  28
BRANCH  10  30
ATOM     30  O   UNL     1       0.909  11.823  21.690  0.00  0.00    +0.000 OA
ATOM     31  H   UNL     1       1.378  12.658  21.527  0.00  0.00    +0.000 HD
ENDBRANCH  10  30
TORSDOF 6
ENDMDL
MODEL 4
REMARK VINA RESULT:      -6.7      1.909      5.774
REMARK  Name = 
REMARK  6 active torsions:
REMARK  status: ('A' for Active; 'I' for Inactive)
REMARK    1  A    between atoms: C_4  and  C_5
REMARK    2  A    between atoms: C_14  and  O_15
REMARK    3  A    between atoms: C_17  and  O_18
REMARK    4  A    between atoms: C_19  and  C_20
REMARK    5  A    between atoms: C_23  and  O_24
REMARK    6  A    between atoms: C_25  and  O_26
REMARK                            x       y       z     vdW  Elec       q    Type
REMARK                         _______ _______ _______ _____ _____    ______ ____
ROOT
ATOM      1  O   UNL     1      -6.388  14.546  24.175  0.00  0.00    +0.000 OA
ATOM      2  C   UNL     1      -5.563  14.024  23.457  0.00  0.00    +0.000 C 
ATOM      3  C   UNL     1      -5.722  13.034  22.365  0.00  0.00    +0.000 C 
ATOM      4  C   UNL     1      -6.894  12.534  21.960  0.00  0.00    +0.000 C 
ATOM      5  O   UNL     1      -4.485  12.708  21.826  0.00  0.00    +0.000 OA
ATOM      6  C   UNL     1      -3.544  13.471  22.492  0.00  0.00    +0.000 A 
ATOM      7  C   UNL     1      -4.128  14.254  23.490  0.00  0.00    +0.000 A 
ATOM      8  C   UNL     1      -3.395  15.076  24.311  0.00  0.00    +0.000 A 
ATOM      9  C   UNL     1      -2.022  15.118  24.112  0.00  0.00    +0.000 A 
ATOM     10  C   UNL     1      -1.426  14.344  23.088  0.00  0.00    +0.000 A 
ATOM     11  C   UNL     1      -2.171  13.486  22.235  0.00  0.00    +0.000 A 
ENDROOT
BRANCH   4  12
ATOM     12  C   UNL     1      -6.982  11.537  20.891  0.00  0.00    +0.000 A 
ATOM     13  C   UNL     1      -7.492  10.264  21.171  0.00  0.00    +0.000 A 
ATOM     14  C   UNL     1      -7.557   9.295  20.168  0.00  0.00    +0.000 A 
ATOM     15  C   UNL     1      -7.112   9.592  18.882  0.00  0.00    +0.000 A 
ATOM     16  C   UNL     1      -6.598  10.856  18.597  0.00  0.00    +0.000 A 
ATOM     17  C   UNL     1      -6.531  11.828  19.599  0.00  0.00    +0.000 A 
ENDBRANCH   4  12
BRANCH  11  18
ATOM     18  C   UNL     1      -1.570  12.669  21.146  0.00  0.00    +0.000 A 
ATOM     19  C   UNL     1      -0.950  11.428  21.402  0.00  0.00    +0.000 A 
ATOM     20  C   UNL     1      -0.376  10.654  20.383  0.00  0.00    +0.000 A 
ATOM     21  C   UNL     1      -0.444  11.102  19.074  0.00  0.00    +0.000 A 
ATOM     22  C   UNL     1      -1.059  12.314  18.788  0.00  0.00    +0.000 A 
ATOM     23  C   UNL     1      -1.603  13.095  19.802  0.00  0.00    +0.000 A 
BRANCH  21  24
ATOM     24  O   UNL     1       0.079  10.389  18.034  0.00  0.00    +0.000 OA
ATOM     25  H   UNL     1       0.060   9.448  18.277  0.00  0.00    +0.000 HD
ENDBRANCH  21  24
BRANCH  22  26
ATOM     26  O   UNL     1      -1.135  12.751  17.496  0.00  0.00    +0.000 OA
ATOM     27  H   UNL     1      -0.335  13.298  17.376  0.00  0.00    +0.000 HD
ENDBRANCH  22  26
ENDBRANCH  11  18
BRANCH   8  28
ATOM     28  O   UNL     1      -3.948  15.836  25.293  0.00  0.00    +0.000 OA
ATOM     29  H   UNL     1      -4.680  15.329  25.705  0.00  0.00    +0.000 HD
ENDBRANCH   8  28
BRANCH  10  30
ATOM     30  O   UNL     1      -0.068  14.463  22.917  0.00  0.00    +0.000 OA
ATOM     31  H   UNL     1       0.257  13.725  22.375  0.00  0.00    +0.000 HD
ENDBRANCH  10  30
TORSDOF 6
ENDMDL
MODEL 5
REMARK VINA RESULT:      -6.5      1.980      5.425
REMARK  Name = 
REMARK  6 active torsions:
REMARK  status: ('A' for Active; 'I' for Inactive)
REMARK    1  A    between atoms: C_4  and  C_5
REMARK    2  A    between atoms: C_14  and  O_15
REMARK    3  A    between atoms: C_17  and  O_18
REMARK    4  A    between atoms: C_19  and  C_20
REMARK    5  A    between atoms: C_23  and  O_24
REMARK    6  A    between atoms: C_25  and  O_26
REMARK                            x       y       z     vdW  Elec       q    Type
REMARK                         _______ _______ _______ _____ _____    ______ ____
ROOT
ATOM      1  O   UNL     1      -4.382  11.301  16.420  0.00  0.00    +0.000 OA
ATOM      2  C   UNL     1      -4.280  11.677  17.568  0.00  0.00    +0.000 C 
ATOM      3  C   UNL     1      -3.137  11.607  18.509  0.00  0.00    +0.000 C 
ATOM      4  C   UNL     1      -1.940  11.092  18.211  0.00  0.00    +0.000 C 
ATOM      5  O   UNL     1      -3.488  12.157  19.736  0.00  0.00    +0.000 OA
ATOM      6  C   UNL     1      -4.788  12.611  19.613  0.00  0.00    +0.000 A 
ATOM      7  C   UNL     1      -5.316  12.330  18.352  0.00  0.00    +0.000 A 
ATOM      8  C   UNL     1      -6.603  12.656  17.998  0.00  0.00    +0.000 A 
ATOM      9  C   UNL     1      -7.384  13.299  18.949  0.00  0.00    +0.000 A 
ATOM     10  C   UNL     1      -6.847  13.608  20.221  0.00  0.00    +0.000 A 
ATOM     11  C   UNL     1      -5.520  13.273  20.603  0.00  0.00    +0.000 A 
ENDROOT
BRANCH   4  12
ATOM     12  C   UNL     1      -0.858  11.028  19.195  0.00  0.00    +0.000 A 
ATOM     13  C   UNL     1      -0.608   9.830  19.874  0.00  0.00    +0.000 A 
ATOM     14  C   UNL     1       0.403   9.762  20.835  0.00  0.00    +0.000 A 
ATOM     15  C   UNL     1       1.168  10.890  21.122  0.00  0.00    +0.000 A 
ATOM     16  C   UNL     1       0.922  12.089  20.454  0.00  0.00    +0.000 A 
ATOM     17  C   UNL     1      -0.091  12.159  19.492  0.00  0.00    +0.000 A 
ENDBRANCH   4  12
BRANCH  11  18
ATOM     18  C   UNL     1      -4.930  13.593  21.931  0.00  0.00    +0.000 A 
ATOM     19  C   UNL     1      -4.196  14.778  22.153  0.00  0.00    +0.000 A 
ATOM     20  C   UNL     1      -3.632  15.085  23.400  0.00  0.00    +0.000 A 
ATOM     21  C   UNL     1      -3.824  14.216  24.461  0.00  0.00    +0.000 A 
ATOM     22  C   UNL     1      -4.552  13.048  24.278  0.00  0.00    +0.000 A 
ATOM     23  C   UNL     1      -5.087  12.729  23.035  0.00  0.00    +0.000 A 
BRANCH  21  24
ATOM     24  O   UNL     1      -3.316  14.465  25.704  0.00  0.00    +0.000 OA
ATOM     25  H   UNL     1      -3.138  15.418  25.769  0.00  0.00    +0.000 HD
ENDBRANCH  21  24
BRANCH  22  26
ATOM     26  O   UNL     1      -4.750  12.196  25.327  0.00  0.00    +0.000 OA
ATOM     27  H   UNL     1      -5.517  12.570  25.803  0.00  0.00    +0.000 HD
ENDBRANCH  22  26
ENDBRANCH  11  18
BRANCH   8  28
ATOM     28  O   UNL     1      -7.135  12.379  16.778  0.00  0.00    +0.000 OA
ATOM     29  H   UNL     1      -6.924  11.449  16.550  0.00  0.00    +0.000 HD
ENDBRANCH   8  28
BRANCH  10  30
ATOM     30  O   UNL     1      -7.658  14.282  21.102  0.00  0.00    +0.000 OA
ATOM     31  H   UNL     1      -8.050  13.653  21.731  0.00  0.00    +0.000 HD
ENDBRANCH  10  30
TORSDOF 6
ENDMDL
MODEL 6
REMARK VINA RESULT:      -6.4      2.076      5.604
REMARK  Name = 
REMARK  6 active torsions:
REMARK  status: ('A' for Active; 'I' for Inactive)
REMARK    1  A    between atoms: C_4  and  C_5
REMARK    2  A    between atoms: C_14  and  O_15
REMARK    3  A    between atoms: C_17  and  O_18
REMARK    4  A    between atoms: C_19  and  C_20
REMARK    5  A    between atoms: C_23  and  O_24
REMARK    6  A    between atoms: C_25  and  O_26
REMARK                            x       y       z     vdW  Elec       q    Type
REMARK                         _______ _______ _______ _____ _____    ______ ____
ROOT
ATOM      1  O   UNL     1      -7.292  12.325  20.096  0.00  0.00    +0.000 OA
ATOM      2  C   UNL     1      -6.087  12.436  20.175  0.00  0.00    +0.000 C 
ATOM      3  C   UNL     1      -5.237  12.982  21.259  0.00  0.00    +0.000 C 
ATOM      4  C   UNL     1      -5.702  13.460  22.418  0.00  0.00    +0.000 C 
ATOM      5  O   UNL     1      -3.897  12.918  20.900  0.00  0.00    +0.000 OA
ATOM      6  C   UNL     1      -3.845  12.323  19.654  0.00  0.00    +0.000 A 
ATOM      7  C   UNL     1      -5.121  12.037  19.164  0.00  0.00    +0.000 A 
ATOM      8  C   UNL     1      -5.332  11.470  17.930  0.00  0.00    +0.000 A 
ATOM      9  C   UNL     1      -4.214  11.171  17.165  0.00  0.00    +0.000 A 
ATOM     10  C   UNL     1      -2.916  11.437  17.665  0.00  0.00    +0.000 A 
ATOM     11  C   UNL     1      -2.683  12.026  18.936  0.00  0.00    +0.000 A 
ENDROOT
BRANCH   4  12
ATOM     12  C   UNL     1      -4.810  14.011  23.441  0.00  0.00    +0.000 A 
ATOM     13  C   UNL     1      -4.667  15.397  23.562  0.00  0.00    +0.000 A 
ATOM     14  C   UNL     1      -3.800  15.936  24.515  0.00  0.00    +0.000 A 
ATOM     15  C   UNL     1      -3.071  15.092  25.350  0.00  0.00    +0.000 A 
ATOM     16  C   UNL     1      -3.204  13.709  25.231  0.00  0.00    +0.000 A 
ATOM     17  C   UNL     1      -4.071  13.168  24.278  0.00  0.00    +0.000 A 
ENDBRANCH   4  12
BRANCH  11  18
ATOM     18  C   UNL     1      -1.329  12.308  19.488  0.00  0.00    +0.000 A 
ATOM     19  C   UNL     1      -0.632  13.495  19.178  0.00  0.00    +0.000 A 
ATOM     20  C   UNL     1       0.645  13.767  19.688  0.00  0.00    +0.000 A 
ATOM     21  C   UNL     1       1.236  12.858  20.551  0.00  0.00    +0.000 A 
ATOM     22  C   UNL     1       0.569  11.686  20.886  0.00  0.00    +0.000 A 
ATOM     23  C   UNL     1      -0.685  11.404  20.357  0.00  0.00    +0.000 A 
BRANCH  21  24
ATOM     24  O   UNL     1       2.469  13.070  21.097  0.00  0.00    +0.000 OA
ATOM     25  H   UNL     1       2.794  13.929  20.778  0.00  0.00    +0.000 HD
ENDBRANCH  21  24
BRANCH  22  26
ATOM     26  O   UNL     1       1.147  10.795  21.744  0.00  0.00    +0.000 OA
ATOM     27  H   UNL     1       1.926  11.266  22.098  0.00  0.00    +0.000 HD
ENDBRANCH  22  26
ENDBRANCH  11  18
BRANCH   8  28
ATOM     28  O   UNL     1      -6.568  11.196  17.436  0.00  0.00    +0.000 OA
ATOM     29  H   UNL     1      -6.469  10.832  16.531  0.00  0.00    +0.000 HD
ENDBRANCH   8  28
BRANCH  10  30
ATOM     30  O   UNL     1      -1.850  11.078  16.875  0.00  0.00    +0.000 OA
ATOM     31  H   UNL     1      -1.795  10.110  16.823  0.00  0.00    +0.000 HD
ENDBRANCH  10  30
TORSDOF 6
ENDMDL
MODEL 7
REMARK VINA RESULT:      -6.3      2.215      5.690
REMARK  Name = 
REMARK  6 active torsions:
REMARK  status: ('A' for Active; 'I' for Inactive)
REMARK    1  A    between atoms: C_4  and  C_5
REMARK    2  A    between atoms: C_14  and  O_15
REMARK    3  A    between atoms: C_17  and  O_18
REMARK    4  A    between atoms: C_19  and  C_20
REMARK    5  A    between atoms: C_23  and  O_24
REMARK    6  A    between atoms: C_25  and  O_26
REMARK                            x       y       z     vdW  Elec       q    Type
REMARK                         _______ _______ _______ _____ _____    ______ ____
ROOT
ATOM      1  O   UNL     1      -6.840  15.623  22.962  0.00  0.00    +0.000 OA
ATOM      2  C   UNL     1      -5.953  14.825  22.747  0.00  0.00    +0.000 C 
ATOM      3  C   UNL     1      -5.960  13.556  21.981  0.00  0.00    +0.000 C 
ATOM      4  C   UNL     1      -7.027  13.062  21.344  0.00  0.00    +0.000 C 
ATOM      5  O   UNL     1      -4.705  12.963  22.017  0.00  0.00    +0.000 OA
ATOM      6  C   UNL     1      -3.883  13.810  22.737  0.00  0.00    +0.000 A 
ATOM      7  C   UNL     1      -4.580  14.922  23.215  0.00  0.00    +0.000 A 
ATOM      8  C   UNL     1      -3.986  15.894  23.985  0.00  0.00    +0.000 A 
ATOM      9  C   UNL     1      -2.638  15.744  24.274  0.00  0.00    +0.000 A 
ATOM     10  C   UNL     1      -1.920  14.632  23.773  0.00  0.00    +0.000 A 
ATOM     11  C   UNL     1      -2.521  13.617  22.981  0.00  0.00    +0.000 A 
ENDROOT
BRANCH   4  12
ATOM     12  C   UNL     1      -6.977  11.787  20.625  0.00  0.00    +0.000 A 
ATOM     13  C   UNL     1      -6.318  11.712  19.393  0.00  0.00    +0.000 A 
ATOM     14  C   UNL     1      -6.284  10.509  18.683  0.00  0.00    +0.000 A 
ATOM     15  C   UNL     1      -6.911   9.377  19.201  0.00  0.00    +0.000 A 
ATOM     16  C   UNL     1      -7.574   9.446  20.426  0.00  0.00    +0.000 A 
ATOM     17  C   UNL     1      -7.609  10.649  21.137  0.00  0.00    +0.000 A 
ENDBRANCH   4  12
BRANCH  11  18
ATOM     18  C   UNL     1      -1.786  12.443  22.436  0.00  0.00    +0.000 A 
ATOM     19  C   UNL     1      -1.470  11.325  23.236  0.00  0.00    +0.000 A 
ATOM     20  C   UNL     1      -0.775  10.217  22.733  0.00  0.00    +0.000 A 
ATOM     21  C   UNL     1      -0.410  10.198  21.397  0.00  0.00    +0.000 A 
ATOM     22  C   UNL     1      -0.718  11.277  20.579  0.00  0.00    +0.000 A 
ATOM     23  C   UNL     1      -1.383  12.389  21.085  0.00  0.00    +0.000 A 
BRANCH  21  24
ATOM     24  O   UNL     1       0.254   9.143  20.840  0.00  0.00    +0.000 OA
ATOM     25  H   UNL     1      -0.131   8.325  21.198  0.00  0.00    +0.000 HD
ENDBRANCH  21  24
BRANCH  22  26
ATOM     26  O   UNL     1      -0.368  11.255  19.259  0.00  0.00    +0.000 OA
ATOM     27  H   UNL     1       0.514  10.835  19.248  0.00  0.00    +0.000 HD
ENDBRANCH  22  26
ENDBRANCH  11  18
BRANCH   8  28
ATOM     28  O   UNL     1      -4.654  16.975  24.466  0.00  0.00    +0.000 OA
ATOM     29  H   UNL     1      -5.608  16.870  24.261  0.00  0.00    +0.000 HD
ENDBRANCH   8  28
BRANCH  10  30
ATOM     30  O   UNL     1      -0.578  14.565  24.061  0.00  0.00    +0.000 OA
ATOM     31  H   UNL     1      -0.128  15.347  23.700  0.00  0.00    +0.000 HD
ENDBRANCH  10  30
TORSDOF 6
ENDMDL
MODEL 8
REMARK VINA RESULT:      -6.2      2.008      5.330
REMARK  Name = 
REMARK  6 active torsions:
REMARK  status: ('A' for Active; 'I' for Inactive)
REMARK    1  A    between atoms: C_4  and  C_5
REMARK    2  A    between atoms: C_14  and  O_15
REMARK    3  A    between atoms: C_17  and  O_18
REMARK    4  A    between atoms: C_19  and  C_20
REMARK    5  A    between atoms: C_23  and  O_24
REMARK    6  A    between atoms: C_25  and  O_26
REMARK                            x       y       z     vdW  Elec       q    Type
REMARK                         _______ _______ _______ _____ _____    ______ ____
ROOT
ATOM      1  O   UNL     1      -4.196  11.199  16.648  0.00  0.00    +0.000 OA
ATOM      2  C   UNL     1      -4.090  11.643  17.771  0.00  0.00    +0.000 C 
ATOM      3  C   UNL     1      -2.886  11.926  18.588  0.00  0.00    +0.000 C 
ATOM      4  C   UNL     1      -1.629  11.737  18.175  0.00  0.00    +0.000 C 
ATOM      5  O   UNL     1      -3.253  12.420  19.833  0.00  0.00    +0.000 OA
ATOM      6  C   UNL     1      -4.633  12.503  19.840  0.00  0.00    +0.000 A 
ATOM      7  C   UNL     1      -5.184  12.031  18.647  0.00  0.00    +0.000 A 
ATOM      8  C   UNL     1      -6.539  11.983  18.425  0.00  0.00    +0.000 A 
ATOM      9  C   UNL     1      -7.369  12.438  19.439  0.00  0.00    +0.000 A 
ATOM     10  C   UNL     1      -6.817  12.939  20.642  0.00  0.00    +0.000 A 
ATOM     11  C   UNL     1      -5.418  12.990  20.888  0.00  0.00    +0.000 A 
ENDROOT
BRANCH   4  12
ATOM     12  C   UNL     1      -0.480  12.012  19.041  0.00  0.00    +0.000 A 
ATOM     13  C   UNL     1       0.257  13.188  18.861  0.00  0.00    +0.000 A 
ATOM     14  C   UNL     1       1.370  13.451  19.661  0.00  0.00    +0.000 A 
ATOM     15  C   UNL     1       1.754  12.540  20.644  0.00  0.00    +0.000 A 
ATOM     16  C   UNL     1       1.027  11.363  20.824  0.00  0.00    +0.000 A 
ATOM     17  C   UNL     1      -0.087  11.098  20.024  0.00  0.00    +0.000 A 
ENDBRANCH   4  12
BRANCH  11  18
ATOM     18  C   UNL     1      -4.812  13.520  22.140  0.00  0.00    +0.000 A 
ATOM     19  C   UNL     1      -4.194  14.787  22.189  0.00  0.00    +0.000 A 
ATOM     20  C   UNL     1      -3.615  15.292  23.363  0.00  0.00    +0.000 A 
ATOM     21  C   UNL     1      -3.677  14.539  24.524  0.00  0.00    +0.000 A 
ATOM     22  C   UNL     1      -4.290  13.294  24.511  0.00  0.00    +0.000 A 
ATOM     23  C   UNL     1      -4.838  12.781  23.341  0.00  0.00    +0.000 A 
BRANCH  21  24
ATOM     24  O   UNL     1      -3.149  14.980  25.704  0.00  0.00    +0.000 OA
ATOM     25  H   UNL     1      -3.678  14.605  26.427  0.00  0.00    +0.000 HD
ENDBRANCH  21  24
BRANCH  22  26
ATOM     26  O   UNL     1      -4.360  12.556  25.658  0.00  0.00    +0.000 OA
ATOM     27  H   UNL     1      -3.574  11.976  25.624  0.00  0.00    +0.000 HD
ENDBRANCH  22  26
ENDBRANCH  11  18
BRANCH   8  28
ATOM     28  O   UNL     1      -7.091  11.516  17.273  0.00  0.00    +0.000 OA
ATOM     29  H   UNL     1      -7.533  10.662  17.463  0.00  0.00    +0.000 HD
ENDBRANCH   8  28
BRANCH  10  30
ATOM     30  O   UNL     1      -7.692  13.412  21.590  0.00  0.00    +0.000 OA
ATOM     31  H   UNL     1      -8.126  14.216  21.259  0.00  0.00    +0.000 HD
ENDBRANCH  10  30
TORSDOF 6
ENDMDL
MODEL 9
REMARK VINA RESULT:      -6.2      2.572      7.415
REMARK  Name = 
REMARK  6 active torsions:
REMARK  status: ('A' for Active; 'I' for Inactive)
REMARK    1  A    between atoms: C_4  and  C_5
REMARK    2  A    between atoms: C_14  and  O_15
REMARK    3  A    between atoms: C_17  and  O_18
REMARK    4  A    between atoms: C_19  and  C_20
REMARK    5  A    between atoms: C_23  and  O_24
REMARK    6  A    between atoms: C_25  and  O_26
REMARK                            x       y       z     vdW  Elec       q    Type
REMARK                         _______ _______ _______ _____ _____    ______ ____
ROOT
ATOM      1  O   UNL     1      -2.116  15.169  25.138  0.00  0.00    +0.000 OA
ATOM      2  C   UNL     1      -2.744  14.636  24.249  0.00  0.00    +0.000 C 
ATOM      3  C   UNL     1      -2.372  13.532  23.333  0.00  0.00    +0.000 C 
ATOM      4  C   UNL     1      -1.200  12.890  23.357  0.00  0.00    +0.000 C 
ATOM      5  O   UNL     1      -3.416  13.260  22.457  0.00  0.00    +0.000 OA
ATOM      6  C   UNL     1      -4.452  14.111  22.793  0.00  0.00    +0.000 A 
ATOM      7  C   UNL     1      -4.098  14.968  23.837  0.00  0.00    +0.000 A 
ATOM      8  C   UNL     1      -4.950  15.927  24.330  0.00  0.00    +0.000 A 
ATOM      9  C   UNL     1      -6.210  16.018  23.755  0.00  0.00    +0.000 A 
ATOM     10  C   UNL     1      -6.584  15.137  22.712  0.00  0.00    +0.000 A 
ATOM     11  C   UNL     1      -5.712  14.144  22.190  0.00  0.00    +0.000 A 
ENDROOT
BRANCH   4  12
ATOM     12  C   UNL     1      -0.883  11.822  22.405  0.00  0.00    +0.000 A 
ATOM     13  C   UNL     1      -0.791  12.115  21.041  0.00  0.00    +0.000 A 
ATOM     14  C   UNL     1      -0.516  11.102  20.119  0.00  0.00    +0.000 A 
ATOM     15  C   UNL     1      -0.333   9.792  20.558  0.00  0.00    +0.000 A 
ATOM     16  C   UNL     1      -0.429   9.492  21.916  0.00  0.00    +0.000 A 
ATOM     17  C   UNL     1      -0.705  10.504  22.839  0.00  0.00    +0.000 A 
ENDBRANCH   4  12
BRANCH  11  18
ATOM     18  C   UNL     1      -6.083  13.200  21.100  0.00  0.00    +0.000 A 
ATOM     19  C   UNL     1      -6.912  12.083  21.332  0.00  0.00    +0.000 A 
ATOM     20  C   UNL     1      -7.262  11.186  20.313  0.00  0.00    +0.000 A 
ATOM     21  C   UNL     1      -6.808  11.417  19.025  0.00  0.00    +0.000 A 
ATOM     22  C   UNL     1      -6.001  12.515  18.761  0.00  0.00    +0.000 A 
ATOM     23  C   UNL     1      -5.630  13.389  19.777  0.00  0.00    +0.000 A 
BRANCH  21  24
ATOM     24  O   UNL     1      -7.126  10.592  17.984  0.00  0.00    +0.000 OA
ATOM     25  H   UNL     1      -6.405  10.637  17.335  0.00  0.00    +0.000 HD
ENDBRANCH  21  24
BRANCH  22  26
ATOM     26  O   UNL     1      -5.561  12.748  17.489  0.00  0.00    +0.000 OA
ATOM     27  H   UNL     1      -6.304  12.468  16.919  0.00  0.00    +0.000 HD
ENDBRANCH  22  26
ENDBRANCH  11  18
BRANCH   8  28
ATOM     28  O   UNL     1      -4.616  16.775  25.338  0.00  0.00    +0.000 OA
ATOM     29  H   UNL     1      -5.420  16.961  25.868  0.00  0.00    +0.000 HD
ENDBRANCH   8  28
BRANCH  10  30
ATOM     30  O   UNL     1      -7.859  15.252  22.215  0.00  0.00    +0.000 OA
ATOM     31  H   UNL     1      -8.099  14.438  21.742  0.00  0.00    +0.000 HD
ENDBRANCH  10  30
TORSDOF 6
ENDMDL
