MODEL 1
REMARK VINA RESULT:      -7.3      0.000      0.000
REMARK  Name = 
REMARK  8 active torsions:
REMARK  status: ('A' for Active; 'I' for Inactive)
REMARK    1  A    between atoms: C_1  and  C_2
REMARK    2  A    between atoms: C_2  and  C_3
REMARK    3  A    between atoms: C_2  and  C_4
REMARK    4  A    between atoms: C_2  and  C_5
REMARK    5  A    between atoms: C_8  and  N_9
REMARK    6  A    between atoms: C_16  and  N_17
REMARK    7  A    between atoms: C_18  and  C_19
REMARK    8  A    between atoms: C_21  and  N_22
REMARK                            x       y       z     vdW  Elec       q    Type
REMARK                         _______ _______ _______ _____ _____    ______ ____
ROOT
ATOM      1  N   UNL     1       0.257   9.981  19.899  0.00  0.00    +0.000 N 
ATOM      2  C   UNL     1       0.357  10.767  21.066  0.00  0.00    +0.000 C 
ATOM      3  O   UNL     1       1.111  10.673  22.025  0.00  0.00    +0.000 OA
ATOM      4  C   UNL     1      -0.655  11.890  20.936  0.00  0.00    +0.000 C 
ATOM      5  C   UNL     1      -1.461  11.473  19.759  0.00  0.00    +0.000 A 
ATOM      6  C   UNL     1      -0.889  10.354  19.166  0.00  0.00    +0.000 A 
ATOM      7  N   UNL     1      -1.437   9.725  18.113  0.00  0.00    +0.000 NA
ATOM      8  C   UNL     1      -2.593  10.230  17.627  0.00  0.00    +0.000 A 
ATOM      9  C   UNL     1      -3.202  11.385  18.154  0.00  0.00    +0.000 A 
ATOM     10  C   UNL     1      -2.628  12.028  19.264  0.00  0.00    +0.000 A 
ENDROOT
BRANCH   1  14
ATOM     11  C   UNL     1       3.012   7.025  18.437  0.00  0.00    +0.000 A 
ATOM     12  C   UNL     1       2.669   8.161  17.696  0.00  0.00    +0.000 A 
ATOM     13  C   UNL     1       1.802   9.136  18.202  0.00  0.00    +0.000 A 
ATOM     14  C   UNL     1       1.216   9.024  19.466  0.00  0.00    +0.000 A 
ATOM     15  C   UNL     1       1.548   7.882  20.206  0.00  0.00    +0.000 A 
ATOM     16  C   UNL     1       2.419   6.899  19.701  0.00  0.00    +0.000 A 
BRANCH  11  18
ATOM     17  C   UNL     1       5.028   5.557  19.023  0.00  0.00    +0.000 C 
ATOM     18  C   UNL     1       4.027   5.991  17.926  0.00  0.00    +0.000 C 
ATOM     19  C   UNL     1       4.849   6.544  16.743  0.00  0.00    +0.000 C 
ATOM     20  C   UNL     1       3.278   4.726  17.455  0.00  0.00    +0.000 C 
ENDBRANCH  11  18
ENDBRANCH   1  14
BRANCH   8  21
ATOM     21  N   UNL     1      -3.219   9.442  16.662  0.00  0.00    +0.000 N 
ATOM     22  H   UNL     1      -4.068   9.893  16.333  0.00  0.00    +0.000 HD
ATOM     23  H   UNL     1      -3.337   8.460  16.884  0.00  0.00    +0.000 HD
ENDBRANCH   8  21
BRANCH  10  24
ATOM     24  N   UNL     1      -3.058  13.278  19.726  0.00  0.00    +0.000 N 
ATOM     25  H   UNL     1      -2.336  13.912  20.061  0.00  0.00    +0.000 HD
ATOM     26  H   UNL     1      -3.749  13.758  19.157  0.00  0.00    +0.000 HD
ENDBRANCH  10  24
BRANCH   9  27
ATOM     27  C   UNL     1      -4.398  11.882  17.567  0.00  0.00    +0.000 C 
ATOM     28  N   UNL     1      -5.380  12.272  17.071  0.00  0.00    +0.000 NA
ENDBRANCH   9  27
TORSDOF 5
ENDMDL
MODEL 2
REMARK VINA RESULT:      -7.2      3.912      8.334
REMARK  Name = 
REMARK  8 active torsions:
REMARK  status: ('A' for Active; 'I' for Inactive)
REMARK    1  A    between atoms: C_1  and  C_2
REMARK    2  A    between atoms: C_2  and  C_3
REMARK    3  A    between atoms: C_2  and  C_4
REMARK    4  A    between atoms: C_2  and  C_5
REMARK    5  A    between atoms: C_8  and  N_9
REMARK    6  A    between atoms: C_16  and  N_17
REMARK    7  A    between atoms: C_18  and  C_19
REMARK    8  A    between atoms: C_21  and  N_22
REMARK                            x       y       z     vdW  Elec       q    Type
REMARK                         _______ _______ _______ _____ _____    ______ ____
ROOT
ATOM      1  N   UNL     1       2.533   6.253  19.261  0.00  0.00    +0.000 N 
ATOM      2  C   UNL     1       2.031   4.990  19.637  0.00  0.00    +0.000 C 
ATOM      3  O   UNL     1       1.181   4.687  20.464  0.00  0.00    +0.000 OA
ATOM      4  C   UNL     1       2.708   3.958  18.754  0.00  0.00    +0.000 C 
ATOM      5  C   UNL     1       3.782   4.745  18.092  0.00  0.00    +0.000 A 
ATOM      6  C   UNL     1       3.642   6.092  18.402  0.00  0.00    +0.000 A 
ATOM      7  N   UNL     1       4.507   7.031  17.987  0.00  0.00    +0.000 NA
ATOM      8  C   UNL     1       5.548   6.618  17.229  0.00  0.00    +0.000 A 
ATOM      9  C   UNL     1       5.724   5.275  16.843  0.00  0.00    +0.000 A 
ATOM     10  C   UNL     1       4.821   4.298  17.294  0.00  0.00    +0.000 A 
ENDROOT
BRANCH   1  14
ATOM     11  C   UNL     1       0.598   9.935  20.337  0.00  0.00    +0.000 A 
ATOM     12  C   UNL     1       0.831   8.913  21.263  0.00  0.00    +0.000 A 
ATOM     13  C   UNL     1       1.499   7.736  20.908  0.00  0.00    +0.000 A 
ATOM     14  C   UNL     1       1.956   7.506  19.607  0.00  0.00    +0.000 A 
ATOM     15  C   UNL     1       1.715   8.522  18.674  0.00  0.00    +0.000 A 
ATOM     16  C   UNL     1       1.044   9.708  19.027  0.00  0.00    +0.000 A 
BRANCH  11  18
ATOM     17  C   UNL     1      -0.501  11.284  22.217  0.00  0.00    +0.000 C 
ATOM     18  C   UNL     1      -0.059  11.266  20.735  0.00  0.00    +0.000 C 
ATOM     19  C   UNL     1      -1.308  11.557  19.877  0.00  0.00    +0.000 C 
ATOM     20  C   UNL     1       0.951  12.416  20.538  0.00  0.00    +0.000 C 
ENDBRANCH  11  18
ENDBRANCH   1  14
BRANCH   8  21
ATOM     21  N   UNL     1       6.515   7.589  16.979  0.00  0.00    +0.000 N 
ATOM     22  H   UNL     1       6.338   8.044  16.088  0.00  0.00    +0.000 HD
ATOM     23  H   UNL     1       7.482   7.314  17.112  0.00  0.00    +0.000 HD
ENDBRANCH   8  21
BRANCH  10  24
ATOM     24  N   UNL     1       4.813   2.985  16.807  0.00  0.00    +0.000 N 
ATOM     25  H   UNL     1       4.248   2.312  17.322  0.00  0.00    +0.000 HD
ATOM     26  H   UNL     1       4.709   2.876  15.802  0.00  0.00    +0.000 HD
ENDBRANCH  10  24
BRANCH   9  27
ATOM     27  C   UNL     1       6.821   4.918  16.012  0.00  0.00    +0.000 C 
ATOM     28  N   UNL     1       7.733   4.645  15.336  0.00  0.00    +0.000 NA
ENDBRANCH   9  27
TORSDOF 5
ENDMDL
MODEL 3
REMARK VINA RESULT:      -7.1      6.887      8.957
REMARK  Name = 
REMARK  8 active torsions:
REMARK  status: ('A' for Active; 'I' for Inactive)
REMARK    1  A    between atoms: C_1  and  C_2
REMARK    2  A    between atoms: C_2  and  C_3
REMARK    3  A    between atoms: C_2  and  C_4
REMARK    4  A    between atoms: C_2  and  C_5
REMARK    5  A    between atoms: C_8  and  N_9
REMARK    6  A    between atoms: C_16  and  N_17
REMARK    7  A    between atoms: C_18  and  C_19
REMARK    8  A    between atoms: C_21  and  N_22
REMARK                            x       y       z     vdW  Elec       q    Type
REMARK                         _______ _______ _______ _____ _____    ______ ____
ROOT
ATOM      1  N   UNL     1       6.475   6.009  17.322  0.00  0.00    +0.000 N 
ATOM      2  C   UNL     1       6.801   5.236  16.187  0.00  0.00    +0.000 C 
ATOM      3  O   UNL     1       7.534   5.486  15.240  0.00  0.00    +0.000 OA
ATOM      4  C   UNL     1       6.097   3.900  16.339  0.00  0.00    +0.000 C 
ATOM      5  C   UNL     1       5.180   4.140  17.485  0.00  0.00    +0.000 A 
ATOM      6  C   UNL     1       5.438   5.384  18.046  0.00  0.00    +0.000 A 
ATOM      7  N   UNL     1       4.722   5.889  19.064  0.00  0.00    +0.000 NA
ATOM      8  C   UNL     1       3.714   5.127  19.546  0.00  0.00    +0.000 A 
ATOM      9  C   UNL     1       3.427   3.840  19.051  0.00  0.00    +0.000 A 
ATOM     10  C   UNL     1       4.174   3.327  17.978  0.00  0.00    +0.000 A 
ENDROOT
BRANCH   1  14
ATOM     11  C   UNL     1       8.616   9.581  18.380  0.00  0.00    +0.000 A 
ATOM     12  C   UNL     1       7.579   9.580  17.440  0.00  0.00    +0.000 A 
ATOM     13  C   UNL     1       6.864   8.416  17.135  0.00  0.00    +0.000 A 
ATOM     14  C   UNL     1       7.153   7.188  17.737  0.00  0.00    +0.000 A 
ATOM     15  C   UNL     1       8.197   7.184  18.671  0.00  0.00    +0.000 A 
ATOM     16  C   UNL     1       8.920   8.351  18.980  0.00  0.00    +0.000 A 
BRANCH  11  18
ATOM     17  C   UNL     1      10.813  10.895  18.276  0.00  0.00    +0.000 C 
ATOM     18  C   UNL     1       9.352  10.868  18.784  0.00  0.00    +0.000 C 
ATOM     19  C   UNL     1       9.393  11.038  20.317  0.00  0.00    +0.000 C 
ATOM     20  C   UNL     1       8.627  12.087  18.174  0.00  0.00    +0.000 C 
ENDBRANCH  11  18
ENDBRANCH   1  14
BRANCH   8  21
ATOM     21  N   UNL     1       2.886   5.763  20.469  0.00  0.00    +0.000 N 
ATOM     22  H   UNL     1       2.441   6.573  20.045  0.00  0.00    +0.000 HD
ATOM     23  H   UNL     1       3.280   5.945  21.385  0.00  0.00    +0.000 HD
ENDBRANCH   8  21
BRANCH  10  24
ATOM     24  N   UNL     1       4.082   1.995  17.554  0.00  0.00    +0.000 N 
ATOM     25  H   UNL     1       3.188   1.702  17.165  0.00  0.00    +0.000 HD
ATOM     26  H   UNL     1       4.865   1.636  17.015  0.00  0.00    +0.000 HD
ENDBRANCH  10  24
BRANCH   9  27
ATOM     27  C   UNL     1       2.377   3.079  19.633  0.00  0.00    +0.000 C 
ATOM     28  N   UNL     1       1.516   2.467  20.129  0.00  0.00    +0.000 NA
ENDBRANCH   9  27
TORSDOF 5
ENDMDL
MODEL 4
REMARK VINA RESULT:      -7.1      3.182      4.218
REMARK  Name = 
REMARK  8 active torsions:
REMARK  status: ('A' for Active; 'I' for Inactive)
REMARK    1  A    between atoms: C_1  and  C_2
REMARK    2  A    between atoms: C_2  and  C_3
REMARK    3  A    between atoms: C_2  and  C_4
REMARK    4  A    between atoms: C_2  and  C_5
REMARK    5  A    between atoms: C_8  and  N_9
REMARK    6  A    between atoms: C_16  and  N_17
REMARK    7  A    between atoms: C_18  and  C_19
REMARK    8  A    between atoms: C_21  and  N_22
REMARK                            x       y       z     vdW  Elec       q    Type
REMARK                         _______ _______ _______ _____ _____    ______ ____
ROOT
ATOM      1  N   UNL     1       0.432  10.899  18.739  0.00  0.00    +0.000 N 
ATOM      2  C   UNL     1      -0.970  11.062  18.720  0.00  0.00    +0.000 C 
ATOM      3  O   UNL     1      -1.863  10.233  18.612  0.00  0.00    +0.000 OA
ATOM      4  C   UNL     1      -1.252  12.538  18.928  0.00  0.00    +0.000 C 
ATOM      5  C   UNL     1       0.094  13.154  18.784  0.00  0.00    +0.000 A 
ATOM      6  C   UNL     1       1.061  12.161  18.688  0.00  0.00    +0.000 A 
ATOM      7  N   UNL     1       2.363  12.427  18.493  0.00  0.00    +0.000 NA
ATOM      8  C   UNL     1       2.719  13.728  18.397  0.00  0.00    +0.000 A 
ATOM      9  C   UNL     1       1.795  14.783  18.529  0.00  0.00    +0.000 A 
ATOM     10  C   UNL     1       0.434  14.494  18.719  0.00  0.00    +0.000 A 
ENDROOT
BRANCH   1  14
ATOM     11  C   UNL     1       2.341   7.065  19.076  0.00  0.00    +0.000 A 
ATOM     12  C   UNL     1       2.263   7.759  17.863  0.00  0.00    +0.000 A 
ATOM     13  C   UNL     1       1.675   9.026  17.777  0.00  0.00    +0.000 A 
ATOM     14  C   UNL     1       1.116   9.662  18.889  0.00  0.00    +0.000 A 
ATOM     15  C   UNL     1       1.181   8.965  20.102  0.00  0.00    +0.000 A 
ATOM     16  C   UNL     1       1.772   7.691  20.194  0.00  0.00    +0.000 A 
BRANCH  11  18
ATOM     17  C   UNL     1       2.641   4.937  20.472  0.00  0.00    +0.000 C 
ATOM     18  C   UNL     1       3.059   5.712  19.199  0.00  0.00    +0.000 C 
ATOM     19  C   UNL     1       4.591   5.889  19.248  0.00  0.00    +0.000 C 
ATOM     20  C   UNL     1       2.705   4.831  17.982  0.00  0.00    +0.000 C 
ENDBRANCH  11  18
ENDBRANCH   1  14
BRANCH   8  21
ATOM     21  N   UNL     1       4.040  13.949  18.011  0.00  0.00    +0.000 N 
ATOM     22  H   UNL     1       4.678  13.614  18.728  0.00  0.00    +0.000 HD
ATOM     23  H   UNL     1       4.264  14.875  17.664  0.00  0.00    +0.000 HD
ENDBRANCH   8  21
BRANCH  10  24
ATOM     24  N   UNL     1      -0.513  15.472  19.048  0.00  0.00    +0.000 N 
ATOM     25  H   UNL     1      -0.573  15.736  20.029  0.00  0.00    +0.000 HD
ATOM     26  H   UNL     1      -0.560  16.281  18.434  0.00  0.00    +0.000 HD
ENDBRANCH  10  24
BRANCH   9  27
ATOM     27  C   UNL     1       2.247  16.129  18.456  0.00  0.00    +0.000 C 
ATOM     28  N   UNL     1       2.634  17.229  18.412  0.00  0.00    +0.000 NA
ENDBRANCH   9  27
TORSDOF 5
ENDMDL
MODEL 5
REMARK VINA RESULT:      -7.0      0.277      1.010
REMARK  Name = 
REMARK  8 active torsions:
REMARK  status: ('A' for Active; 'I' for Inactive)
REMARK    1  A    between atoms: C_1  and  C_2
REMARK    2  A    between atoms: C_2  and  C_3
REMARK    3  A    between atoms: C_2  and  C_4
REMARK    4  A    between atoms: C_2  and  C_5
REMARK    5  A    between atoms: C_8  and  N_9
REMARK    6  A    between atoms: C_16  and  N_17
REMARK    7  A    between atoms: C_18  and  C_19
REMARK    8  A    between atoms: C_21  and  N_22
REMARK                            x       y       z     vdW  Elec       q    Type
REMARK                         _______ _______ _______ _____ _____    ______ ____
ROOT
ATOM      1  N   UNL     1       0.396   9.815  19.670  0.00  0.00    +0.000 N 
ATOM      2  C   UNL     1       0.564  10.578  20.845  0.00  0.00    +0.000 C 
ATOM      3  O   UNL     1       1.357  10.449  21.768  0.00  0.00    +0.000 OA
ATOM      4  C   UNL     1      -0.426  11.726  20.780  0.00  0.00    +0.000 C 
ATOM      5  C   UNL     1      -1.292  11.348  19.631  0.00  0.00    +0.000 A 
ATOM      6  C   UNL     1      -0.772  10.228  18.994  0.00  0.00    +0.000 A 
ATOM      7  N   UNL     1      -1.380   9.631  17.955  0.00  0.00    +0.000 NA
ATOM      8  C   UNL     1      -2.544  10.171  17.529  0.00  0.00    +0.000 A 
ATOM      9  C   UNL     1      -3.103  11.329  18.103  0.00  0.00    +0.000 A 
ATOM     10  C   UNL     1      -2.466  11.938  19.197  0.00  0.00    +0.000 A 
ENDROOT
BRANCH   1  14
ATOM     11  C   UNL     1       3.302   6.942  18.345  0.00  0.00    +0.000 A 
ATOM     12  C   UNL     1       2.603   6.800  19.548  0.00  0.00    +0.000 A 
ATOM     13  C   UNL     1       1.629   7.722  19.947  0.00  0.00    +0.000 A 
ATOM     14  C   UNL     1       1.312   8.846  19.178  0.00  0.00    +0.000 A 
ATOM     15  C   UNL     1       2.018   8.998  17.978  0.00  0.00    +0.000 A 
ATOM     16  C   UNL     1       2.998   8.072  17.573  0.00  0.00    +0.000 A 
BRANCH  11  18
ATOM     17  C   UNL     1       5.335   5.505  18.951  0.00  0.00    +0.000 C 
ATOM     18  C   UNL     1       4.312   5.892  17.857  0.00  0.00    +0.000 C 
ATOM     19  C   UNL     1       5.110   6.400  16.638  0.00  0.00    +0.000 C 
ATOM     20  C   UNL     1       3.560   4.607  17.450  0.00  0.00    +0.000 C 
ENDBRANCH  11  18
ENDBRANCH   1  14
BRANCH   8  21
ATOM     21  N   UNL     1      -3.229   9.415  16.579  0.00  0.00    +0.000 N 
ATOM     22  H   UNL     1      -2.581   9.040  15.892  0.00  0.00    +0.000 HD
ATOM     23  H   UNL     1      -4.057   9.837  16.173  0.00  0.00    +0.000 HD
ENDBRANCH   8  21
BRANCH  10  24
ATOM     24  N   UNL     1      -2.847  13.189  19.700  0.00  0.00    +0.000 N 
ATOM     25  H   UNL     1      -2.250  13.591  20.420  0.00  0.00    +0.000 HD
ATOM     26  H   UNL     1      -3.135  13.883  19.016  0.00  0.00    +0.000 HD
ENDBRANCH  10  24
BRANCH   9  27
ATOM     27  C   UNL     1      -4.311  11.864  17.578  0.00  0.00    +0.000 C 
ATOM     28  N   UNL     1      -5.305  12.284  17.133  0.00  0.00    +0.000 NA
ENDBRANCH   9  27
TORSDOF 5
ENDMDL
MODEL 6
REMARK VINA RESULT:      -7.0      3.910      8.248
REMARK  Name = 
REMARK  8 active torsions:
REMARK  status: ('A' for Active; 'I' for Inactive)
REMARK    1  A    between atoms: C_1  and  C_2
REMARK    2  A    between atoms: C_2  and  C_3
REMARK    3  A    between atoms: C_2  and  C_4
REMARK    4  A    between atoms: C_2  and  C_5
REMARK    5  A    between atoms: C_8  and  N_9
REMARK    6  A    between atoms: C_16  and  N_17
REMARK    7  A    between atoms: C_18  and  C_19
REMARK    8  A    between atoms: C_21  and  N_22
REMARK                            x       y       z     vdW  Elec       q    Type
REMARK                         _______ _______ _______ _____ _____    ______ ____
ROOT
ATOM      1  N   UNL     1       2.499   6.258  19.261  0.00  0.00    +0.000 N 
ATOM      2  C   UNL     1       2.036   4.997  19.694  0.00  0.00    +0.000 C 
ATOM      3  O   UNL     1       1.199   4.706  20.537  0.00  0.00    +0.000 OA
ATOM      4  C   UNL     1       2.742   3.949  18.854  0.00  0.00    +0.000 C 
ATOM      5  C   UNL     1       3.790   4.739  18.154  0.00  0.00    +0.000 A 
ATOM      6  C   UNL     1       3.609   6.093  18.405  0.00  0.00    +0.000 A 
ATOM      7  N   UNL     1       4.444   7.039  17.945  0.00  0.00    +0.000 NA
ATOM      8  C   UNL     1       5.495   6.625  17.202  0.00  0.00    +0.000 A 
ATOM      9  C   UNL     1       5.711   5.272  16.875  0.00  0.00    +0.000 A 
ATOM     10  C   UNL     1       4.839   4.289  17.372  0.00  0.00    +0.000 A 
ENDROOT
BRANCH   1  14
ATOM     11  C   UNL     1       0.832  10.128  20.100  0.00  0.00    +0.000 A 
ATOM     12  C   UNL     1       1.185   9.729  18.806  0.00  0.00    +0.000 A 
ATOM     13  C   UNL     1       1.689   8.450  18.542  0.00  0.00    +0.000 A 
ATOM     14  C   UNL     1       1.884   7.506  19.554  0.00  0.00    +0.000 A 
ATOM     15  C   UNL     1       1.543   7.906  20.852  0.00  0.00    +0.000 A 
ATOM     16  C   UNL     1       1.036   9.191  21.122  0.00  0.00    +0.000 A 
BRANCH  11  18
ATOM     17  C   UNL     1      -0.359  11.597  21.828  0.00  0.00    +0.000 C 
ATOM     18  C   UNL     1       0.200  11.498  20.389  0.00  0.00    +0.000 C 
ATOM     19  C   UNL     1      -0.963  11.799  19.420  0.00  0.00    +0.000 C 
ATOM     20  C   UNL     1       1.269  12.600  20.229  0.00  0.00    +0.000 C 
ENDBRANCH  11  18
ENDBRANCH   1  14
BRANCH   8  21
ATOM     21  N   UNL     1       6.431   7.614  16.906  0.00  0.00    +0.000 N 
ATOM     22  H   UNL     1       6.234   8.026  15.998  0.00  0.00    +0.000 HD
ATOM     23  H   UNL     1       7.407   7.373  17.043  0.00  0.00    +0.000 HD
ENDBRANCH   8  21
BRANCH  10  24
ATOM     24  N   UNL     1       4.871   2.956  16.943  0.00  0.00    +0.000 N 
ATOM     25  H   UNL     1       5.790   2.558  16.762  0.00  0.00    +0.000 HD
ATOM     26  H   UNL     1       4.267   2.307  17.439  0.00  0.00    +0.000 HD
ENDBRANCH  10  24
BRANCH   9  27
ATOM     27  C   UNL     1       6.816   4.913  16.056  0.00  0.00    +0.000 C 
ATOM     28  N   UNL     1       7.728   4.641  15.379  0.00  0.00    +0.000 NA
ENDBRANCH   9  27
TORSDOF 5
ENDMDL
MODEL 7
REMARK VINA RESULT:      -7.0      3.879      8.154
REMARK  Name = 
REMARK  8 active torsions:
REMARK  status: ('A' for Active; 'I' for Inactive)
REMARK    1  A    between atoms: C_1  and  C_2
REMARK    2  A    between atoms: C_2  and  C_3
REMARK    3  A    between atoms: C_2  and  C_4
REMARK    4  A    between atoms: C_2  and  C_5
REMARK    5  A    between atoms: C_8  and  N_9
REMARK    6  A    between atoms: C_16  and  N_17
REMARK    7  A    between atoms: C_18  and  C_19
REMARK    8  A    between atoms: C_21  and  N_22
REMARK                            x       y       z     vdW  Elec       q    Type
REMARK                         _______ _______ _______ _____ _____    ______ ____
ROOT
ATOM      1  N   UNL     1       2.597   6.344  19.344  0.00  0.00    +0.000 N 
ATOM      2  C   UNL     1       2.379   5.259  20.220  0.00  0.00    +0.000 C 
ATOM      3  O   UNL     1       1.865   5.226  21.329  0.00  0.00    +0.000 OA
ATOM      4  C   UNL     1       2.860   4.007  19.510  0.00  0.00    +0.000 C 
ATOM      5  C   UNL     1       3.583   4.554  18.331  0.00  0.00    +0.000 A 
ATOM      6  C   UNL     1       3.397   5.929  18.257  0.00  0.00    +0.000 A 
ATOM      7  N   UNL     1       3.982   6.697  17.323  0.00  0.00    +0.000 NA
ATOM      8  C   UNL     1       4.777   6.074  16.424  0.00  0.00    +0.000 A 
ATOM      9  C   UNL     1       4.974   4.679  16.417  0.00  0.00    +0.000 A 
ATOM     10  C   UNL     1       4.368   3.888  17.407  0.00  0.00    +0.000 A 
ENDROOT
BRANCH   1  14
ATOM     11  C   UNL     1       0.660  10.154  19.777  0.00  0.00    +0.000 A 
ATOM     12  C   UNL     1       0.869   9.292  20.860  0.00  0.00    +0.000 A 
ATOM     13  C   UNL     1       1.538   8.072  20.711  0.00  0.00    +0.000 A 
ATOM     14  C   UNL     1       2.019   7.637  19.473  0.00  0.00    +0.000 A 
ATOM     15  C   UNL     1       1.802   8.491  18.385  0.00  0.00    +0.000 A 
ATOM     16  C   UNL     1       1.130   9.719  18.530  0.00  0.00    +0.000 A 
BRANCH  11  18
ATOM     17  C   UNL     1      -1.468  11.546  19.461  0.00  0.00    +0.000 C 
ATOM     18  C   UNL     1       0.001  11.532  19.945  0.00  0.00    +0.000 C 
ATOM     19  C   UNL     1       0.758  12.619  19.153  0.00  0.00    +0.000 C 
ATOM     20  C   UNL     1       0.002  11.924  21.438  0.00  0.00    +0.000 C 
ENDBRANCH  11  18
ENDBRANCH   1  14
BRANCH   8  21
ATOM     21  N   UNL     1       5.506   6.925  15.595  0.00  0.00    +0.000 N 
ATOM     22  H   UNL     1       5.739   7.783  16.088  0.00  0.00    +0.000 HD
ATOM     23  H   UNL     1       5.139   7.075  14.662  0.00  0.00    +0.000 HD
ENDBRANCH   8  21
BRANCH  10  24
ATOM     24  N   UNL     1       4.356   2.488  17.360  0.00  0.00    +0.000 N 
ATOM     25  H   UNL     1       5.034   2.047  16.742  0.00  0.00    +0.000 HD
ATOM     26  H   UNL     1       4.288   2.006  18.252  0.00  0.00    +0.000 HD
ENDBRANCH  10  24
BRANCH   9  27
ATOM     27  C   UNL     1       5.793   4.088  15.417  0.00  0.00    +0.000 C 
ATOM     28  N   UNL     1       6.463   3.621  14.583  0.00  0.00    +0.000 NA
ENDBRANCH   9  27
TORSDOF 5
ENDMDL
MODEL 8
REMARK VINA RESULT:      -7.0      3.359      4.543
REMARK  Name = 
REMARK  8 active torsions:
REMARK  status: ('A' for Active; 'I' for Inactive)
REMARK    1  A    between atoms: C_1  and  C_2
REMARK    2  A    between atoms: C_2  and  C_3
REMARK    3  A    between atoms: C_2  and  C_4
REMARK    4  A    between atoms: C_2  and  C_5
REMARK    5  A    between atoms: C_8  and  N_9
REMARK    6  A    between atoms: C_16  and  N_17
REMARK    7  A    between atoms: C_18  and  C_19
REMARK    8  A    between atoms: C_21  and  N_22
REMARK                            x       y       z     vdW  Elec       q    Type
REMARK                         _______ _______ _______ _____ _____    ______ ____
ROOT
ATOM      1  N   UNL     1       0.436  11.184  18.816  0.00  0.00    +0.000 N 
ATOM      2  C   UNL     1      -0.933  11.507  18.930  0.00  0.00    +0.000 C 
ATOM      3  O   UNL     1      -1.924  10.791  18.887  0.00  0.00    +0.000 OA
ATOM      4  C   UNL     1      -1.020  12.999  19.198  0.00  0.00    +0.000 C 
ATOM      5  C   UNL     1       0.371  13.460  18.944  0.00  0.00    +0.000 A 
ATOM      6  C   UNL     1       1.202  12.366  18.736  0.00  0.00    +0.000 A 
ATOM      7  N   UNL     1       2.504  12.486  18.429  0.00  0.00    +0.000 NA
ATOM      8  C   UNL     1       3.001  13.740  18.330  0.00  0.00    +0.000 A 
ATOM      9  C   UNL     1       2.223  14.889  18.571  0.00  0.00    +0.000 A 
ATOM     10  C   UNL     1       0.859  14.753  18.879  0.00  0.00    +0.000 A 
ENDROOT
BRANCH   1  14
ATOM     11  C   UNL     1       2.244   7.298  19.114  0.00  0.00    +0.000 A 
ATOM     12  C   UNL     1       1.660   7.938  20.212  0.00  0.00    +0.000 A 
ATOM     13  C   UNL     1       1.038   9.186  20.092  0.00  0.00    +0.000 A 
ATOM     14  C   UNL     1       0.980   9.872  18.875  0.00  0.00    +0.000 A 
ATOM     15  C   UNL     1       1.574   9.239  17.776  0.00  0.00    +0.000 A 
ATOM     16  C   UNL     1       2.200   7.984  17.892  0.00  0.00    +0.000 A 
BRANCH  11  18
ATOM     17  C   UNL     1       4.401   5.923  19.265  0.00  0.00    +0.000 C 
ATOM     18  C   UNL     1       2.855   5.892  19.217  0.00  0.00    +0.000 C 
ATOM     19  C   UNL     1       2.448   5.011  18.018  0.00  0.00    +0.000 C 
ATOM     20  C   UNL     1       2.364   5.213  20.513  0.00  0.00    +0.000 C 
ENDBRANCH  11  18
ENDBRANCH   1  14
BRANCH   8  21
ATOM     21  N   UNL     1       4.299  13.821  17.830  0.00  0.00    +0.000 N 
ATOM     22  H   UNL     1       4.452  13.102  17.127  0.00  0.00    +0.000 HD
ATOM     23  H   UNL     1       5.046  13.892  18.511  0.00  0.00    +0.000 HD
ENDBRANCH   8  21
BRANCH  10  24
ATOM     24  N   UNL     1       0.067  15.822  19.316  0.00  0.00    +0.000 N 
ATOM     25  H   UNL     1      -0.938  15.661  19.345  0.00  0.00    +0.000 HD
ATOM     26  H   UNL     1       0.394  16.322  20.137  0.00  0.00    +0.000 HD
ENDBRANCH  10  24
BRANCH   9  27
ATOM     27  C   UNL     1       2.822  16.176  18.487  0.00  0.00    +0.000 C 
ATOM     28  N   UNL     1       3.328  17.227  18.436  0.00  0.00    +0.000 NA
ENDBRANCH   9  27
TORSDOF 5
ENDMDL
MODEL 9
REMARK VINA RESULT:      -6.9      3.885      8.082
REMARK  Name = 
REMARK  8 active torsions:
REMARK  status: ('A' for Active; 'I' for Inactive)
REMARK    1  A    between atoms: C_1  and  C_2
REMARK    2  A    between atoms: C_2  and  C_3
REMARK    3  A    between atoms: C_2  and  C_4
REMARK    4  A    between atoms: C_2  and  C_5
REMARK    5  A    between atoms: C_8  and  N_9
REMARK    6  A    between atoms: C_16  and  N_17
REMARK    7  A    between atoms: C_18  and  C_19
REMARK    8  A    between atoms: C_21  and  N_22
REMARK                            x       y       z     vdW  Elec       q    Type
REMARK                         _______ _______ _______ _____ _____    ______ ____
ROOT
ATOM      1  N   UNL     1       2.567   6.323  19.343  0.00  0.00    +0.000 N 
ATOM      2  C   UNL     1       2.384   5.237  20.224  0.00  0.00    +0.000 C 
ATOM      3  O   UNL     1       1.870   5.191  21.333  0.00  0.00    +0.000 OA
ATOM      4  C   UNL     1       2.911   3.998  19.522  0.00  0.00    +0.000 C 
ATOM      5  C   UNL     1       3.617   4.564  18.342  0.00  0.00    +0.000 A 
ATOM      6  C   UNL     1       3.383   5.931  18.260  0.00  0.00    +0.000 A 
ATOM      7  N   UNL     1       3.943   6.714  17.323  0.00  0.00    +0.000 NA
ATOM      8  C   UNL     1       4.761   6.114  16.429  0.00  0.00    +0.000 A 
ATOM      9  C   UNL     1       5.007   4.727  16.430  0.00  0.00    +0.000 A 
ATOM     10  C   UNL     1       4.426   3.920  17.423  0.00  0.00    +0.000 A 
ENDROOT
BRANCH   1  14
ATOM     11  C   UNL     1       0.878  10.261  19.668  0.00  0.00    +0.000 A 
ATOM     12  C   UNL     1       1.322   9.734  18.449  0.00  0.00    +0.000 A 
ATOM     13  C   UNL     1       1.832   8.435  18.351  0.00  0.00    +0.000 A 
ATOM     14  C   UNL     1       1.944   7.596  19.464  0.00  0.00    +0.000 A 
ATOM     15  C   UNL     1       1.511   8.124  20.687  0.00  0.00    +0.000 A 
ATOM     16  C   UNL     1       0.998   9.430  20.790  0.00  0.00    +0.000 A 
BRANCH  11  18
ATOM     17  C   UNL     1       0.983  12.709  18.917  0.00  0.00    +0.000 C 
ATOM     18  C   UNL     1       0.240  11.655  19.772  0.00  0.00    +0.000 C 
ATOM     19  C   UNL     1       0.231  12.164  21.228  0.00  0.00    +0.000 C 
ATOM     20  C   UNL     1      -1.217  11.590  19.266  0.00  0.00    +0.000 C 
ENDBRANCH  11  18
ENDBRANCH   1  14
BRANCH   8  21
ATOM     21  N   UNL     1       5.462   6.986  15.597  0.00  0.00    +0.000 N 
ATOM     22  H   UNL     1       5.219   6.818  14.625  0.00  0.00    +0.000 HD
ATOM     23  H   UNL     1       6.459   7.069  15.762  0.00  0.00    +0.000 HD
ENDBRANCH   8  21
BRANCH  10  24
ATOM     24  N   UNL     1       4.464   2.521  17.384  0.00  0.00    +0.000 N 
ATOM     25  H   UNL     1       3.567   2.043  17.315  0.00  0.00    +0.000 HD
ATOM     26  H   UNL     1       5.162   2.103  16.775  0.00  0.00    +0.000 HD
ENDBRANCH  10  24
BRANCH   9  27
ATOM     27  C   UNL     1       5.848   4.160  15.435  0.00  0.00    +0.000 C 
ATOM     28  N   UNL     1       6.533   3.710  14.603  0.00  0.00    +0.000 NA
ENDBRANCH   9  27
TORSDOF 5
ENDMDL
