MODEL 1
REMARK VINA RESULT:      -7.4      0.000      0.000
REMARK  Name = 
REMARK  7 active torsions:
REMARK  status: ('A' for Active; 'I' for Inactive)
REMARK    1  A    between atoms: C_1  and  C_2
REMARK    2  A    between atoms: C_2  and  N_3
REMARK    3  A    between atoms: N_3  and  C_4
REMARK    4  A    between atoms: C_6  and  C_7
REMARK    5  A    between atoms: C_7  and  C_9
REMARK    6  A    between atoms: C_14  and  N_15
REMARK    7  A    between atoms: C_16  and  C_17
REMARK                            x       y       z     vdW  Elec       q    Type
REMARK                         _______ _______ _______ _____ _____    ______ ____
ROOT
ATOM      1  C   UNL     1       3.067   4.607  17.877  0.00  0.00    +0.000 A 
ATOM      2  S   UNL     1       4.234   3.594  17.140  0.00  0.00    +0.000 S 
ATOM      3  C   UNL     1       5.323   4.885  16.822  0.00  0.00    +0.000 A 
ATOM      4  C   UNL     1       4.787   6.088  17.248  0.00  0.00    +0.000 A 
ATOM      5  C   UNL     1       3.513   5.925  17.903  0.00  0.00    +0.000 A 
ENDROOT
BRANCH   5   6
ATOM      6  C   UNL     1       2.691   7.023  18.561  0.00  0.00    +0.000 A 
ATOM      7  N   UNL     1       2.335   6.958  19.831  0.00  0.00    +0.000 NA
ATOM      8  C   UNL     1       1.663   8.108  20.203  0.00  0.00    +0.000 A 
ATOM      9  C   UNL     1       1.177   8.401  21.491  0.00  0.00    +0.000 A 
ATOM     10  C   UNL     1       0.528   9.616  21.721  0.00  0.00    +0.000 A 
ATOM     11  C   UNL     1       0.346  10.531  20.691  0.00  0.00    +0.000 A 
ATOM     12  C   UNL     1       0.817  10.264  19.405  0.00  0.00    +0.000 A 
ATOM     13  C   UNL     1       1.481   9.046  19.192  0.00  0.00    +0.000 A 
ATOM     14  S   UNL     1       2.188   8.459  17.753  0.00  0.00    +0.000 S 
ENDBRANCH   5   6
BRANCH   4  15
ATOM     15  N   UNL     1       5.380   7.295  17.079  0.00  0.00    +0.000 N 
ATOM     16  H   UNL     1       6.004   7.740  17.748  0.00  0.00    +0.000 HD
ATOM     17  H   UNL     1       5.312   7.812  16.207  0.00  0.00    +0.000 HD
ENDBRANCH   4  15
BRANCH   1  18
ATOM     18  N   UNL     1       1.858   4.160  18.332  0.00  0.00    +0.000 N 
ATOM     19  H   UNL     1       1.147   4.892  18.448  0.00  0.00    +0.000 HD
BRANCH  18  21
ATOM     20  C   UNL     1       2.140   3.485  20.647  0.00  0.00    +0.000 C 
ATOM     21  C   UNL     1       1.717   3.046  19.253  0.00  0.00    +0.000 C 
ENDBRANCH  18  21
ENDBRANCH   1  18
BRANCH   3  22
ATOM     22  C   UNL     1       6.578   4.539  16.147  0.00  0.00    +0.000 C 
ATOM     23  O   UNL     1       7.642   4.435  16.748  0.00  0.00    +0.000 OA
BRANCH  22  24
ATOM     24  C   UNL     1       6.483   4.320  14.700  0.00  0.00    +0.000 A 
ATOM     25  C   UNL     1       5.563   3.603  13.953  0.00  0.00    +0.000 A 
ATOM     26  C   UNL     1       5.905   3.542  12.570  0.00  0.00    +0.000 A 
ATOM     27  C   UNL     1       7.023   4.292  12.285  0.00  0.00    +0.000 A 
ATOM     28  S   UNL     1       7.661   5.044  13.681  0.00  0.00    +0.000 S 
ENDBRANCH  22  24
ENDBRANCH   3  22
TORSDOF 6
ENDMDL
MODEL 2
REMARK VINA RESULT:      -7.3      0.873      1.335
REMARK  Name = 
REMARK  7 active torsions:
REMARK  status: ('A' for Active; 'I' for Inactive)
REMARK    1  A    between atoms: C_1  and  C_2
REMARK    2  A    between atoms: C_2  and  N_3
REMARK    3  A    between atoms: N_3  and  C_4
REMARK    4  A    between atoms: C_6  and  C_7
REMARK    5  A    between atoms: C_7  and  C_9
REMARK    6  A    between atoms: C_14  and  N_15
REMARK    7  A    between atoms: C_16  and  C_17
REMARK                            x       y       z     vdW  Elec       q    Type
REMARK                         _______ _______ _______ _____ _____    ______ ____
ROOT
ATOM      1  C   UNL     1       3.011   4.675  17.645  0.00  0.00    +0.000 A 
ATOM      2  S   UNL     1       4.146   3.638  16.892  0.00  0.00    +0.000 S 
ATOM      3  C   UNL     1       5.316   4.880  16.684  0.00  0.00    +0.000 A 
ATOM      4  C   UNL     1       4.832   6.086  17.159  0.00  0.00    +0.000 A 
ATOM      5  C   UNL     1       3.527   5.962  17.760  0.00  0.00    +0.000 A 
ENDROOT
BRANCH   5   6
ATOM      6  C   UNL     1       2.743   7.068  18.450  0.00  0.00    +0.000 A 
ATOM      7  N   UNL     1       2.408   8.178  17.820  0.00  0.00    +0.000 NA
ATOM      8  C   UNL     1       1.638   8.984  18.639  0.00  0.00    +0.000 A 
ATOM      9  C   UNL     1       1.070  10.222  18.283  0.00  0.00    +0.000 A 
ATOM     10  C   UNL     1       0.300  10.919  19.218  0.00  0.00    +0.000 A 
ATOM     11  C   UNL     1       0.101  10.411  20.495  0.00  0.00    +0.000 A 
ATOM     12  C   UNL     1       0.654   9.187  20.873  0.00  0.00    +0.000 A 
ATOM     13  C   UNL     1       1.412   8.489  19.920  0.00  0.00    +0.000 A 
ATOM     14  S   UNL     1       2.179   6.972  20.074  0.00  0.00    +0.000 S 
ENDBRANCH   5   6
BRANCH   4  15
ATOM     15  N   UNL     1       5.497   7.264  17.078  0.00  0.00    +0.000 N 
ATOM     16  H   UNL     1       5.938   7.743  17.859  0.00  0.00    +0.000 HD
ATOM     17  H   UNL     1       5.683   7.718  16.189  0.00  0.00    +0.000 HD
ENDBRANCH   4  15
BRANCH   1  18
ATOM     18  N   UNL     1       1.762   4.273  18.032  0.00  0.00    +0.000 N 
ATOM     19  H   UNL     1       1.135   5.037  18.311  0.00  0.00    +0.000 HD
BRANCH  18  21
ATOM     20  C   UNL     1       1.041   3.299  20.136  0.00  0.00    +0.000 C 
ATOM     21  C   UNL     1       1.506   3.018  18.715  0.00  0.00    +0.000 C 
ENDBRANCH  18  21
ENDBRANCH   1  18
BRANCH   3  22
ATOM     22  C   UNL     1       6.574   4.499  16.035  0.00  0.00    +0.000 C 
ATOM     23  O   UNL     1       7.623   4.364  16.657  0.00  0.00    +0.000 OA
BRANCH  22  24
ATOM     24  C   UNL     1       6.502   4.283  14.585  0.00  0.00    +0.000 A 
ATOM     25  C   UNL     1       5.609   3.548  13.824  0.00  0.00    +0.000 A 
ATOM     26  C   UNL     1       5.969   3.501  12.445  0.00  0.00    +0.000 A 
ATOM     27  C   UNL     1       7.072   4.279  12.177  0.00  0.00    +0.000 A 
ATOM     28  S   UNL     1       7.674   5.040  13.583  0.00  0.00    +0.000 S 
ENDBRANCH  22  24
ENDBRANCH   3  22
TORSDOF 6
ENDMDL
MODEL 3
REMARK VINA RESULT:      -7.2      1.251      1.424
REMARK  Name = 
REMARK  7 active torsions:
REMARK  status: ('A' for Active; 'I' for Inactive)
REMARK    1  A    between atoms: C_1  and  C_2
REMARK    2  A    between atoms: C_2  and  N_3
REMARK    3  A    between atoms: N_3  and  C_4
REMARK    4  A    between atoms: C_6  and  C_7
REMARK    5  A    between atoms: C_7  and  C_9
REMARK    6  A    between atoms: C_14  and  N_15
REMARK    7  A    between atoms: C_16  and  C_17
REMARK                            x       y       z     vdW  Elec       q    Type
REMARK                         _______ _______ _______ _____ _____    ______ ____
ROOT
ATOM      1  C   UNL     1       2.992   5.136  19.715  0.00  0.00    +0.000 A 
ATOM      2  S   UNL     1       4.232   4.016  19.342  0.00  0.00    +0.000 S 
ATOM      3  C   UNL     1       5.031   5.085  18.260  0.00  0.00    +0.000 A 
ATOM      4  C   UNL     1       4.340   6.281  18.160  0.00  0.00    +0.000 A 
ATOM      5  C   UNL     1       3.196   6.333  19.036  0.00  0.00    +0.000 A 
ENDROOT
BRANCH   5   6
ATOM      6  C   UNL     1       2.269   7.522  19.238  0.00  0.00    +0.000 A 
ATOM      7  N   UNL     1       1.743   7.800  20.416  0.00  0.00    +0.000 NA
ATOM      8  C   UNL     1       1.003   8.968  20.351  0.00  0.00    +0.000 A 
ATOM      9  C   UNL     1       0.339   9.586  21.426  0.00  0.00    +0.000 A 
ATOM     10  C   UNL     1      -0.360  10.776  21.210  0.00  0.00    +0.000 A 
ATOM     11  C   UNL     1      -0.416  11.347  19.945  0.00  0.00    +0.000 A 
ATOM     12  C   UNL     1       0.233  10.753  18.862  0.00  0.00    +0.000 A 
ATOM     13  C   UNL     1       0.944   9.567  19.096  0.00  0.00    +0.000 A 
ATOM     14  S   UNL     1       1.855   8.637  17.992  0.00  0.00    +0.000 S 
ENDBRANCH   5   6
BRANCH   4  15
ATOM     15  N   UNL     1       4.687   7.300  17.337  0.00  0.00    +0.000 N 
ATOM     16  H   UNL     1       4.041   7.980  16.942  0.00  0.00    +0.000 HD
ATOM     17  H   UNL     1       5.656   7.515  17.124  0.00  0.00    +0.000 HD
ENDBRANCH   4  15
BRANCH   1  18
ATOM     18  N   UNL     1       1.939   4.850  20.540  0.00  0.00    +0.000 N 
ATOM     19  H   UNL     1       2.056   5.170  21.509  0.00  0.00    +0.000 HD
BRANCH  18  21
ATOM     20  C   UNL     1       1.395   2.722  21.574  0.00  0.00    +0.000 C 
ATOM     21  C   UNL     1       1.124   3.656  20.404  0.00  0.00    +0.000 C 
ENDBRANCH  18  21
ENDBRANCH   1  18
BRANCH   3  22
ATOM     22  C   UNL     1       6.246   4.582  17.611  0.00  0.00    +0.000 C 
ATOM     23  O   UNL     1       7.247   4.262  18.243  0.00  0.00    +0.000 OA
BRANCH  22  24
ATOM     24  C   UNL     1       6.189   4.478  16.149  0.00  0.00    +0.000 A 
ATOM     25  C   UNL     1       5.235   3.913  15.319  0.00  0.00    +0.000 A 
ATOM     26  C   UNL     1       5.626   3.918  13.947  0.00  0.00    +0.000 A 
ATOM     27  C   UNL     1       6.822   4.571  13.758  0.00  0.00    +0.000 A 
ATOM     28  S   UNL     1       7.472   5.153  15.228  0.00  0.00    +0.000 S 
ENDBRANCH  22  24
ENDBRANCH   3  22
TORSDOF 6
ENDMDL
MODEL 4
REMARK VINA RESULT:      -7.1      3.061      7.705
REMARK  Name = 
REMARK  7 active torsions:
REMARK  status: ('A' for Active; 'I' for Inactive)
REMARK    1  A    between atoms: C_1  and  C_2
REMARK    2  A    between atoms: C_2  and  N_3
REMARK    3  A    between atoms: N_3  and  C_4
REMARK    4  A    between atoms: C_6  and  C_7
REMARK    5  A    between atoms: C_7  and  C_9
REMARK    6  A    between atoms: C_14  and  N_15
REMARK    7  A    between atoms: C_16  and  C_17
REMARK                            x       y       z     vdW  Elec       q    Type
REMARK                         _______ _______ _______ _____ _____    ______ ____
ROOT
ATOM      1  C   UNL     1       1.934   7.032  20.292  0.00  0.00    +0.000 A 
ATOM      2  S   UNL     1       0.900   8.191  21.013  0.00  0.00    +0.000 S 
ATOM      3  C   UNL     1       1.042   9.300  19.708  0.00  0.00    +0.000 A 
ATOM      4  C   UNL     1       1.898   8.803  18.740  0.00  0.00    +0.000 A 
ATOM      5  C   UNL     1       2.372   7.477  19.048  0.00  0.00    +0.000 A 
ENDROOT
BRANCH   5   6
ATOM      6  C   UNL     1       3.256   6.608  18.167  0.00  0.00    +0.000 A 
ATOM      7  N   UNL     1       4.397   7.054  17.674  0.00  0.00    +0.000 NA
ATOM      8  C   UNL     1       5.044   6.052  16.973  0.00  0.00    +0.000 A 
ATOM      9  C   UNL     1       6.302   6.158  16.352  0.00  0.00    +0.000 A 
ATOM     10  C   UNL     1       6.838   5.051  15.690  0.00  0.00    +0.000 A 
ATOM     11  C   UNL     1       6.138   3.853  15.628  0.00  0.00    +0.000 A 
ATOM     12  C   UNL     1       4.888   3.722  16.235  0.00  0.00    +0.000 A 
ATOM     13  C   UNL     1       4.369   4.837  16.910  0.00  0.00    +0.000 A 
ATOM     14  S   UNL     1       2.898   4.972  17.766  0.00  0.00    +0.000 S 
ENDBRANCH   5   6
BRANCH   4  15
ATOM     15  N   UNL     1       2.260   9.474  17.620  0.00  0.00    +0.000 N 
ATOM     16  H   UNL     1       2.745   9.067  16.824  0.00  0.00    +0.000 HD
ATOM     17  H   UNL     1       1.986  10.438  17.456  0.00  0.00    +0.000 HD
ENDBRANCH   4  15
BRANCH   1  18
ATOM     18  N   UNL     1       2.293   5.860  20.898  0.00  0.00    +0.000 N 
ATOM     19  H   UNL     1       3.304   5.675  20.906  0.00  0.00    +0.000 HD
BRANCH  18  21
ATOM     20  C   UNL     1       2.182   3.541  21.608  0.00  0.00    +0.000 C 
ATOM     21  C   UNL     1       1.473   4.663  20.864  0.00  0.00    +0.000 C 
ENDBRANCH  18  21
ENDBRANCH   1  18
BRANCH   3  22
ATOM     22  C   UNL     1       0.299  10.558  19.827  0.00  0.00    +0.000 C 
ATOM     23  O   UNL     1       0.648  11.461  20.581  0.00  0.00    +0.000 OA
BRANCH  22  24
ATOM     24  C   UNL     1      -0.894  10.675  18.982  0.00  0.00    +0.000 A 
ATOM     25  C   UNL     1      -1.292   9.946  17.874  0.00  0.00    +0.000 A 
ATOM     26  C   UNL     1      -2.472  10.467  17.266  0.00  0.00    +0.000 A 
ATOM     27  C   UNL     1      -2.993  11.521  17.981  0.00  0.00    +0.000 A 
ATOM     28  S   UNL     1      -2.053  11.885  19.361  0.00  0.00    +0.000 S 
ENDBRANCH  22  24
ENDBRANCH   3  22
TORSDOF 6
ENDMDL
MODEL 5
REMARK VINA RESULT:      -6.8      1.618      2.170
REMARK  Name = 
REMARK  7 active torsions:
REMARK  status: ('A' for Active; 'I' for Inactive)
REMARK    1  A    between atoms: C_1  and  C_2
REMARK    2  A    between atoms: C_2  and  N_3
REMARK    3  A    between atoms: N_3  and  C_4
REMARK    4  A    between atoms: C_6  and  C_7
REMARK    5  A    between atoms: C_7  and  C_9
REMARK    6  A    between atoms: C_14  and  N_15
REMARK    7  A    between atoms: C_16  and  C_17
REMARK                            x       y       z     vdW  Elec       q    Type
REMARK                         _______ _______ _______ _____ _____    ______ ____
ROOT
ATOM      1  C   UNL     1       2.918   5.057  19.723  0.00  0.00    +0.000 A 
ATOM      2  S   UNL     1       4.177   3.951  19.370  0.00  0.00    +0.000 S 
ATOM      3  C   UNL     1       5.082   5.094  18.460  0.00  0.00    +0.000 A 
ATOM      4  C   UNL     1       4.414   6.305  18.399  0.00  0.00    +0.000 A 
ATOM      5  C   UNL     1       3.194   6.303  19.168  0.00  0.00    +0.000 A 
ENDROOT
BRANCH   5   6
ATOM      6  C   UNL     1       2.264   7.487  19.385  0.00  0.00    +0.000 A 
ATOM      7  N   UNL     1       1.880   8.260  18.386  0.00  0.00    +0.000 NA
ATOM      8  C   UNL     1       0.980   9.212  18.831  0.00  0.00    +0.000 A 
ATOM      9  C   UNL     1       0.333  10.174  18.033  0.00  0.00    +0.000 A 
ATOM     10  C   UNL     1      -0.566  11.065  18.625  0.00  0.00    +0.000 A 
ATOM     11  C   UNL     1      -0.816  11.020  19.990  0.00  0.00    +0.000 A 
ATOM     12  C   UNL     1      -0.186  10.077  20.803  0.00  0.00    +0.000 A 
ATOM     13  C   UNL     1       0.702   9.178  20.194  0.00  0.00    +0.000 A 
ATOM     14  S   UNL     1       1.588   7.907  20.912  0.00  0.00    +0.000 S 
ENDBRANCH   5   6
BRANCH   4  15
ATOM     15  N   UNL     1       4.844   7.383  17.701  0.00  0.00    +0.000 N 
ATOM     16  H   UNL     1       4.494   7.669  16.790  0.00  0.00    +0.000 HD
ATOM     17  H   UNL     1       5.503   8.050  18.090  0.00  0.00    +0.000 HD
ENDBRANCH   4  15
BRANCH   1  18
ATOM     18  N   UNL     1       1.791   4.721  20.421  0.00  0.00    +0.000 N 
ATOM     19  H   UNL     1       1.702   5.180  21.335  0.00  0.00    +0.000 HD
BRANCH  18  21
ATOM     20  C   UNL     1       1.481   2.642  21.636  0.00  0.00    +0.000 C 
ATOM     21  C   UNL     1       1.177   3.407  20.356  0.00  0.00    +0.000 C 
ENDBRANCH  18  21
ENDBRANCH   1  18
BRANCH   3  22
ATOM     22  C   UNL     1       6.346   4.626  17.884  0.00  0.00    +0.000 C 
ATOM     23  O   UNL     1       7.317   4.332  18.575  0.00  0.00    +0.000 OA
BRANCH  22  24
ATOM     24  C   UNL     1       6.380   4.525  16.421  0.00  0.00    +0.000 A 
ATOM     25  C   UNL     1       7.315   4.976  15.505  0.00  0.00    +0.000 A 
ATOM     26  C   UNL     1       6.903   4.776  14.154  0.00  0.00    +0.000 A 
ATOM     27  C   UNL     1       5.711   4.093  14.078  0.00  0.00    +0.000 A 
ATOM     28  S   UNL     1       5.090   3.717  15.625  0.00  0.00    +0.000 S 
ENDBRANCH  22  24
ENDBRANCH   3  22
TORSDOF 6
ENDMDL
MODEL 6
REMARK VINA RESULT:      -6.7      3.967      6.110
REMARK  Name = 
REMARK  7 active torsions:
REMARK  status: ('A' for Active; 'I' for Inactive)
REMARK    1  A    between atoms: C_1  and  C_2
REMARK    2  A    between atoms: C_2  and  N_3
REMARK    3  A    between atoms: N_3  and  C_4
REMARK    4  A    between atoms: C_6  and  C_7
REMARK    5  A    between atoms: C_7  and  C_9
REMARK    6  A    between atoms: C_14  and  N_15
REMARK    7  A    between atoms: C_16  and  C_17
REMARK                            x       y       z     vdW  Elec       q    Type
REMARK                         _______ _______ _______ _____ _____    ______ ____
ROOT
ATOM      1  C   UNL     1       1.723   9.462  18.492  0.00  0.00    +0.000 A 
ATOM      2  S   UNL     1       2.680   8.161  17.922  0.00  0.00    +0.000 S 
ATOM      3  C   UNL     1       2.440   7.214  19.336  0.00  0.00    +0.000 A 
ATOM      4  C   UNL     1       1.659   7.898  20.252  0.00  0.00    +0.000 A 
ATOM      5  C   UNL     1       1.201   9.169  19.748  0.00  0.00    +0.000 A 
ENDROOT
BRANCH   5   6
ATOM      6  C   UNL     1       0.263  10.134  20.457  0.00  0.00    +0.000 A 
ATOM      7  N   UNL     1      -0.606  10.872  19.791  0.00  0.00    +0.000 NA
ATOM      8  C   UNL     1      -1.389  11.604  20.667  0.00  0.00    +0.000 A 
ATOM      9  C   UNL     1      -2.444  12.464  20.311  0.00  0.00    +0.000 A 
ATOM     10  C   UNL     1      -3.158  13.128  21.312  0.00  0.00    +0.000 A 
ATOM     11  C   UNL     1      -2.828  12.958  22.650  0.00  0.00    +0.000 A 
ATOM     12  C   UNL     1      -1.785  12.112  23.030  0.00  0.00    +0.000 A 
ATOM     13  C   UNL     1      -1.087  11.439  22.015  0.00  0.00    +0.000 A 
ATOM     14  S   UNL     1       0.200  10.328  22.167  0.00  0.00    +0.000 S 
ENDBRANCH   5   6
BRANCH   4  15
ATOM     15  N   UNL     1       1.348   7.438  21.488  0.00  0.00    +0.000 N 
ATOM     16  H   UNL     1       1.955   6.868  22.071  0.00  0.00    +0.000 HD
ATOM     17  H   UNL     1       0.496   7.715  21.967  0.00  0.00    +0.000 HD
ENDBRANCH   4  15
BRANCH   1  18
ATOM     18  N   UNL     1       1.548  10.629  17.802  0.00  0.00    +0.000 N 
ATOM     19  H   UNL     1       1.122  10.517  16.874  0.00  0.00    +0.000 HD
BRANCH  18  21
ATOM     20  C   UNL     1       1.676  12.999  18.316  0.00  0.00    +0.000 C 
ATOM     21  C   UNL     1       2.455  11.758  17.905  0.00  0.00    +0.000 C 
ENDBRANCH  18  21
ENDBRANCH   1  18
BRANCH   3  22
ATOM     22  C   UNL     1       3.097   5.904  19.372  0.00  0.00    +0.000 C 
ATOM     23  O   UNL     1       4.317   5.777  19.394  0.00  0.00    +0.000 OA
BRANCH  22  24
ATOM     24  C   UNL     1       2.199   4.743  19.383  0.00  0.00    +0.000 A 
ATOM     25  C   UNL     1       1.564   4.102  20.433  0.00  0.00    +0.000 A 
ATOM     26  C   UNL     1       0.869   2.926  20.021  0.00  0.00    +0.000 A 
ATOM     27  C   UNL     1       0.914   2.758  18.656  0.00  0.00    +0.000 A 
ATOM     28  S   UNL     1       1.804   3.997  17.887  0.00  0.00    +0.000 S 
ENDBRANCH  22  24
ENDBRANCH   3  22
TORSDOF 6
ENDMDL
MODEL 7
REMARK VINA RESULT:      -6.6      3.995      5.994
REMARK  Name = 
REMARK  7 active torsions:
REMARK  status: ('A' for Active; 'I' for Inactive)
REMARK    1  A    between atoms: C_1  and  C_2
REMARK    2  A    between atoms: C_2  and  N_3
REMARK    3  A    between atoms: N_3  and  C_4
REMARK    4  A    between atoms: C_6  and  C_7
REMARK    5  A    between atoms: C_7  and  C_9
REMARK    6  A    between atoms: C_14  and  N_15
REMARK    7  A    between atoms: C_16  and  C_17
REMARK                            x       y       z     vdW  Elec       q    Type
REMARK                         _______ _______ _______ _____ _____    ______ ____
ROOT
ATOM      1  C   UNL     1       1.839   9.444  18.384  0.00  0.00    +0.000 A 
ATOM      2  S   UNL     1       2.845   8.129  17.947  0.00  0.00    +0.000 S 
ATOM      3  C   UNL     1       2.448   7.211  19.344  0.00  0.00    +0.000 A 
ATOM      4  C   UNL     1       1.575   7.915  20.156  0.00  0.00    +0.000 A 
ATOM      5  C   UNL     1       1.182   9.178  19.581  0.00  0.00    +0.000 A 
ENDROOT
BRANCH   5   6
ATOM      6  C   UNL     1       0.177  10.160  20.165  0.00  0.00    +0.000 A 
ATOM      7  N   UNL     1       0.313  10.652  21.382  0.00  0.00    +0.000 NA
ATOM      8  C   UNL     1      -0.683  11.574  21.645  0.00  0.00    +0.000 A 
ATOM      9  C   UNL     1      -0.823  12.326  22.826  0.00  0.00    +0.000 A 
ATOM     10  C   UNL     1      -1.878  13.235  22.941  0.00  0.00    +0.000 A 
ATOM     11  C   UNL     1      -2.795  13.394  21.910  0.00  0.00    +0.000 A 
ATOM     12  C   UNL     1      -2.679  12.660  20.729  0.00  0.00    +0.000 A 
ATOM     13  C   UNL     1      -1.606  11.762  20.620  0.00  0.00    +0.000 A 
ATOM     14  S   UNL     1      -1.188  10.760  19.303  0.00  0.00    +0.000 S 
ENDBRANCH   5   6
BRANCH   4  15
ATOM     15  N   UNL     1       1.129   7.482  21.360  0.00  0.00    +0.000 N 
ATOM     16  H   UNL     1       1.451   7.824  22.262  0.00  0.00    +0.000 HD
ATOM     17  H   UNL     1       0.356   6.829  21.445  0.00  0.00    +0.000 HD
ENDBRANCH   4  15
BRANCH   1  18
ATOM     18  N   UNL     1       1.746  10.598  17.656  0.00  0.00    +0.000 N 
ATOM     19  H   UNL     1       1.500  10.462  16.669  0.00  0.00    +0.000 HD
BRANCH  18  21
ATOM     20  C   UNL     1       1.695  12.925  18.350  0.00  0.00    +0.000 C 
ATOM     21  C   UNL     1       2.574  11.765  17.905  0.00  0.00    +0.000 C 
ENDBRANCH  18  21
ENDBRANCH   1  18
BRANCH   3  22
ATOM     22  C   UNL     1       3.089   5.900  19.476  0.00  0.00    +0.000 C 
ATOM     23  O   UNL     1       4.301   5.769  19.615  0.00  0.00    +0.000 OA
BRANCH  22  24
ATOM     24  C   UNL     1       2.187   4.743  19.436  0.00  0.00    +0.000 A 
ATOM     25  C   UNL     1       1.461   4.127  20.442  0.00  0.00    +0.000 A 
ATOM     26  C   UNL     1       0.796   2.947  19.997  0.00  0.00    +0.000 A 
ATOM     27  C   UNL     1       0.955   2.749  18.645  0.00  0.00    +0.000 A 
ATOM     28  S   UNL     1       1.915   3.967  17.928  0.00  0.00    +0.000 S 
ENDBRANCH  22  24
ENDBRANCH   3  22
TORSDOF 6
ENDMDL
MODEL 8
REMARK VINA RESULT:      -6.5      3.222      7.720
REMARK  Name = 
REMARK  7 active torsions:
REMARK  status: ('A' for Active; 'I' for Inactive)
REMARK    1  A    between atoms: C_1  and  C_2
REMARK    2  A    between atoms: C_2  and  N_3
REMARK    3  A    between atoms: N_3  and  C_4
REMARK    4  A    between atoms: C_6  and  C_7
REMARK    5  A    between atoms: C_7  and  C_9
REMARK    6  A    between atoms: C_14  and  N_15
REMARK    7  A    between atoms: C_16  and  C_17
REMARK                            x       y       z     vdW  Elec       q    Type
REMARK                         _______ _______ _______ _____ _____    ______ ____
ROOT
ATOM      1  C   UNL     1       1.836   7.289  20.236  0.00  0.00    +0.000 A 
ATOM      2  S   UNL     1       0.730   8.397  20.929  0.00  0.00    +0.000 S 
ATOM      3  C   UNL     1       0.845   9.507  19.623  0.00  0.00    +0.000 A 
ATOM      4  C   UNL     1       1.745   9.051  18.676  0.00  0.00    +0.000 A 
ATOM      5  C   UNL     1       2.278   7.751  19.000  0.00  0.00    +0.000 A 
ENDROOT
BRANCH   5   6
ATOM      6  C   UNL     1       3.223   6.924  18.141  0.00  0.00    +0.000 A 
ATOM      7  N   UNL     1       3.151   5.607  18.099  0.00  0.00    +0.000 NA
ATOM      8  C   UNL     1       4.065   5.102  17.192  0.00  0.00    +0.000 A 
ATOM      9  C   UNL     1       4.235   3.746  16.858  0.00  0.00    +0.000 A 
ATOM     10  C   UNL     1       5.194   3.386  15.907  0.00  0.00    +0.000 A 
ATOM     11  C   UNL     1       5.987   4.351  15.300  0.00  0.00    +0.000 A 
ATOM     12  C   UNL     1       5.839   5.702  15.614  0.00  0.00    +0.000 A 
ATOM     13  C   UNL     1       4.862   6.051  16.558  0.00  0.00    +0.000 A 
ATOM     14  S   UNL     1       4.430   7.605  17.118  0.00  0.00    +0.000 S 
ENDBRANCH   5   6
BRANCH   4  15
ATOM     15  N   UNL     1       2.098   9.736  17.561  0.00  0.00    +0.000 N 
ATOM     16  H   UNL     1       1.512  10.414  17.080  0.00  0.00    +0.000 HD
ATOM     17  H   UNL     1       3.033   9.683  17.169  0.00  0.00    +0.000 HD
ENDBRANCH   4  15
BRANCH   1  18
ATOM     18  N   UNL     1       2.240   6.138  20.854  0.00  0.00    +0.000 N 
ATOM     19  H   UNL     1       3.256   5.991  20.862  0.00  0.00    +0.000 HD
BRANCH  18  21
ATOM     20  C   UNL     1       2.325   3.760  21.335  0.00  0.00    +0.000 C 
ATOM     21  C   UNL     1       1.464   4.911  20.836  0.00  0.00    +0.000 C 
ENDBRANCH  18  21
ENDBRANCH   1  18
BRANCH   3  22
ATOM     22  C   UNL     1       0.038  10.728  19.721  0.00  0.00    +0.000 C 
ATOM     23  O   UNL     1       0.337  11.658  20.463  0.00  0.00    +0.000 OA
BRANCH  22  24
ATOM     24  C   UNL     1      -1.155  10.771  18.868  0.00  0.00    +0.000 A 
ATOM     25  C   UNL     1      -1.514  10.001  17.775  0.00  0.00    +0.000 A 
ATOM     26  C   UNL     1      -2.713  10.454  17.151  0.00  0.00    +0.000 A 
ATOM     27  C   UNL     1      -3.286  11.498  17.841  0.00  0.00    +0.000 A 
ATOM     28  S   UNL     1      -2.370  11.935  19.216  0.00  0.00    +0.000 S 
ENDBRANCH  22  24
ENDBRANCH   3  22
TORSDOF 6
ENDMDL
MODEL 9
REMARK VINA RESULT:      -6.5      1.367      1.753
REMARK  Name = 
REMARK  7 active torsions:
REMARK  status: ('A' for Active; 'I' for Inactive)
REMARK    1  A    between atoms: C_1  and  C_2
REMARK    2  A    between atoms: C_2  and  N_3
REMARK    3  A    between atoms: N_3  and  C_4
REMARK    4  A    between atoms: C_6  and  C_7
REMARK    5  A    between atoms: C_7  and  C_9
REMARK    6  A    between atoms: C_14  and  N_15
REMARK    7  A    between atoms: C_16  and  C_17
REMARK                            x       y       z     vdW  Elec       q    Type
REMARK                         _______ _______ _______ _____ _____    ______ ____
ROOT
ATOM      1  C   UNL     1       4.019   4.244  17.564  0.00  0.00    +0.000 A 
ATOM      2  S   UNL     1       5.108   3.457  16.503  0.00  0.00    +0.000 S 
ATOM      3  C   UNL     1       5.632   4.920  15.770  0.00  0.00    +0.000 A 
ATOM      4  C   UNL     1       4.959   6.002  16.310  0.00  0.00    +0.000 A 
ATOM      5  C   UNL     1       4.068   5.622  17.379  0.00  0.00    +0.000 A 
ENDROOT
BRANCH   5   6
ATOM      6  C   UNL     1       3.241   6.564  18.240  0.00  0.00    +0.000 A 
ATOM      7  N   UNL     1       2.783   7.711  17.773  0.00  0.00    +0.000 NA
ATOM      8  C   UNL     1       2.001   8.342  18.724  0.00  0.00    +0.000 A 
ATOM      9  C   UNL     1       1.318   9.561  18.556  0.00  0.00    +0.000 A 
ATOM     10  C   UNL     1       0.551  10.070  19.607  0.00  0.00    +0.000 A 
ATOM     11  C   UNL     1       0.467   9.394  20.817  0.00  0.00    +0.000 A 
ATOM     12  C   UNL     1       1.136   8.184  21.010  0.00  0.00    +0.000 A 
ATOM     13  C   UNL     1       1.890   7.676  19.941  0.00  0.00    +0.000 A 
ATOM     14  S   UNL     1       2.781   6.222  19.864  0.00  0.00    +0.000 S 
ENDBRANCH   5   6
BRANCH   4  15
ATOM     15  N   UNL     1       5.108   7.283  15.894  0.00  0.00    +0.000 N 
ATOM     16  H   UNL     1       5.661   7.992  16.368  0.00  0.00    +0.000 HD
ATOM     17  H   UNL     1       4.738   7.608  15.006  0.00  0.00    +0.000 HD
ENDBRANCH   4  15
BRANCH   1  18
ATOM     18  N   UNL     1       3.199   3.580  18.434  0.00  0.00    +0.000 N 
ATOM     19  H   UNL     1       3.634   3.340  19.333  0.00  0.00    +0.000 HD
BRANCH  18  21
ATOM     20  C   UNL     1       1.008   2.689  18.983  0.00  0.00    +0.000 C 
ATOM     21  C   UNL     1       2.173   2.646  18.005  0.00  0.00    +0.000 C 
ENDBRANCH  18  21
ENDBRANCH   1  18
BRANCH   3  22
ATOM     22  C   UNL     1       6.639   4.803  14.711  0.00  0.00    +0.000 C 
ATOM     23  O   UNL     1       7.777   5.246  14.830  0.00  0.00    +0.000 OA
BRANCH  22  24
ATOM     24  C   UNL     1       6.201   4.116  13.491  0.00  0.00    +0.000 A 
ATOM     25  C   UNL     1       4.942   3.705  13.086  0.00  0.00    +0.000 A 
ATOM     26  C   UNL     1       4.970   2.957  11.872  0.00  0.00    +0.000 A 
ATOM     27  C   UNL     1       6.236   2.900  11.336  0.00  0.00    +0.000 A 
ATOM     28  S   UNL     1       7.378   3.725  12.302  0.00  0.00    +0.000 S 
ENDBRANCH  22  24
ENDBRANCH   3  22
TORSDOF 6
ENDMDL
