MODEL 1
REMARK VINA RESULT:      -7.9      0.000      0.000
REMARK  Name = 
REMARK  4 active torsions:
REMARK  status: ('A' for Active; 'I' for Inactive)
REMARK    1  A    between atoms: S_2  and  C_4
REMARK    2  A    between atoms: S_2  and  C_16
REMARK    3  A    between atoms: C_4  and  C_5
REMARK    4  A    between atoms: N_9  and  C_10
REMARK                            x       y       z     vdW  Elec       q    Type
REMARK                         _______ _______ _______ _____ _____    ______ ____
ROOT
ATOM      1  C   UNL     1       5.103   6.536  17.183  0.00  0.00    +0.000 C 
ENDROOT
BRANCH   1   2
ATOM      2  C   UNL     1       6.370   5.804  17.372  0.00  0.00    +0.000 A 
ATOM      3  N   UNL     1       7.017   5.749  18.521  0.00  0.00    +0.000 NA
ATOM      4  N   UNL     1       7.982   4.797  18.379  0.00  0.00    +0.000 NA
ATOM      5  N   UNL     1       7.947   4.265  17.168  0.00  0.00    +0.000 NA
ATOM      6  N   UNL     1       7.009   4.953  16.472  0.00  0.00    +0.000 N 
BRANCH   6   7
ATOM      7  C   UNL     1       6.809   4.706  15.092  0.00  0.00    +0.000 A 
ATOM      8  C   UNL     1       7.683   5.302  14.165  0.00  0.00    +0.000 A 
ATOM      9  C   UNL     1       7.594   4.978  12.811  0.00  0.00    +0.000 A 
ATOM     10  C   UNL     1       6.616   4.091  12.367  0.00  0.00    +0.000 A 
ATOM     11  C   UNL     1       5.695   3.565  13.270  0.00  0.00    +0.000 A 
ATOM     12  C   UNL     1       5.782   3.879  14.628  0.00  0.00    +0.000 A 
ENDBRANCH   6   7
ENDBRANCH   1   2
BRANCH   1  14
ATOM     13  O   UNL     1       3.085   4.906  17.443  0.00  0.00    +0.000 OA
ATOM     14  S   UNL     1       3.835   5.865  18.234  0.00  0.00    +0.000 S 
ATOM     15  O   UNL     1       4.443   5.441  19.484  0.00  0.00    +0.000 OA
BRANCH  14  16
ATOM     16  C   UNL     1       2.717   7.198  18.619  0.00  0.00    +0.000 A 
ATOM     17  C   UNL     1       2.179   7.303  19.906  0.00  0.00    +0.000 A 
ATOM     18  C   UNL     1       1.385   8.405  20.233  0.00  0.00    +0.000 A 
ATOM     19  C   UNL     1       1.144   9.398  19.282  0.00  0.00    +0.000 A 
ATOM     20 CL   UNL     1       0.182  10.763  19.695  0.00  0.00    +0.000 Cl
ATOM     21  C   UNL     1       1.692   9.299  18.003  0.00  0.00    +0.000 A 
ATOM     22  C   UNL     1       2.489   8.200  17.670  0.00  0.00    +0.000 A 
ENDBRANCH  14  16
ENDBRANCH   1  14
TORSDOF 4
ENDMDL
MODEL 2
REMARK VINA RESULT:      -7.9      1.587      2.101
REMARK  Name = 
REMARK  4 active torsions:
REMARK  status: ('A' for Active; 'I' for Inactive)
REMARK    1  A    between atoms: S_2  and  C_4
REMARK    2  A    between atoms: S_2  and  C_16
REMARK    3  A    between atoms: C_4  and  C_5
REMARK    4  A    between atoms: N_9  and  C_10
REMARK                            x       y       z     vdW  Elec       q    Type
REMARK                         _______ _______ _______ _____ _____    ______ ____
ROOT
ATOM      1  C   UNL     1       4.177   4.268  16.479  0.00  0.00    +0.000 C 
ENDROOT
BRANCH   1   2
ATOM      2  C   UNL     1       5.596   4.479  16.824  0.00  0.00    +0.000 A 
ATOM      3  N   UNL     1       6.039   4.583  18.063  0.00  0.00    +0.000 NA
ATOM      4  N   UNL     1       7.398   4.517  17.998  0.00  0.00    +0.000 NA
ATOM      5  N   UNL     1       7.805   4.376  16.746  0.00  0.00    +0.000 NA
ATOM      6  N   UNL     1       6.697   4.455  15.970  0.00  0.00    +0.000 N 
BRANCH   6   7
ATOM      7  C   UNL     1       6.804   4.461  14.558  0.00  0.00    +0.000 A 
ATOM      8  C   UNL     1       7.673   5.384  13.950  0.00  0.00    +0.000 A 
ATOM      9  C   UNL     1       7.899   5.330  12.574  0.00  0.00    +0.000 A 
ATOM     10  C   UNL     1       7.237   4.386  11.793  0.00  0.00    +0.000 A 
ATOM     11  C   UNL     1       6.312   3.526  12.379  0.00  0.00    +0.000 A 
ATOM     12  C   UNL     1       6.085   3.569  13.756  0.00  0.00    +0.000 A 
ENDBRANCH   6   7
ENDBRANCH   1   2
BRANCH   1  14
ATOM     13  O   UNL     1       2.068   3.026  17.377  0.00  0.00    +0.000 OA
ATOM     14  S   UNL     1       3.284   3.638  17.883  0.00  0.00    +0.000 S 
ATOM     15  O   UNL     1       4.194   2.853  18.699  0.00  0.00    +0.000 OA
BRANCH  14  16
ATOM     16  C   UNL     1       2.783   5.043  18.856  0.00  0.00    +0.000 A 
ATOM     17  C   UNL     1       2.849   6.328  18.307  0.00  0.00    +0.000 A 
ATOM     18  C   UNL     1       2.360   7.416  19.035  0.00  0.00    +0.000 A 
ATOM     19  C   UNL     1       1.800   7.213  20.298  0.00  0.00    +0.000 A 
ATOM     20 CL   UNL     1       1.181   8.552  21.183  0.00  0.00    +0.000 Cl
ATOM     21  C   UNL     1       1.722   5.930  20.839  0.00  0.00    +0.000 A 
ATOM     22  C   UNL     1       2.207   4.839  20.115  0.00  0.00    +0.000 A 
ENDBRANCH  14  16
ENDBRANCH   1  14
TORSDOF 4
ENDMDL
MODEL 3
REMARK VINA RESULT:      -7.8      3.218      4.286
REMARK  Name = 
REMARK  4 active torsions:
REMARK  status: ('A' for Active; 'I' for Inactive)
REMARK    1  A    between atoms: S_2  and  C_4
REMARK    2  A    between atoms: S_2  and  C_16
REMARK    3  A    between atoms: C_4  and  C_5
REMARK    4  A    between atoms: N_9  and  C_10
REMARK                            x       y       z     vdW  Elec       q    Type
REMARK                         _______ _______ _______ _____ _____    ______ ____
ROOT
ATOM      1  C   UNL     1       6.115   4.035  15.571  0.00  0.00    +0.000 C 
ENDROOT
BRANCH   1   2
ATOM      2  C   UNL     1       6.872   4.666  14.473  0.00  0.00    +0.000 A 
ATOM      3  N   UNL     1       7.787   5.599  14.659  0.00  0.00    +0.000 NA
ATOM      4  N   UNL     1       8.434   5.752  13.470  0.00  0.00    +0.000 NA
ATOM      5  N   UNL     1       7.939   4.935  12.553  0.00  0.00    +0.000 NA
ATOM      6  N   UNL     1       6.881   4.311  13.125  0.00  0.00    +0.000 N 
BRANCH   6   7
ATOM      7  C   UNL     1       6.052   3.453  12.364  0.00  0.00    +0.000 A 
ATOM      8  C   UNL     1       4.739   3.863  12.073  0.00  0.00    +0.000 A 
ATOM      9  C   UNL     1       3.941   3.102  11.218  0.00  0.00    +0.000 A 
ATOM     10  C   UNL     1       4.429   1.913  10.680  0.00  0.00    +0.000 A 
ATOM     11  C   UNL     1       5.698   1.460  11.033  0.00  0.00    +0.000 A 
ATOM     12  C   UNL     1       6.505   2.220  11.882  0.00  0.00    +0.000 A 
ENDBRANCH   6   7
ENDBRANCH   1   2
BRANCH   1  14
ATOM     13  O   UNL     1       6.412   5.498  17.708  0.00  0.00    +0.000 OA
ATOM     14  S   UNL     1       5.439   5.274  16.653  0.00  0.00    +0.000 S 
ATOM     15  O   UNL     1       4.984   6.396  15.849  0.00  0.00    +0.000 OA
BRANCH  14  16
ATOM     16  C   UNL     1       4.000   4.564  17.426  0.00  0.00    +0.000 A 
ATOM     17  C   UNL     1       3.922   3.179  17.608  0.00  0.00    +0.000 A 
ATOM     18  C   UNL     1       2.840   2.635  18.306  0.00  0.00    +0.000 A 
ATOM     19  C   UNL     1       1.853   3.474  18.825  0.00  0.00    +0.000 A 
ATOM     20 CL   UNL     1       0.533   2.803  19.700  0.00  0.00    +0.000 Cl
ATOM     21  C   UNL     1       1.939   4.856  18.655  0.00  0.00    +0.000 A 
ATOM     22  C   UNL     1       3.019   5.406  17.961  0.00  0.00    +0.000 A 
ENDBRANCH  14  16
ENDBRANCH   1  14
TORSDOF 4
ENDMDL
MODEL 4
REMARK VINA RESULT:      -7.7      3.318      4.200
REMARK  Name = 
REMARK  4 active torsions:
REMARK  status: ('A' for Active; 'I' for Inactive)
REMARK    1  A    between atoms: S_2  and  C_4
REMARK    2  A    between atoms: S_2  and  C_16
REMARK    3  A    between atoms: C_4  and  C_5
REMARK    4  A    between atoms: N_9  and  C_10
REMARK                            x       y       z     vdW  Elec       q    Type
REMARK                         _______ _______ _______ _____ _____    ______ ____
ROOT
ATOM      1  C   UNL     1       6.049   3.937  15.602  0.00  0.00    +0.000 C 
ENDROOT
BRANCH   1   2
ATOM      2  C   UNL     1       6.838   4.652  14.580  0.00  0.00    +0.000 A 
ATOM      3  N   UNL     1       7.725   5.587  14.866  0.00  0.00    +0.000 NA
ATOM      4  N   UNL     1       8.419   5.829  13.719  0.00  0.00    +0.000 NA
ATOM      5  N   UNL     1       7.979   5.066  12.730  0.00  0.00    +0.000 NA
ATOM      6  N   UNL     1       6.911   4.387  13.215  0.00  0.00    +0.000 N 
BRANCH   6   7
ATOM      7  C   UNL     1       6.133   3.565  12.364  0.00  0.00    +0.000 A 
ATOM      8  C   UNL     1       6.705   2.387  11.852  0.00  0.00    +0.000 A 
ATOM      9  C   UNL     1       5.925   1.492  11.118  0.00  0.00    +0.000 A 
ATOM     10  C   UNL     1       4.588   1.781  10.857  0.00  0.00    +0.000 A 
ATOM     11  C   UNL     1       4.040   2.986  11.290  0.00  0.00    +0.000 A 
ATOM     12  C   UNL     1       4.812   3.884  12.031  0.00  0.00    +0.000 A 
ENDBRANCH   6   7
ENDBRANCH   1   2
BRANCH   1  14
ATOM     13  O   UNL     1       7.259   4.317  17.880  0.00  0.00    +0.000 OA
ATOM     14  S   UNL     1       6.102   4.808  17.152  0.00  0.00    +0.000 S 
ATOM     15  O   UNL     1       5.973   6.232  16.889  0.00  0.00    +0.000 OA
BRANCH  14  16
ATOM     16  C   UNL     1       4.665   4.311  18.079  0.00  0.00    +0.000 A 
ATOM     17  C   UNL     1       4.300   5.022  19.227  0.00  0.00    +0.000 A 
ATOM     18  C   UNL     1       3.116   4.694  19.894  0.00  0.00    +0.000 A 
ATOM     19  C   UNL     1       2.301   3.672  19.405  0.00  0.00    +0.000 A 
ATOM     20 CL   UNL     1       0.835   3.285  20.216  0.00  0.00    +0.000 Cl
ATOM     21  C   UNL     1       2.659   2.973  18.252  0.00  0.00    +0.000 A 
ATOM     22  C   UNL     1       3.840   3.297  17.580  0.00  0.00    +0.000 A 
ENDBRANCH  14  16
ENDBRANCH   1  14
TORSDOF 4
ENDMDL
MODEL 5
REMARK VINA RESULT:      -7.7      2.553      3.296
REMARK  Name = 
REMARK  4 active torsions:
REMARK  status: ('A' for Active; 'I' for Inactive)
REMARK    1  A    between atoms: S_2  and  C_4
REMARK    2  A    between atoms: S_2  and  C_16
REMARK    3  A    between atoms: C_4  and  C_5
REMARK    4  A    between atoms: N_9  and  C_10
REMARK                            x       y       z     vdW  Elec       q    Type
REMARK                         _______ _______ _______ _____ _____    ______ ____
ROOT
ATOM      1  C   UNL     1       2.118   5.288  17.870  0.00  0.00    +0.000 C 
ENDROOT
BRANCH   1   2
ATOM      2  C   UNL     1       2.655   3.941  18.145  0.00  0.00    +0.000 A 
ATOM      3  N   UNL     1       2.000   3.020  18.827  0.00  0.00    +0.000 NA
ATOM      4  N   UNL     1       2.683   1.854  18.661  0.00  0.00    +0.000 NA
ATOM      5  N   UNL     1       3.745   2.033  17.892  0.00  0.00    +0.000 NA
ATOM      6  N   UNL     1       3.815   3.362  17.636  0.00  0.00    +0.000 N 
BRANCH   6   7
ATOM      7  C   UNL     1       4.917   3.904  16.931  0.00  0.00    +0.000 A 
ATOM      8  C   UNL     1       6.090   4.210  17.642  0.00  0.00    +0.000 A 
ATOM      9  C   UNL     1       7.235   4.623  16.960  0.00  0.00    +0.000 A 
ATOM     10  C   UNL     1       7.209   4.769  15.575  0.00  0.00    +0.000 A 
ATOM     11  C   UNL     1       6.025   4.548  14.876  0.00  0.00    +0.000 A 
ATOM     12  C   UNL     1       4.877   4.128  15.551  0.00  0.00    +0.000 A 
ENDBRANCH   6   7
ENDBRANCH   1   2
BRANCH   1  14
ATOM     13  O   UNL     1       3.796   5.972  19.745  0.00  0.00    +0.000 OA
ATOM     14  S   UNL     1       3.189   6.535  18.552  0.00  0.00    +0.000 S 
ATOM     15  O   UNL     1       4.038   7.049  17.490  0.00  0.00    +0.000 OA
BRANCH  14  16
ATOM     16  C   UNL     1       2.150   7.877  19.091  0.00  0.00    +0.000 A 
ATOM     17  C   UNL     1       1.717   8.834  18.167  0.00  0.00    +0.000 A 
ATOM     18  C   UNL     1       0.819   9.827  18.571  0.00  0.00    +0.000 A 
ATOM     19  C   UNL     1       0.352   9.850  19.886  0.00  0.00    +0.000 A 
ATOM     20 CL   UNL     1      -0.767  11.061  20.374  0.00  0.00    +0.000 Cl
ATOM     21  C   UNL     1       0.774   8.888  20.804  0.00  0.00    +0.000 A 
ATOM     22  C   UNL     1       1.669   7.892  20.405  0.00  0.00    +0.000 A 
ENDBRANCH  14  16
ENDBRANCH   1  14
TORSDOF 4
ENDMDL
MODEL 6
REMARK VINA RESULT:      -7.7      2.557      3.150
REMARK  Name = 
REMARK  4 active torsions:
REMARK  status: ('A' for Active; 'I' for Inactive)
REMARK    1  A    between atoms: S_2  and  C_4
REMARK    2  A    between atoms: S_2  and  C_16
REMARK    3  A    between atoms: C_4  and  C_5
REMARK    4  A    between atoms: N_9  and  C_10
REMARK                            x       y       z     vdW  Elec       q    Type
REMARK                         _______ _______ _______ _____ _____    ______ ____
ROOT
ATOM      1  C   UNL     1       2.118   5.285  17.827  0.00  0.00    +0.000 C 
ENDROOT
BRANCH   1   2
ATOM      2  C   UNL     1       2.648   3.936  18.107  0.00  0.00    +0.000 A 
ATOM      3  N   UNL     1       1.977   3.012  18.771  0.00  0.00    +0.000 NA
ATOM      4  N   UNL     1       2.664   1.846  18.614  0.00  0.00    +0.000 NA
ATOM      5  N   UNL     1       3.743   2.029  17.870  0.00  0.00    +0.000 NA
ATOM      6  N   UNL     1       3.819   3.359  17.622  0.00  0.00    +0.000 N 
BRANCH   6   7
ATOM      7  C   UNL     1       4.937   3.903  16.945  0.00  0.00    +0.000 A 
ATOM      8  C   UNL     1       6.081   4.239  17.690  0.00  0.00    +0.000 A 
ATOM      9  C   UNL     1       7.243   4.655  17.038  0.00  0.00    +0.000 A 
ATOM     10  C   UNL     1       7.262   4.777  15.651  0.00  0.00    +0.000 A 
ATOM     11  C   UNL     1       6.105   4.527  14.917  0.00  0.00    +0.000 A 
ATOM     12  C   UNL     1       4.940   4.103  15.561  0.00  0.00    +0.000 A 
ENDBRANCH   6   7
ENDBRANCH   1   2
BRANCH   1  14
ATOM     13  O   UNL     1       3.723   5.927  19.779  0.00  0.00    +0.000 OA
ATOM     14  S   UNL     1       3.138   6.525  18.592  0.00  0.00    +0.000 S 
ATOM     15  O   UNL     1       4.007   7.102  17.579  0.00  0.00    +0.000 OA
BRANCH  14  16
ATOM     16  C   UNL     1       2.052   7.820  19.152  0.00  0.00    +0.000 A 
ATOM     17  C   UNL     1       1.648   7.857  20.491  0.00  0.00    +0.000 A 
ATOM     18  C   UNL     1       0.880   8.931  20.951  0.00  0.00    +0.000 A 
ATOM     19  C   UNL     1       0.532   9.963  20.077  0.00  0.00    +0.000 A 
ATOM     20 CL   UNL     1      -0.396  11.292  20.652  0.00  0.00    +0.000 Cl
ATOM     21  C   UNL     1       0.947   9.932  18.746  0.00  0.00    +0.000 A 
ATOM     22  C   UNL     1       1.717   8.863  18.281  0.00  0.00    +0.000 A 
ENDBRANCH  14  16
ENDBRANCH   1  14
TORSDOF 4
ENDMDL
MODEL 7
REMARK VINA RESULT:      -7.7      2.625      3.366
REMARK  Name = 
REMARK  4 active torsions:
REMARK  status: ('A' for Active; 'I' for Inactive)
REMARK    1  A    between atoms: S_2  and  C_4
REMARK    2  A    between atoms: S_2  and  C_16
REMARK    3  A    between atoms: C_4  and  C_5
REMARK    4  A    between atoms: N_9  and  C_10
REMARK                            x       y       z     vdW  Elec       q    Type
REMARK                         _______ _______ _______ _____ _____    ______ ____
ROOT
ATOM      1  C   UNL     1       2.117   5.075  18.193  0.00  0.00    +0.000 C 
ENDROOT
BRANCH   1   2
ATOM      2  C   UNL     1       2.675   3.710  18.237  0.00  0.00    +0.000 A 
ATOM      3  N   UNL     1       2.049   2.682  18.779  0.00  0.00    +0.000 NA
ATOM      4  N   UNL     1       2.741   1.567  18.414  0.00  0.00    +0.000 NA
ATOM      5  N   UNL     1       3.782   1.883  17.659  0.00  0.00    +0.000 NA
ATOM      6  N   UNL     1       3.829   3.237  17.616  0.00  0.00    +0.000 N 
BRANCH   6   7
ATOM      7  C   UNL     1       4.907   3.901  16.982  0.00  0.00    +0.000 A 
ATOM      8  C   UNL     1       6.047   4.218  17.741  0.00  0.00    +0.000 A 
ATOM      9  C   UNL     1       7.175   4.754  17.119  0.00  0.00    +0.000 A 
ATOM     10  C   UNL     1       7.163   5.012  15.750  0.00  0.00    +0.000 A 
ATOM     11  C   UNL     1       6.006   4.779  15.010  0.00  0.00    +0.000 A 
ATOM     12  C   UNL     1       4.876   4.236  15.624  0.00  0.00    +0.000 A 
ENDBRANCH   6   7
ENDBRANCH   1   2
BRANCH   1  14
ATOM     13  O   UNL     1       1.823   5.465  20.754  0.00  0.00    +0.000 OA
ATOM     14  S   UNL     1       2.594   5.990  19.641  0.00  0.00    +0.000 S 
ATOM     15  O   UNL     1       4.046   6.008  19.722  0.00  0.00    +0.000 OA
BRANCH  14  16
ATOM     16  C   UNL     1       2.061   7.671  19.396  0.00  0.00    +0.000 A 
ATOM     17  C   UNL     1       2.197   8.266  18.137  0.00  0.00    +0.000 A 
ATOM     18  C   UNL     1       1.685   9.548  17.921  0.00  0.00    +0.000 A 
ATOM     19  C   UNL     1       1.032  10.221  18.955  0.00  0.00    +0.000 A 
ATOM     20 CL   UNL     1       0.385  11.791  18.679  0.00  0.00    +0.000 Cl
ATOM     21  C   UNL     1       0.884   9.622  20.206  0.00  0.00    +0.000 A 
ATOM     22  C   UNL     1       1.392   8.339  20.427  0.00  0.00    +0.000 A 
ENDBRANCH  14  16
ENDBRANCH   1  14
TORSDOF 4
ENDMDL
MODEL 8
REMARK VINA RESULT:      -7.7      2.577      3.380
REMARK  Name = 
REMARK  4 active torsions:
REMARK  status: ('A' for Active; 'I' for Inactive)
REMARK    1  A    between atoms: S_2  and  C_4
REMARK    2  A    between atoms: S_2  and  C_16
REMARK    3  A    between atoms: C_4  and  C_5
REMARK    4  A    between atoms: N_9  and  C_10
REMARK                            x       y       z     vdW  Elec       q    Type
REMARK                         _______ _______ _______ _____ _____    ______ ____
ROOT
ATOM      1  C   UNL     1       2.135   5.276  17.824  0.00  0.00    +0.000 C 
ENDROOT
BRANCH   1   2
ATOM      2  C   UNL     1       2.630   3.921  18.135  0.00  0.00    +0.000 A 
ATOM      3  N   UNL     1       1.922   3.018  18.788  0.00  0.00    +0.000 NA
ATOM      4  N   UNL     1       2.592   1.837  18.666  0.00  0.00    +0.000 NA
ATOM      5  N   UNL     1       3.697   1.992  17.954  0.00  0.00    +0.000 NA
ATOM      6  N   UNL     1       3.805   3.317  17.693  0.00  0.00    +0.000 N 
BRANCH   6   7
ATOM      7  C   UNL     1       4.953   3.833  17.046  0.00  0.00    +0.000 A 
ATOM      8  C   UNL     1       4.914   4.032  15.654  0.00  0.00    +0.000 A 
ATOM      9  C   UNL     1       5.978   4.659  15.006  0.00  0.00    +0.000 A 
ATOM     10  C   UNL     1       7.101   5.055  15.728  0.00  0.00    +0.000 A 
ATOM     11  C   UNL     1       7.181   4.784  17.092  0.00  0.00    +0.000 A 
ATOM     12  C   UNL     1       6.116   4.163  17.749  0.00  0.00    +0.000 A 
ENDBRANCH   6   7
ENDBRANCH   1   2
BRANCH   1  14
ATOM     13  O   UNL     1       3.765   5.937  19.748  0.00  0.00    +0.000 OA
ATOM     14  S   UNL     1       3.201   6.508  18.538  0.00  0.00    +0.000 S 
ATOM     15  O   UNL     1       4.089   7.011  17.503  0.00  0.00    +0.000 OA
BRANCH  14  16
ATOM     16  C   UNL     1       2.164   7.864  19.047  0.00  0.00    +0.000 A 
ATOM     17  C   UNL     1       1.730   8.799  18.101  0.00  0.00    +0.000 A 
ATOM     18  C   UNL     1       0.834   9.801  18.483  0.00  0.00    +0.000 A 
ATOM     19  C   UNL     1       0.370   9.857  19.799  0.00  0.00    +0.000 A 
ATOM     20 CL   UNL     1      -0.747  11.080  20.260  0.00  0.00    +0.000 Cl
ATOM     21  C   UNL     1       0.793   8.916  20.738  0.00  0.00    +0.000 A 
ATOM     22  C   UNL     1       1.686   7.910  20.361  0.00  0.00    +0.000 A 
ENDBRANCH  14  16
ENDBRANCH   1  14
TORSDOF 4
ENDMDL
MODEL 9
REMARK VINA RESULT:      -7.7      2.413      3.081
REMARK  Name = 
REMARK  4 active torsions:
REMARK  status: ('A' for Active; 'I' for Inactive)
REMARK    1  A    between atoms: S_2  and  C_4
REMARK    2  A    between atoms: S_2  and  C_16
REMARK    3  A    between atoms: C_4  and  C_5
REMARK    4  A    between atoms: N_9  and  C_10
REMARK                            x       y       z     vdW  Elec       q    Type
REMARK                         _______ _______ _______ _____ _____    ______ ____
ROOT
ATOM      1  C   UNL     1       3.809   5.617  19.619  0.00  0.00    +0.000 C 
ENDROOT
BRANCH   1   2
ATOM      2  C   UNL     1       3.811   4.177  19.293  0.00  0.00    +0.000 A 
ATOM      3  N   UNL     1       3.158   3.270  19.996  0.00  0.00    +0.000 NA
ATOM      4  N   UNL     1       3.184   2.120  19.265  0.00  0.00    +0.000 NA
ATOM      5  N   UNL     1       3.839   2.297  18.128  0.00  0.00    +0.000 NA
ATOM      6  N   UNL     1       4.338   3.556  18.163  0.00  0.00    +0.000 N 
BRANCH   6   7
ATOM      7  C   UNL     1       5.198   4.020  17.139  0.00  0.00    +0.000 A 
ATOM      8  C   UNL     1       6.500   4.427  17.480  0.00  0.00    +0.000 A 
ATOM      9  C   UNL     1       7.412   4.765  16.481  0.00  0.00    +0.000 A 
ATOM     10  C   UNL     1       7.026   4.738  15.143  0.00  0.00    +0.000 A 
ATOM     11  C   UNL     1       5.713   4.417  14.806  0.00  0.00    +0.000 A 
ATOM     12  C   UNL     1       4.796   4.070  15.800  0.00  0.00    +0.000 A 
ENDBRANCH   6   7
ENDBRANCH   1   2
BRANCH   1  14
ATOM     13  O   UNL     1       3.898   7.163  17.521  0.00  0.00    +0.000 OA
ATOM     14  S   UNL     1       2.915   6.533  18.384  0.00  0.00    +0.000 S 
ATOM     15  O   UNL     1       1.904   5.664  17.802  0.00  0.00    +0.000 OA
BRANCH  14  16
ATOM     16  C   UNL     1       2.057   7.845  19.228  0.00  0.00    +0.000 A 
ATOM     17  C   UNL     1       1.661   8.984  18.519  0.00  0.00    +0.000 A 
ATOM     18  C   UNL     1       0.899   9.965  19.160  0.00  0.00    +0.000 A 
ATOM     19  C   UNL     1       0.528   9.798  20.495  0.00  0.00    +0.000 A 
ATOM     20 CL   UNL     1      -0.426  10.999  21.275  0.00  0.00    +0.000 Cl
ATOM     21  C   UNL     1       0.912   8.656  21.198  0.00  0.00    +0.000 A 
ATOM     22  C   UNL     1       1.672   7.671  20.562  0.00  0.00    +0.000 A 
ENDBRANCH  14  16
ENDBRANCH   1  14
TORSDOF 4
ENDMDL
