MODEL 1
REMARK VINA RESULT:      -7.7      0.000      0.000
REMARK  Name = 
REMARK  10 active torsions:
REMARK  status: ('A' for Active; 'I' for Inactive)
REMARK    1  A    between atoms: C_1  and  C_2
REMARK    2  A    between atoms: C_2  and  C_3
REMARK    3  A    between atoms: C_2  and  C_4
REMARK    4  A    between atoms: C_2  and  C_5
REMARK    5  A    between atoms: C_7  and  C_8
REMARK    6  A    between atoms: C_8  and  C_10
REMARK    7  A    between atoms: C_10  and  C_11
REMARK    8  A    between atoms: C_11  and  C_12
REMARK    9  A    between atoms: C_20  and  C_21
REMARK   10  A    between atoms: C_20  and  C_22
REMARK                            x       y       z     vdW  Elec       q    Type
REMARK                         _______ _______ _______ _____ _____    ______ ____
ROOT
ATOM      1  C   UNL     1       2.762   4.919  18.842  0.00  0.00    +0.000 A 
ATOM      2  C   UNL     1       2.124   6.184  18.911  0.00  0.00    +0.000 A 
ATOM      3  C   UNL     1       2.655   7.331  18.271  0.00  0.00    +0.000 A 
ATOM      4  C   UNL     1       3.839   7.232  17.547  0.00  0.00    +0.000 A 
ATOM      5  C   UNL     1       4.468   6.004  17.467  0.00  0.00    +0.000 A 
ATOM      6  C   UNL     1       3.938   4.880  18.087  0.00  0.00    +0.000 A 
ATOM      7  O   UNL     1       4.661   3.750  17.818  0.00  0.00    +0.000 OA
ATOM      8  C   UNL     1       5.824   4.170  17.073  0.00  0.00    +0.000 C 
ATOM      9  C   UNL     1       5.696   5.657  16.697  0.00  0.00    +0.000 C 
ATOM     10  C   UNL     1       5.463   5.836  15.194  0.00  0.00    +0.000 C 
ATOM     11  C   UNL     1       6.905   6.467  17.172  0.00  0.00    +0.000 C 
ENDROOT
BRANCH   1  13
ATOM     12  C   UNL     1       0.962   4.124  20.374  0.00  0.00    +0.000 C 
ATOM     13  C   UNL     1       2.130   3.667  19.477  0.00  0.00    +0.000 C 
ATOM     14  C   UNL     1       3.120   2.867  20.362  0.00  0.00    +0.000 C 
ATOM     15  C   UNL     1       1.598   2.649  18.440  0.00  0.00    +0.000 C 
ENDBRANCH   1  13
BRANCH   3  16
ATOM     16  C   UNL     1       1.977   8.659  18.274  0.00  0.00    +0.000 C 
ATOM     17  O   UNL     1       2.103   9.386  17.287  0.00  0.00    +0.000 OA
BRANCH  16  18
ATOM     18  C   UNL     1       1.247   9.125  19.516  0.00  0.00    +0.000 C 
BRANCH  18  19
ATOM     19  C   UNL     1       0.466  10.418  19.283  0.00  0.00    +0.000 C 
BRANCH  19  20
ATOM     20  C   UNL     1      -1.003  10.183  19.077  0.00  0.00    +0.000 C 
ATOM     21  C   UNL     1      -1.958  11.316  18.799  0.00  0.00    +0.000 C 
ATOM     22  C   UNL     1      -1.611  10.344  17.707  0.00  0.00    +0.000 C 
ENDBRANCH  19  20
ENDBRANCH  18  19
ENDBRANCH  16  18
ENDBRANCH   3  16
TORSDOF 5
ENDMDL
MODEL 2
REMARK VINA RESULT:      -7.7      1.267      3.935
REMARK  Name = 
REMARK  10 active torsions:
REMARK  status: ('A' for Active; 'I' for Inactive)
REMARK    1  A    between atoms: C_1  and  C_2
REMARK    2  A    between atoms: C_2  and  C_3
REMARK    3  A    between atoms: C_2  and  C_4
REMARK    4  A    between atoms: C_2  and  C_5
REMARK    5  A    between atoms: C_7  and  C_8
REMARK    6  A    between atoms: C_8  and  C_10
REMARK    7  A    between atoms: C_10  and  C_11
REMARK    8  A    between atoms: C_11  and  C_12
REMARK    9  A    between atoms: C_20  and  C_21
REMARK   10  A    between atoms: C_20  and  C_22
REMARK                            x       y       z     vdW  Elec       q    Type
REMARK                         _______ _______ _______ _____ _____    ______ ____
ROOT
ATOM      1  C   UNL     1       4.479   5.010  17.350  0.00  0.00    +0.000 A 
ATOM      2  C   UNL     1       3.936   6.284  17.655  0.00  0.00    +0.000 A 
ATOM      3  C   UNL     1       2.793   6.438  18.477  0.00  0.00    +0.000 A 
ATOM      4  C   UNL     1       2.170   5.314  19.011  0.00  0.00    +0.000 A 
ATOM      5  C   UNL     1       2.692   4.067  18.727  0.00  0.00    +0.000 A 
ATOM      6  C   UNL     1       3.820   3.921  17.929  0.00  0.00    +0.000 A 
ATOM      7  O   UNL     1       4.227   2.619  17.839  0.00  0.00    +0.000 OA
ATOM      8  C   UNL     1       3.229   1.825  18.518  0.00  0.00    +0.000 C 
ATOM      9  C   UNL     1       2.232   2.747  19.243  0.00  0.00    +0.000 C 
ATOM     10  C   UNL     1       2.402   2.668  20.763  0.00  0.00    +0.000 C 
ATOM     11  C   UNL     1       0.788   2.455  18.830  0.00  0.00    +0.000 C 
ENDROOT
BRANCH   1  13
ATOM     12  C   UNL     1       5.960   6.161  15.707  0.00  0.00    +0.000 C 
ATOM     13  C   UNL     1       5.768   4.865  16.520  0.00  0.00    +0.000 C 
ATOM     14  C   UNL     1       5.718   3.683  15.518  0.00  0.00    +0.000 C 
ATOM     15  C   UNL     1       7.032   4.618  17.378  0.00  0.00    +0.000 C 
ENDBRANCH   1  13
BRANCH   3  16
ATOM     16  C   UNL     1       2.235   7.765  18.865  0.00  0.00    +0.000 C 
ATOM     17  O   UNL     1       1.923   7.951  20.043  0.00  0.00    +0.000 OA
BRANCH  16  18
ATOM     18  C   UNL     1       1.968   8.807  17.799  0.00  0.00    +0.000 C 
BRANCH  18  19
ATOM     19  C   UNL     1       1.399  10.102  18.378  0.00  0.00    +0.000 C 
BRANCH  19  20
ATOM     20  C   UNL     1      -0.102  10.149  18.336  0.00  0.00    +0.000 C 
ATOM     21  C   UNL     1      -0.923  10.442  19.565  0.00  0.00    +0.000 C 
ATOM     22  C   UNL     1      -0.823  11.466  18.470  0.00  0.00    +0.000 C 
ENDBRANCH  19  20
ENDBRANCH  18  19
ENDBRANCH  16  18
ENDBRANCH   3  16
TORSDOF 5
ENDMDL
MODEL 3
REMARK VINA RESULT:      -7.6      1.749      4.177
REMARK  Name = 
REMARK  10 active torsions:
REMARK  status: ('A' for Active; 'I' for Inactive)
REMARK    1  A    between atoms: C_1  and  C_2
REMARK    2  A    between atoms: C_2  and  C_3
REMARK    3  A    between atoms: C_2  and  C_4
REMARK    4  A    between atoms: C_2  and  C_5
REMARK    5  A    between atoms: C_7  and  C_8
REMARK    6  A    between atoms: C_8  and  C_10
REMARK    7  A    between atoms: C_10  and  C_11
REMARK    8  A    between atoms: C_11  and  C_12
REMARK    9  A    between atoms: C_20  and  C_21
REMARK   10  A    between atoms: C_20  and  C_22
REMARK                            x       y       z     vdW  Elec       q    Type
REMARK                         _______ _______ _______ _____ _____    ______ ____
ROOT
ATOM      1  C   UNL     1       4.219   5.230  17.600  0.00  0.00    +0.000 A 
ATOM      2  C   UNL     1       3.665   6.473  18.001  0.00  0.00    +0.000 A 
ATOM      3  C   UNL     1       2.570   6.555  18.895  0.00  0.00    +0.000 A 
ATOM      4  C   UNL     1       2.007   5.390  19.407  0.00  0.00    +0.000 A 
ATOM      5  C   UNL     1       2.540   4.173  19.029  0.00  0.00    +0.000 A 
ATOM      6  C   UNL     1       3.622   4.098  18.160  0.00  0.00    +0.000 A 
ATOM      7  O   UNL     1       4.053   2.812  17.978  0.00  0.00    +0.000 OA
ATOM      8  C   UNL     1       3.116   1.959  18.673  0.00  0.00    +0.000 C 
ATOM      9  C   UNL     1       2.144   2.817  19.502  0.00  0.00    +0.000 C 
ATOM     10  C   UNL     1       2.406   2.667  21.003  0.00  0.00    +0.000 C 
ATOM     11  C   UNL     1       0.684   2.507  19.160  0.00  0.00    +0.000 C 
ENDROOT
BRANCH   1  13
ATOM     12  C   UNL     1       5.708   6.571  16.115  0.00  0.00    +0.000 C 
ATOM     13  C   UNL     1       5.459   5.162  16.688  0.00  0.00    +0.000 C 
ATOM     14  C   UNL     1       5.284   4.190  15.494  0.00  0.00    +0.000 C 
ATOM     15  C   UNL     1       6.737   4.684  17.419  0.00  0.00    +0.000 C 
ENDBRANCH   1  13
BRANCH   3  16
ATOM     16  C   UNL     1       2.005   7.846  19.384  0.00  0.00    +0.000 C 
ATOM     17  O   UNL     1       1.974   8.805  18.611  0.00  0.00    +0.000 OA
BRANCH  16  18
ATOM     18  C   UNL     1       1.585   7.980  20.832  0.00  0.00    +0.000 C 
BRANCH  18  19
ATOM     19  C   UNL     1       0.328   8.833  20.999  0.00  0.00    +0.000 C 
BRANCH  19  20
ATOM     20  C   UNL     1       0.438   9.818  22.129  0.00  0.00    +0.000 C 
ATOM     21  C   UNL     1      -0.495  10.995  22.250  0.00  0.00    +0.000 C 
ATOM     22  C   UNL     1      -0.610   9.847  23.212  0.00  0.00    +0.000 C 
ENDBRANCH  19  20
ENDBRANCH  18  19
ENDBRANCH  16  18
ENDBRANCH   3  16
TORSDOF 5
ENDMDL
MODEL 4
REMARK VINA RESULT:      -7.5      0.916      3.715
REMARK  Name = 
REMARK  10 active torsions:
REMARK  status: ('A' for Active; 'I' for Inactive)
REMARK    1  A    between atoms: C_1  and  C_2
REMARK    2  A    between atoms: C_2  and  C_3
REMARK    3  A    between atoms: C_2  and  C_4
REMARK    4  A    between atoms: C_2  and  C_5
REMARK    5  A    between atoms: C_7  and  C_8
REMARK    6  A    between atoms: C_8  and  C_10
REMARK    7  A    between atoms: C_10  and  C_11
REMARK    8  A    between atoms: C_11  and  C_12
REMARK    9  A    between atoms: C_20  and  C_21
REMARK   10  A    between atoms: C_20  and  C_22
REMARK                            x       y       z     vdW  Elec       q    Type
REMARK                         _______ _______ _______ _____ _____    ______ ____
ROOT
ATOM      1  C   UNL     1       5.051   5.853  18.116  0.00  0.00    +0.000 A 
ATOM      2  C   UNL     1       4.332   7.061  17.931  0.00  0.00    +0.000 A 
ATOM      3  C   UNL     1       2.946   7.161  18.206  0.00  0.00    +0.000 A 
ATOM      4  C   UNL     1       2.252   6.049  18.672  0.00  0.00    +0.000 A 
ATOM      5  C   UNL     1       2.942   4.867  18.862  0.00  0.00    +0.000 A 
ATOM      6  C   UNL     1       4.304   4.776  18.602  0.00  0.00    +0.000 A 
ATOM      7  O   UNL     1       4.814   3.552  18.933  0.00  0.00    +0.000 OA
ATOM      8  C   UNL     1       3.694   2.727  19.321  0.00  0.00    +0.000 C 
ATOM      9  C   UNL     1       2.420   3.584  19.412  0.00  0.00    +0.000 C 
ATOM     10  C   UNL     1       1.967   3.761  20.864  0.00  0.00    +0.000 C 
ATOM     11  C   UNL     1       1.293   3.018  18.544  0.00  0.00    +0.000 C 
ENDROOT
BRANCH   1  13
ATOM     12  C   UNL     1       7.253   5.589  19.257  0.00  0.00    +0.000 C 
ATOM     13  C   UNL     1       6.573   5.782  17.887  0.00  0.00    +0.000 C 
ATOM     14  C   UNL     1       7.153   7.071  17.250  0.00  0.00    +0.000 C 
ATOM     15  C   UNL     1       7.004   4.632  16.946  0.00  0.00    +0.000 C 
ENDBRANCH   1  13
BRANCH   3  16
ATOM     16  C   UNL     1       2.175   8.431  18.080  0.00  0.00    +0.000 C 
ATOM     17  O   UNL     1       2.300   9.097  17.051  0.00  0.00    +0.000 OA
BRANCH  16  18
ATOM     18  C   UNL     1       1.347   8.924  19.249  0.00  0.00    +0.000 C 
BRANCH  18  19
ATOM     19  C   UNL     1       0.636  10.242  18.946  0.00  0.00    +0.000 C 
BRANCH  19  20
ATOM     20  C   UNL     1      -0.854  10.088  18.834  0.00  0.00    +0.000 C 
ATOM     21  C   UNL     1      -1.744  11.235  18.430  0.00  0.00    +0.000 C 
ATOM     22  C   UNL     1      -1.517  10.093  17.481  0.00  0.00    +0.000 C 
ENDBRANCH  19  20
ENDBRANCH  18  19
ENDBRANCH  16  18
ENDBRANCH   3  16
TORSDOF 5
ENDMDL
MODEL 5
REMARK VINA RESULT:      -7.5      1.103      3.823
REMARK  Name = 
REMARK  10 active torsions:
REMARK  status: ('A' for Active; 'I' for Inactive)
REMARK    1  A    between atoms: C_1  and  C_2
REMARK    2  A    between atoms: C_2  and  C_3
REMARK    3  A    between atoms: C_2  and  C_4
REMARK    4  A    between atoms: C_2  and  C_5
REMARK    5  A    between atoms: C_7  and  C_8
REMARK    6  A    between atoms: C_8  and  C_10
REMARK    7  A    between atoms: C_10  and  C_11
REMARK    8  A    between atoms: C_11  and  C_12
REMARK    9  A    between atoms: C_20  and  C_21
REMARK   10  A    between atoms: C_20  and  C_22
REMARK                            x       y       z     vdW  Elec       q    Type
REMARK                         _______ _______ _______ _____ _____    ______ ____
ROOT
ATOM      1  C   UNL     1       5.303   5.803  18.271  0.00  0.00    +0.000 A 
ATOM      2  C   UNL     1       4.507   6.952  18.028  0.00  0.00    +0.000 A 
ATOM      3  C   UNL     1       3.123   6.986  18.328  0.00  0.00    +0.000 A 
ATOM      4  C   UNL     1       2.508   5.866  18.878  0.00  0.00    +0.000 A 
ATOM      5  C   UNL     1       3.273   4.742  19.125  0.00  0.00    +0.000 A 
ATOM      6  C   UNL     1       4.632   4.717  18.840  0.00  0.00    +0.000 A 
ATOM      7  O   UNL     1       5.224   3.549  19.234  0.00  0.00    +0.000 OA
ATOM      8  C   UNL     1       4.164   2.684  19.699  0.00  0.00    +0.000 C 
ATOM      9  C   UNL     1       2.841   3.468  19.766  0.00  0.00    +0.000 C 
ATOM     10  C   UNL     1       2.407   3.709  21.215  0.00  0.00    +0.000 C 
ATOM     11  C   UNL     1       1.735   2.781  18.962  0.00  0.00    +0.000 C 
ENDROOT
BRANCH   1  13
ATOM     12  C   UNL     1       7.154   4.618  17.093  0.00  0.00    +0.000 C 
ATOM     13  C   UNL     1       6.821   5.810  18.012  0.00  0.00    +0.000 C 
ATOM     14  C   UNL     1       7.660   5.659  19.306  0.00  0.00    +0.000 C 
ATOM     15  C   UNL     1       7.328   7.113  17.348  0.00  0.00    +0.000 C 
ENDBRANCH   1  13
BRANCH   3  16
ATOM     16  C   UNL     1       2.273   8.197  18.142  0.00  0.00    +0.000 C 
ATOM     17  O   UNL     1       2.287   8.764  17.048  0.00  0.00    +0.000 OA
BRANCH  16  18
ATOM     18  C   UNL     1       1.502   8.759  19.318  0.00  0.00    +0.000 C 
BRANCH  18  19
ATOM     19  C   UNL     1       0.872  10.117  19.007  0.00  0.00    +0.000 C 
BRANCH  19  20
ATOM     20  C   UNL     1      -0.629  10.089  19.062  0.00  0.00    +0.000 C 
ATOM     21  C   UNL     1      -1.433  11.310  19.429  0.00  0.00    +0.000 C 
ATOM     22  C   UNL     1      -1.439  10.807  18.013  0.00  0.00    +0.000 C 
ENDBRANCH  19  20
ENDBRANCH  18  19
ENDBRANCH  16  18
ENDBRANCH   3  16
TORSDOF 5
ENDMDL
MODEL 6
REMARK VINA RESULT:      -7.5      1.295      3.939
REMARK  Name = 
REMARK  10 active torsions:
REMARK  status: ('A' for Active; 'I' for Inactive)
REMARK    1  A    between atoms: C_1  and  C_2
REMARK    2  A    between atoms: C_2  and  C_3
REMARK    3  A    between atoms: C_2  and  C_4
REMARK    4  A    between atoms: C_2  and  C_5
REMARK    5  A    between atoms: C_7  and  C_8
REMARK    6  A    between atoms: C_8  and  C_10
REMARK    7  A    between atoms: C_10  and  C_11
REMARK    8  A    between atoms: C_11  and  C_12
REMARK    9  A    between atoms: C_20  and  C_21
REMARK   10  A    between atoms: C_20  and  C_22
REMARK                            x       y       z     vdW  Elec       q    Type
REMARK                         _______ _______ _______ _____ _____    ______ ____
ROOT
ATOM      1  C   UNL     1       4.410   5.009  17.380  0.00  0.00    +0.000 A 
ATOM      2  C   UNL     1       3.898   6.287  17.720  0.00  0.00    +0.000 A 
ATOM      3  C   UNL     1       2.775   6.447  18.569  0.00  0.00    +0.000 A 
ATOM      4  C   UNL     1       2.142   5.325  19.095  0.00  0.00    +0.000 A 
ATOM      5  C   UNL     1       2.634   4.074  18.777  0.00  0.00    +0.000 A 
ATOM      6  C   UNL     1       3.743   3.922  17.952  0.00  0.00    +0.000 A 
ATOM      7  O   UNL     1       4.122   2.614  17.828  0.00  0.00    +0.000 OA
ATOM      8  C   UNL     1       3.124   1.826  18.514  0.00  0.00    +0.000 C 
ATOM      9  C   UNL     1       2.161   2.752  19.277  0.00  0.00    +0.000 C 
ATOM     10  C   UNL     1       2.361   2.642  20.791  0.00  0.00    +0.000 C 
ATOM     11  C   UNL     1       0.702   2.495  18.890  0.00  0.00    +0.000 C 
ENDROOT
BRANCH   1  13
ATOM     12  C   UNL     1       6.879   4.670  17.467  0.00  0.00    +0.000 C 
ATOM     13  C   UNL     1       5.678   4.856  16.519  0.00  0.00    +0.000 C 
ATOM     14  C   UNL     1       5.964   6.094  15.632  0.00  0.00    +0.000 C 
ATOM     15  C   UNL     1       5.620   3.659  15.541  0.00  0.00    +0.000 C 
ENDBRANCH   1  13
BRANCH   3  16
ATOM     16  C   UNL     1       2.251   7.776  18.994  0.00  0.00    +0.000 C 
ATOM     17  O   UNL     1       1.844   7.907  20.150  0.00  0.00    +0.000 OA
BRANCH  16  18
ATOM     18  C   UNL     1       2.132   8.894  17.980  0.00  0.00    +0.000 C 
BRANCH  18  19
ATOM     19  C   UNL     1       0.701   9.416  17.851  0.00  0.00    +0.000 C 
BRANCH  19  20
ATOM     20  C   UNL     1       0.428  10.594  18.742  0.00  0.00    +0.000 C 
ATOM     21  C   UNL     1      -0.803  11.447  18.577  0.00  0.00    +0.000 C 
ATOM     22  C   UNL     1      -0.680  10.531  19.762  0.00  0.00    +0.000 C 
ENDBRANCH  19  20
ENDBRANCH  18  19
ENDBRANCH  16  18
ENDBRANCH   3  16
TORSDOF 5
ENDMDL
MODEL 7
REMARK VINA RESULT:      -7.5      1.050      1.697
REMARK  Name = 
REMARK  10 active torsions:
REMARK  status: ('A' for Active; 'I' for Inactive)
REMARK    1  A    between atoms: C_1  and  C_2
REMARK    2  A    between atoms: C_2  and  C_3
REMARK    3  A    between atoms: C_2  and  C_4
REMARK    4  A    between atoms: C_2  and  C_5
REMARK    5  A    between atoms: C_7  and  C_8
REMARK    6  A    between atoms: C_8  and  C_10
REMARK    7  A    between atoms: C_10  and  C_11
REMARK    8  A    between atoms: C_11  and  C_12
REMARK    9  A    between atoms: C_20  and  C_21
REMARK   10  A    between atoms: C_20  and  C_22
REMARK                            x       y       z     vdW  Elec       q    Type
REMARK                         _______ _______ _______ _____ _____    ______ ____
ROOT
ATOM      1  C   UNL     1       2.665   5.287  18.813  0.00  0.00    +0.000 A 
ATOM      2  C   UNL     1       2.038   6.559  18.779  0.00  0.00    +0.000 A 
ATOM      3  C   UNL     1       2.604   7.658  18.087  0.00  0.00    +0.000 A 
ATOM      4  C   UNL     1       3.812   7.503  17.414  0.00  0.00    +0.000 A 
ATOM      5  C   UNL     1       4.430   6.267  17.434  0.00  0.00    +0.000 A 
ATOM      6  C   UNL     1       3.866   5.189  18.106  0.00  0.00    +0.000 A 
ATOM      7  O   UNL     1       4.585   4.038  17.936  0.00  0.00    +0.000 OA
ATOM      8  C   UNL     1       5.779   4.400  17.207  0.00  0.00    +0.000 C 
ATOM      9  C   UNL     1       5.680   5.860  16.733  0.00  0.00    +0.000 C 
ATOM     10  C   UNL     1       5.503   5.945  15.215  0.00  0.00    +0.000 C 
ATOM     11  C   UNL     1       6.880   6.689  17.199  0.00  0.00    +0.000 C 
ENDROOT
BRANCH   1  13
ATOM     12  C   UNL     1       0.932   4.622  20.479  0.00  0.00    +0.000 C 
ATOM     13  C   UNL     1       1.997   4.083  19.505  0.00  0.00    +0.000 C 
ATOM     14  C   UNL     1       2.993   3.221  20.322  0.00  0.00    +0.000 C 
ATOM     15  C   UNL     1       1.323   3.100  18.517  0.00  0.00    +0.000 C 
ENDBRANCH   1  13
BRANCH   3  16
ATOM     16  C   UNL     1       1.941   8.989  17.981  0.00  0.00    +0.000 C 
ATOM     17  O   UNL     1       2.600   9.944  17.565  0.00  0.00    +0.000 OA
BRANCH  16  18
ATOM     18  C   UNL     1       0.521   9.162  18.479  0.00  0.00    +0.000 C 
BRANCH  18  19
ATOM     19  C   UNL     1       0.455   9.930  19.798  0.00  0.00    +0.000 C 
BRANCH  19  20
ATOM     20  C   UNL     1       0.242   9.034  20.985  0.00  0.00    +0.000 C 
ATOM     21  C   UNL     1       1.295   8.860  22.048  0.00  0.00    +0.000 C 
ATOM     22  C   UNL     1       0.041   9.628  22.356  0.00  0.00    +0.000 C 
ENDBRANCH  19  20
ENDBRANCH  18  19
ENDBRANCH  16  18
ENDBRANCH   3  16
TORSDOF 5
ENDMDL
MODEL 8
REMARK VINA RESULT:      -7.5      0.860      3.763
REMARK  Name = 
REMARK  10 active torsions:
REMARK  status: ('A' for Active; 'I' for Inactive)
REMARK    1  A    between atoms: C_1  and  C_2
REMARK    2  A    between atoms: C_2  and  C_3
REMARK    3  A    between atoms: C_2  and  C_4
REMARK    4  A    between atoms: C_2  and  C_5
REMARK    5  A    between atoms: C_7  and  C_8
REMARK    6  A    between atoms: C_8  and  C_10
REMARK    7  A    between atoms: C_10  and  C_11
REMARK    8  A    between atoms: C_11  and  C_12
REMARK    9  A    between atoms: C_20  and  C_21
REMARK   10  A    between atoms: C_20  and  C_22
REMARK                            x       y       z     vdW  Elec       q    Type
REMARK                         _______ _______ _______ _____ _____    ______ ____
ROOT
ATOM      1  C   UNL     1       4.459   5.236  17.552  0.00  0.00    +0.000 A 
ATOM      2  C   UNL     1       3.893   6.536  17.525  0.00  0.00    +0.000 A 
ATOM      3  C   UNL     1       2.719   6.861  18.249  0.00  0.00    +0.000 A 
ATOM      4  C   UNL     1       2.088   5.886  19.015  0.00  0.00    +0.000 A 
ATOM      5  C   UNL     1       2.633   4.616  19.055  0.00  0.00    +0.000 A 
ATOM      6  C   UNL     1       3.791   4.305  18.352  0.00  0.00    +0.000 A 
ATOM      7  O   UNL     1       4.213   3.026  18.589  0.00  0.00    +0.000 OA
ATOM      8  C   UNL     1       3.199   2.399  19.405  0.00  0.00    +0.000 C 
ATOM      9  C   UNL     1       2.167   3.449  19.855  0.00  0.00    +0.000 C 
ATOM     10  C   UNL     1       2.283   3.739  21.355  0.00  0.00    +0.000 C 
ATOM     11  C   UNL     1       0.742   3.041  19.477  0.00  0.00    +0.000 C 
ENDROOT
BRANCH   1  13
ATOM     12  C   UNL     1       6.185   6.166  16.011  0.00  0.00    +0.000 C 
ATOM     13  C   UNL     1       5.779   4.921  16.823  0.00  0.00    +0.000 C 
ATOM     14  C   UNL     1       5.661   3.731  15.836  0.00  0.00    +0.000 C 
ATOM     15  C   UNL     1       6.938   4.544  17.778  0.00  0.00    +0.000 C 
ENDBRANCH   1  13
BRANCH   3  16
ATOM     16  C   UNL     1       2.135   8.232  18.290  0.00  0.00    +0.000 C 
ATOM     17  O   UNL     1       2.240   8.947  17.292  0.00  0.00    +0.000 OA
BRANCH  16  18
ATOM     18  C   UNL     1       1.525   8.749  19.576  0.00  0.00    +0.000 C 
BRANCH  18  19
ATOM     19  C   UNL     1       0.879  10.123  19.406  0.00  0.00    +0.000 C 
BRANCH  19  20
ATOM     20  C   UNL     1      -0.618  10.054  19.306  0.00  0.00    +0.000 C 
ATOM     21  C   UNL     1      -1.480  11.284  19.431  0.00  0.00    +0.000 C 
ATOM     22  C   UNL     1      -1.323  10.613  18.096  0.00  0.00    +0.000 C 
ENDBRANCH  19  20
ENDBRANCH  18  19
ENDBRANCH  16  18
ENDBRANCH   3  16
TORSDOF 5
ENDMDL
MODEL 9
REMARK VINA RESULT:      -7.5      1.811      4.154
REMARK  Name = 
REMARK  10 active torsions:
REMARK  status: ('A' for Active; 'I' for Inactive)
REMARK    1  A    between atoms: C_1  and  C_2
REMARK    2  A    between atoms: C_2  and  C_3
REMARK    3  A    between atoms: C_2  and  C_4
REMARK    4  A    between atoms: C_2  and  C_5
REMARK    5  A    between atoms: C_7  and  C_8
REMARK    6  A    between atoms: C_8  and  C_10
REMARK    7  A    between atoms: C_10  and  C_11
REMARK    8  A    between atoms: C_11  and  C_12
REMARK    9  A    between atoms: C_20  and  C_21
REMARK   10  A    between atoms: C_20  and  C_22
REMARK                            x       y       z     vdW  Elec       q    Type
REMARK                         _______ _______ _______ _____ _____    ______ ____
ROOT
ATOM      1  C   UNL     1       4.170   5.256  17.831  0.00  0.00    +0.000 A 
ATOM      2  C   UNL     1       3.592   6.495  18.211  0.00  0.00    +0.000 A 
ATOM      3  C   UNL     1       2.498   6.571  19.107  0.00  0.00    +0.000 A 
ATOM      4  C   UNL     1       1.959   5.404  19.641  0.00  0.00    +0.000 A 
ATOM      5  C   UNL     1       2.517   4.191  19.284  0.00  0.00    +0.000 A 
ATOM      6  C   UNL     1       3.597   4.122  18.413  0.00  0.00    +0.000 A 
ATOM      7  O   UNL     1       4.054   2.842  18.254  0.00  0.00    +0.000 OA
ATOM      8  C   UNL     1       3.136   1.984  18.968  0.00  0.00    +0.000 C 
ATOM      9  C   UNL     1       2.149   2.836  19.783  0.00  0.00    +0.000 C 
ATOM     10  C   UNL     1       2.418   2.720  21.286  0.00  0.00    +0.000 C 
ATOM     11  C   UNL     1       0.695   2.491  19.451  0.00  0.00    +0.000 C 
ENDROOT
BRANCH   1  13
ATOM     12  C   UNL     1       6.605   4.725  17.767  0.00  0.00    +0.000 C 
ATOM     13  C   UNL     1       5.408   5.196  16.917  0.00  0.00    +0.000 C 
ATOM     14  C   UNL     1       5.778   6.569  16.301  0.00  0.00    +0.000 C 
ATOM     15  C   UNL     1       5.241   4.240  15.712  0.00  0.00    +0.000 C 
ENDBRANCH   1  13
BRANCH   3  16
ATOM     16  C   UNL     1       1.908   7.859  19.573  0.00  0.00    +0.000 C 
ATOM     17  O   UNL     1       1.938   8.829  18.814  0.00  0.00    +0.000 OA
BRANCH  16  18
ATOM     18  C   UNL     1       1.387   7.975  20.990  0.00  0.00    +0.000 C 
BRANCH  18  19
ATOM     19  C   UNL     1       1.163   9.426  21.413  0.00  0.00    +0.000 C 
BRANCH  19  20
ATOM     20  C   UNL     1      -0.262   9.709  21.795  0.00  0.00    +0.000 C 
ATOM     21  C   UNL     1      -0.673   9.920  23.230  0.00  0.00    +0.000 C 
ATOM     22  C   UNL     1      -0.660  11.081  22.276  0.00  0.00    +0.000 C 
ENDBRANCH  19  20
ENDBRANCH  18  19
ENDBRANCH  16  18
ENDBRANCH   3  16
TORSDOF 5
ENDMDL
