MODEL 1
REMARK VINA RESULT:      -7.0      0.000      0.000
REMARK  Name = 
REMARK  1 active torsions:
REMARK  status: ('A' for Active; 'I' for Inactive)
REMARK    1  A    between atoms: C_7  and  C_8
REMARK                            x       y       z     vdW  Elec       q    Type
REMARK                         _______ _______ _______ _____ _____    ______ ____
ROOT
ATOM      1  C   UNL     1       7.455   4.793  17.926  0.00  0.00    +0.000 C 
ATOM      2  C   UNL     1       6.900   4.705  16.719  0.00  0.00    +0.000 C 
ATOM      3  N   UNL     1       7.580   4.830  15.548  0.00  0.00    +0.000 N 
ATOM      4  C   UNL     1       6.750   4.657  14.467  0.00  0.00    +0.000 C 
ATOM      5  O   UNL     1       7.037   4.695  13.287  0.00  0.00    +0.000 OA
ATOM      6  C   UNL     1       5.403   4.408  15.021  0.00  0.00    +0.000 C 
ATOM      7  C   UNL     1       5.523   4.455  16.360  0.00  0.00    +0.000 C 
ATOM      8  H   UNL     1       8.567   5.015  15.449  0.00  0.00    +0.000 HD
ENDROOT
BRANCH   7   9
ATOM      9  C   UNL     1       4.372   4.282  17.246  0.00  0.00    +0.000 A 
ATOM     10  C   UNL     1       4.012   3.005  17.695  0.00  0.00    +0.000 A 
ATOM     11  C   UNL     1       2.899   2.839  18.525  0.00  0.00    +0.000 A 
ATOM     12  C   UNL     1       2.150   3.949  18.911  0.00  0.00    +0.000 A 
ATOM     13 CL   UNL     1       0.770   3.741  19.916  0.00  0.00    +0.000 Cl
ATOM     14  C   UNL     1       2.509   5.226  18.483  0.00  0.00    +0.000 A 
ATOM     15  C   UNL     1       3.620   5.393  17.651  0.00  0.00    +0.000 A 
ENDBRANCH   7   9
TORSDOF 1
ENDMDL
MODEL 2
REMARK VINA RESULT:      -6.9      1.025      1.040
REMARK  Name = 
REMARK  1 active torsions:
REMARK  status: ('A' for Active; 'I' for Inactive)
REMARK    1  A    between atoms: C_7  and  C_8
REMARK                            x       y       z     vdW  Elec       q    Type
REMARK                         _______ _______ _______ _____ _____    ______ ____
ROOT
ATOM      1  C   UNL     1       6.647   5.387  18.844  0.00  0.00    +0.000 C 
ATOM      2  C   UNL     1       6.512   5.173  17.537  0.00  0.00    +0.000 C 
ATOM      3  N   UNL     1       7.432   5.526  16.600  0.00  0.00    +0.000 N 
ATOM      4  C   UNL     1       7.035   5.146  15.341  0.00  0.00    +0.000 C 
ATOM      5  O   UNL     1       7.624   5.300  14.290  0.00  0.00    +0.000 OA
ATOM      6  C   UNL     1       5.719   4.496  15.507  0.00  0.00    +0.000 C 
ATOM      7  C   UNL     1       5.430   4.538  16.820  0.00  0.00    +0.000 C 
ATOM      8  H   UNL     1       8.308   5.996  16.773  0.00  0.00    +0.000 HD
ENDROOT
BRANCH   7   9
ATOM      9  C   UNL     1       4.176   4.009  17.354  0.00  0.00    +0.000 A 
ATOM     10  C   UNL     1       4.032   2.636  17.591  0.00  0.00    +0.000 A 
ATOM     11  C   UNL     1       2.825   2.129  18.082  0.00  0.00    +0.000 A 
ATOM     12  C   UNL     1       1.764   2.994  18.341  0.00  0.00    +0.000 A 
ATOM     13 CL   UNL     1       0.273   2.367  18.927  0.00  0.00    +0.000 Cl
ATOM     14  C   UNL     1       1.901   4.364  18.124  0.00  0.00    +0.000 A 
ATOM     15  C   UNL     1       3.107   4.872  17.632  0.00  0.00    +0.000 A 
ENDBRANCH   7   9
TORSDOF 1
ENDMDL
MODEL 3
REMARK VINA RESULT:      -6.9      0.581      1.409
REMARK  Name = 
REMARK  1 active torsions:
REMARK  status: ('A' for Active; 'I' for Inactive)
REMARK    1  A    between atoms: C_7  and  C_8
REMARK                            x       y       z     vdW  Elec       q    Type
REMARK                         _______ _______ _______ _____ _____    ______ ____
ROOT
ATOM      1  C   UNL     1       7.007   5.467  18.233  0.00  0.00    +0.000 C 
ATOM      2  C   UNL     1       6.672   5.229  16.967  0.00  0.00    +0.000 C 
ATOM      3  N   UNL     1       7.469   5.490  15.897  0.00  0.00    +0.000 N 
ATOM      4  C   UNL     1       6.871   5.106  14.721  0.00  0.00    +0.000 C 
ATOM      5  O   UNL     1       7.311   5.190  13.592  0.00  0.00    +0.000 OA
ATOM      6  C   UNL     1       5.552   4.555  15.095  0.00  0.00    +0.000 C 
ATOM      7  C   UNL     1       5.458   4.653  16.434  0.00  0.00    +0.000 C 
ATOM      8  H   UNL     1       8.389   5.902  15.927  0.00  0.00    +0.000 HD
ENDROOT
BRANCH   7   9
ATOM      9  C   UNL     1       4.262   4.228  17.159  0.00  0.00    +0.000 A 
ATOM     10  C   UNL     1       3.342   5.176  17.623  0.00  0.00    +0.000 A 
ATOM     11  C   UNL     1       2.209   4.769  18.334  0.00  0.00    +0.000 A 
ATOM     12  C   UNL     1       1.993   3.414  18.577  0.00  0.00    +0.000 A 
ATOM     13 CL   UNL     1       0.609   2.915  19.468  0.00  0.00    +0.000 Cl
ATOM     14  C   UNL     1       2.893   2.460  18.106  0.00  0.00    +0.000 A 
ATOM     15  C   UNL     1       4.027   2.866  17.396  0.00  0.00    +0.000 A 
ENDBRANCH   7   9
TORSDOF 1
ENDMDL
MODEL 4
REMARK VINA RESULT:      -6.8      1.765      2.225
REMARK  Name = 
REMARK  1 active torsions:
REMARK  status: ('A' for Active; 'I' for Inactive)
REMARK    1  A    between atoms: C_7  and  C_8
REMARK                            x       y       z     vdW  Elec       q    Type
REMARK                         _______ _______ _______ _____ _____    ______ ____
ROOT
ATOM      1  C   UNL     1       5.901   4.156  14.709  0.00  0.00    +0.000 C 
ATOM      2  C   UNL     1       6.105   5.024  15.698  0.00  0.00    +0.000 C 
ATOM      3  N   UNL     1       7.125   5.923  15.735  0.00  0.00    +0.000 N 
ATOM      4  C   UNL     1       7.059   6.709  16.860  0.00  0.00    +0.000 C 
ATOM      5  O   UNL     1       7.805   7.608  17.193  0.00  0.00    +0.000 OA
ATOM      6  C   UNL     1       5.876   6.243  17.614  0.00  0.00    +0.000 C 
ATOM      7  C   UNL     1       5.339   5.235  16.905  0.00  0.00    +0.000 C 
ATOM      8  H   UNL     1       7.847   6.033  15.039  0.00  0.00    +0.000 HD
ENDROOT
BRANCH   7   9
ATOM      9  C   UNL     1       4.160   4.505  17.369  0.00  0.00    +0.000 A 
ATOM     10  C   UNL     1       4.190   3.109  17.481  0.00  0.00    +0.000 A 
ATOM     11  C   UNL     1       3.056   2.412  17.906  0.00  0.00    +0.000 A 
ATOM     12  C   UNL     1       1.891   3.109  18.223  0.00  0.00    +0.000 A 
ATOM     13 CL   UNL     1       0.490   2.248  18.726  0.00  0.00    +0.000 Cl
ATOM     14  C   UNL     1       1.854   4.499  18.130  0.00  0.00    +0.000 A 
ATOM     15  C   UNL     1       2.988   5.197  17.704  0.00  0.00    +0.000 A 
ENDBRANCH   7   9
TORSDOF 1
ENDMDL
MODEL 5
REMARK VINA RESULT:      -6.8      1.774      2.573
REMARK  Name = 
REMARK  1 active torsions:
REMARK  status: ('A' for Active; 'I' for Inactive)
REMARK    1  A    between atoms: C_7  and  C_8
REMARK                            x       y       z     vdW  Elec       q    Type
REMARK                         _______ _______ _______ _____ _____    ______ ____
ROOT
ATOM      1  C   UNL     1       5.794   4.317  14.600  0.00  0.00    +0.000 C 
ATOM      2  C   UNL     1       6.040   5.116  15.635  0.00  0.00    +0.000 C 
ATOM      3  N   UNL     1       7.077   5.994  15.702  0.00  0.00    +0.000 N 
ATOM      4  C   UNL     1       7.055   6.707  16.875  0.00  0.00    +0.000 C 
ATOM      5  O   UNL     1       7.826   7.571  17.244  0.00  0.00    +0.000 OA
ATOM      6  C   UNL     1       5.884   6.215  17.630  0.00  0.00    +0.000 C 
ATOM      7  C   UNL     1       5.309   5.263  16.873  0.00  0.00    +0.000 C 
ATOM      8  H   UNL     1       7.782   6.135  14.995  0.00  0.00    +0.000 HD
ENDROOT
BRANCH   7   9
ATOM      9  C   UNL     1       4.129   4.525  17.323  0.00  0.00    +0.000 A 
ATOM     10  C   UNL     1       2.956   5.209  17.665  0.00  0.00    +0.000 A 
ATOM     11  C   UNL     1       1.836   4.504  18.114  0.00  0.00    +0.000 A 
ATOM     12  C   UNL     1       1.886   3.115  18.216  0.00  0.00    +0.000 A 
ATOM     13 CL   UNL     1       0.513   2.250  18.787  0.00  0.00    +0.000 Cl
ATOM     14  C   UNL     1       3.043   2.423  17.863  0.00  0.00    +0.000 A 
ATOM     15  C   UNL     1       4.164   3.127  17.415  0.00  0.00    +0.000 A 
ENDBRANCH   7   9
TORSDOF 1
ENDMDL
MODEL 6
REMARK VINA RESULT:      -6.5      4.310      5.640
REMARK  Name = 
REMARK  1 active torsions:
REMARK  status: ('A' for Active; 'I' for Inactive)
REMARK    1  A    between atoms: C_7  and  C_8
REMARK                            x       y       z     vdW  Elec       q    Type
REMARK                         _______ _______ _______ _____ _____    ______ ____
ROOT
ATOM      1  C   UNL     1       1.751   5.608  20.832  0.00  0.00    +0.000 C 
ATOM      2  C   UNL     1       1.699   4.634  19.925  0.00  0.00    +0.000 C 
ATOM      3  N   UNL     1       0.721   3.692  19.862  0.00  0.00    +0.000 N 
ATOM      4  C   UNL     1       0.913   2.841  18.801  0.00  0.00    +0.000 C 
ATOM      5  O   UNL     1       0.223   1.902  18.457  0.00  0.00    +0.000 OA
ATOM      6  C   UNL     1       2.152   3.293  18.135  0.00  0.00    +0.000 C 
ATOM      7  C   UNL     1       2.601   4.351  18.833  0.00  0.00    +0.000 C 
ATOM      8  H   UNL     1      -0.064   3.607  20.490  0.00  0.00    +0.000 HD
ENDROOT
BRANCH   7   9
ATOM      9  C   UNL     1       3.839   5.044  18.475  0.00  0.00    +0.000 A 
ATOM     10  C   UNL     1       5.039   4.727  19.122  0.00  0.00    +0.000 A 
ATOM     11  C   UNL     1       6.217   5.405  18.793  0.00  0.00    +0.000 A 
ATOM     12  C   UNL     1       6.196   6.397  17.815  0.00  0.00    +0.000 A 
ATOM     13 CL   UNL     1       7.641   7.244  17.426  0.00  0.00    +0.000 Cl
ATOM     14  C   UNL     1       5.010   6.710  17.154  0.00  0.00    +0.000 A 
ATOM     15  C   UNL     1       3.832   6.034  17.483  0.00  0.00    +0.000 A 
ENDBRANCH   7   9
TORSDOF 1
ENDMDL
MODEL 7
REMARK VINA RESULT:      -6.5      1.474      1.872
REMARK  Name = 
REMARK  1 active torsions:
REMARK  status: ('A' for Active; 'I' for Inactive)
REMARK    1  A    between atoms: C_7  and  C_8
REMARK                            x       y       z     vdW  Elec       q    Type
REMARK                         _______ _______ _______ _____ _____    ______ ____
ROOT
ATOM      1  C   UNL     1       4.935   7.046  17.077  0.00  0.00    +0.000 C 
ATOM      2  C   UNL     1       5.160   5.924  16.398  0.00  0.00    +0.000 C 
ATOM      3  N   UNL     1       5.906   5.846  15.264  0.00  0.00    +0.000 N 
ATOM      4  C   UNL     1       5.991   4.553  14.807  0.00  0.00    +0.000 C 
ATOM      5  O   UNL     1       6.584   4.138  13.832  0.00  0.00    +0.000 OA
ATOM      6  C   UNL     1       5.203   3.734  15.752  0.00  0.00    +0.000 C 
ATOM      7  C   UNL     1       4.713   4.578  16.678  0.00  0.00    +0.000 C 
ATOM      8  H   UNL     1       6.361   6.616  14.797  0.00  0.00    +0.000 HD
ENDROOT
BRANCH   7   9
ATOM      9  C   UNL     1       3.850   4.118  17.765  0.00  0.00    +0.000 A 
ATOM     10  C   UNL     1       2.463   4.294  17.690  0.00  0.00    +0.000 A 
ATOM     11  C   UNL     1       1.641   3.872  18.740  0.00  0.00    +0.000 A 
ATOM     12  C   UNL     1       2.206   3.268  19.862  0.00  0.00    +0.000 A 
ATOM     13 CL   UNL     1       1.196   2.766  21.161  0.00  0.00    +0.000 Cl
ATOM     14  C   UNL     1       3.583   3.073  19.940  0.00  0.00    +0.000 A 
ATOM     15  C   UNL     1       4.405   3.496  18.892  0.00  0.00    +0.000 A 
ENDBRANCH   7   9
TORSDOF 1
ENDMDL
MODEL 8
REMARK VINA RESULT:      -6.5      1.832      2.049
REMARK  Name = 
REMARK  1 active torsions:
REMARK  status: ('A' for Active; 'I' for Inactive)
REMARK    1  A    between atoms: C_7  and  C_8
REMARK                            x       y       z     vdW  Elec       q    Type
REMARK                         _______ _______ _______ _____ _____    ______ ____
ROOT
ATOM      1  C   UNL     1       7.430   7.168  17.475  0.00  0.00    +0.000 C 
ATOM      2  C   UNL     1       6.816   6.287  16.689  0.00  0.00    +0.000 C 
ATOM      3  N   UNL     1       7.374   5.717  15.588  0.00  0.00    +0.000 N 
ATOM      4  C   UNL     1       6.517   4.820  14.999  0.00  0.00    +0.000 C 
ATOM      5  O   UNL     1       6.705   4.138  14.011  0.00  0.00    +0.000 OA
ATOM      6  C   UNL     1       5.284   4.839  15.813  0.00  0.00    +0.000 C 
ATOM      7  C   UNL     1       5.488   5.729  16.801  0.00  0.00    +0.000 C 
ATOM      8  H   UNL     1       8.299   5.898  15.229  0.00  0.00    +0.000 HD
ENDROOT
BRANCH   7   9
ATOM      9  C   UNL     1       4.457   6.034  17.793  0.00  0.00    +0.000 A 
ATOM     10  C   UNL     1       4.290   5.214  18.915  0.00  0.00    +0.000 A 
ATOM     11  C   UNL     1       3.291   5.495  19.851  0.00  0.00    +0.000 A 
ATOM     12  C   UNL     1       2.460   6.600  19.667  0.00  0.00    +0.000 A 
ATOM     13 CL   UNL     1       1.218   6.934  20.809  0.00  0.00    +0.000 Cl
ATOM     14  C   UNL     1       2.628   7.432  18.562  0.00  0.00    +0.000 A 
ATOM     15  C   UNL     1       3.626   7.150  17.625  0.00  0.00    +0.000 A 
ENDBRANCH   7   9
TORSDOF 1
ENDMDL
MODEL 9
REMARK VINA RESULT:      -6.5      1.482      1.671
REMARK  Name = 
REMARK  1 active torsions:
REMARK  status: ('A' for Active; 'I' for Inactive)
REMARK    1  A    between atoms: C_7  and  C_8
REMARK                            x       y       z     vdW  Elec       q    Type
REMARK                         _______ _______ _______ _____ _____    ______ ____
ROOT
ATOM      1  C   UNL     1       4.900   7.092  16.984  0.00  0.00    +0.000 C 
ATOM      2  C   UNL     1       5.142   5.950  16.344  0.00  0.00    +0.000 C 
ATOM      3  N   UNL     1       5.893   5.844  15.215  0.00  0.00    +0.000 N 
ATOM      4  C   UNL     1       5.996   4.538  14.803  0.00  0.00    +0.000 C 
ATOM      5  O   UNL     1       6.598   4.099  13.844  0.00  0.00    +0.000 OA
ATOM      6  C   UNL     1       5.216   3.741  15.773  0.00  0.00    +0.000 C 
ATOM      7  C   UNL     1       4.712   4.610  16.668  0.00  0.00    +0.000 C 
ATOM      8  H   UNL     1       6.339   6.604  14.724  0.00  0.00    +0.000 HD
ENDROOT
BRANCH   7   9
ATOM      9  C   UNL     1       3.851   4.174  17.768  0.00  0.00    +0.000 A 
ATOM     10  C   UNL     1       4.410   3.608  18.921  0.00  0.00    +0.000 A 
ATOM     11  C   UNL     1       3.585   3.174  19.962  0.00  0.00    +0.000 A 
ATOM     12  C   UNL     1       2.202   3.309  19.854  0.00  0.00    +0.000 A 
ATOM     13 CL   UNL     1       1.187   2.756  21.128  0.00  0.00    +0.000 Cl
ATOM     14  C   UNL     1       1.636   3.885  18.718  0.00  0.00    +0.000 A 
ATOM     15  C   UNL     1       2.460   4.318  17.675  0.00  0.00    +0.000 A 
ENDBRANCH   7   9
TORSDOF 1
ENDMDL
