MODEL 1
REMARK VINA RESULT:      -8.0      0.000      0.000
REMARK  Name = 
REMARK  7 active torsions:
REMARK  status: ('A' for Active; 'I' for Inactive)
REMARK    1  A    between atoms: C_1  and  C_2
REMARK    2  A    between atoms: C_4  and  C_5
REMARK    3  A    between atoms: C_5  and  O_7
REMARK    4  A    between atoms: O_7  and  C_8
REMARK    5  A    between atoms: C_8  and  C_9
REMARK    6  A    between atoms: N_11  and  C_12
REMARK    7  A    between atoms: C_19  and  C_20
REMARK                            x       y       z     vdW  Elec       q    Type
REMARK                         _______ _______ _______ _____ _____    ______ ____
ROOT
ATOM      1  C   UNL     1       7.634   4.696  18.038  0.00  0.00    +0.000 C 
ENDROOT
BRANCH   1   2
ATOM      2  C   UNL     1       6.159   4.733  18.440  0.00  0.00    +0.000 C 
ATOM      3  O   UNL     1       5.671   5.763  18.890  0.00  0.00    +0.000 OA
ATOM      4  N   UNL     1       5.498   3.517  18.284  0.00  0.00    +0.000 N 
ATOM      5  H   UNL     1       6.051   2.693  18.074  0.00  0.00    +0.000 HD
BRANCH   4   6
ATOM      6  C   UNL     1       4.124   3.308  18.558  0.00  0.00    +0.000 A 
ATOM      7  C   UNL     1       3.679   2.577  19.665  0.00  0.00    +0.000 A 
ATOM      8  C   UNL     1       2.324   2.312  19.853  0.00  0.00    +0.000 A 
ATOM      9  C   UNL     1       1.401   2.798  18.942  0.00  0.00    +0.000 A 
ATOM     10  F   UNL     1       0.102   2.513  19.102  0.00  0.00    +0.000 F 
ATOM     11  C   UNL     1       1.808   3.574  17.865  0.00  0.00    +0.000 A 
ATOM     12  C   UNL     1       3.171   3.847  17.677  0.00  0.00    +0.000 A 
ENDBRANCH   4   6
ENDBRANCH   1   2
BRANCH   1  13
ATOM     13  O   UNL     1       7.788   4.331  16.660  0.00  0.00    +0.000 OA
BRANCH  13  14
ATOM     14  C   UNL     1       7.340   5.282  15.786  0.00  0.00    +0.000 C 
ATOM     15  O   UNL     1       7.234   6.468  16.080  0.00  0.00    +0.000 OA
BRANCH  14  19
ATOM     16  C   UNL     1       5.139   2.811  11.876  0.00  0.00    +0.000 C 
ATOM     17  C   UNL     1       5.948   3.610  12.820  0.00  0.00    +0.000 A 
ATOM     18  C   UNL     1       5.915   3.808  14.182  0.00  0.00    +0.000 A 
ATOM     19  C   UNL     1       6.965   4.728  14.494  0.00  0.00    +0.000 A 
ATOM     20  C   UNL     1       7.578   5.005  13.281  0.00  0.00    +0.000 A 
ATOM     21  C   UNL     1       8.712   5.851  12.851  0.00  0.00    +0.000 C 
ATOM     22  O   UNL     1       6.957   4.333  12.270  0.00  0.00    +0.000 OA
ENDBRANCH  14  19
ENDBRANCH  13  14
ENDBRANCH   1  13
TORSDOF 5
ENDMDL
MODEL 2
REMARK VINA RESULT:      -7.8      0.899      1.362
REMARK  Name = 
REMARK  7 active torsions:
REMARK  status: ('A' for Active; 'I' for Inactive)
REMARK    1  A    between atoms: C_1  and  C_2
REMARK    2  A    between atoms: C_4  and  C_5
REMARK    3  A    between atoms: C_5  and  O_7
REMARK    4  A    between atoms: O_7  and  C_8
REMARK    5  A    between atoms: C_8  and  C_9
REMARK    6  A    between atoms: N_11  and  C_12
REMARK    7  A    between atoms: C_19  and  C_20
REMARK                            x       y       z     vdW  Elec       q    Type
REMARK                         _______ _______ _______ _____ _____    ______ ____
ROOT
ATOM      1  C   UNL     1       7.267   4.445  16.831  0.00  0.00    +0.000 C 
ENDROOT
BRANCH   1   2
ATOM      2  C   UNL     1       5.970   4.376  17.639  0.00  0.00    +0.000 C 
ATOM      3  O   UNL     1       5.841   5.051  18.654  0.00  0.00    +0.000 OA
ATOM      4  N   UNL     1       5.035   3.474  17.137  0.00  0.00    +0.000 N 
ATOM      5  H   UNL     1       5.326   2.843  16.397  0.00  0.00    +0.000 HD
BRANCH   4   6
ATOM      6  C   UNL     1       3.750   3.256  17.690  0.00  0.00    +0.000 A 
ATOM      7  C   UNL     1       2.678   4.128  17.471  0.00  0.00    +0.000 A 
ATOM      8  C   UNL     1       1.452   3.932  18.107  0.00  0.00    +0.000 A 
ATOM      9  C   UNL     1       1.287   2.847  18.950  0.00  0.00    +0.000 A 
ATOM     10  F   UNL     1       0.121   2.679  19.590  0.00  0.00    +0.000 F 
ATOM     11  C   UNL     1       2.315   1.934  19.143  0.00  0.00    +0.000 A 
ATOM     12  C   UNL     1       3.547   2.125  18.500  0.00  0.00    +0.000 A 
ENDBRANCH   4   6
ENDBRANCH   1   2
BRANCH   1  13
ATOM     13  O   UNL     1       7.339   5.655  16.067  0.00  0.00    +0.000 OA
BRANCH  13  14
ATOM     14  C   UNL     1       6.309   5.808  15.182  0.00  0.00    +0.000 C 
ATOM     15  O   UNL     1       5.377   6.583  15.363  0.00  0.00    +0.000 OA
BRANCH  14  19
ATOM     16  C   UNL     1       5.685   2.220  11.579  0.00  0.00    +0.000 C 
ATOM     17  C   UNL     1       6.085   3.319  12.481  0.00  0.00    +0.000 A 
ATOM     18  C   UNL     1       5.587   3.820  13.663  0.00  0.00    +0.000 A 
ATOM     19  C   UNL     1       6.420   4.924  14.031  0.00  0.00    +0.000 A 
ATOM     20  C   UNL     1       7.387   4.994  13.040  0.00  0.00    +0.000 A 
ATOM     21  C   UNL     1       8.552   5.867  12.775  0.00  0.00    +0.000 C 
ATOM     22  O   UNL     1       7.179   4.028  12.102  0.00  0.00    +0.000 OA
ENDBRANCH  14  19
ENDBRANCH  13  14
ENDBRANCH   1  13
TORSDOF 5
ENDMDL
MODEL 3
REMARK VINA RESULT:      -7.7      1.364      1.617
REMARK  Name = 
REMARK  7 active torsions:
REMARK  status: ('A' for Active; 'I' for Inactive)
REMARK    1  A    between atoms: C_1  and  C_2
REMARK    2  A    between atoms: C_4  and  C_5
REMARK    3  A    between atoms: C_5  and  O_7
REMARK    4  A    between atoms: O_7  and  C_8
REMARK    5  A    between atoms: C_8  and  C_9
REMARK    6  A    between atoms: N_11  and  C_12
REMARK    7  A    between atoms: C_19  and  C_20
REMARK                            x       y       z     vdW  Elec       q    Type
REMARK                         _______ _______ _______ _____ _____    ______ ____
ROOT
ATOM      1  C   UNL     1       6.364   6.705  17.206  0.00  0.00    +0.000 C 
ENDROOT
BRANCH   1   2
ATOM      2  C   UNL     1       5.448   5.879  18.110  0.00  0.00    +0.000 C 
ATOM      3  O   UNL     1       5.920   5.242  19.045  0.00  0.00    +0.000 OA
ATOM      4  N   UNL     1       4.107   5.903  17.735  0.00  0.00    +0.000 N 
ATOM      5  H   UNL     1       3.867   6.319  16.841  0.00  0.00    +0.000 HD
BRANCH   4   6
ATOM      6  C   UNL     1       3.066   5.244  18.432  0.00  0.00    +0.000 A 
ATOM      7  C   UNL     1       2.705   5.580  19.741  0.00  0.00    +0.000 A 
ATOM      8  C   UNL     1       1.738   4.849  20.429  0.00  0.00    +0.000 A 
ATOM      9  C   UNL     1       1.108   3.788  19.800  0.00  0.00    +0.000 A 
ATOM     10  F   UNL     1       0.205   3.062  20.473  0.00  0.00    +0.000 F 
ATOM     11  C   UNL     1       1.406   3.467  18.483  0.00  0.00    +0.000 A 
ATOM     12  C   UNL     1       2.374   4.205  17.786  0.00  0.00    +0.000 A 
ENDBRANCH   4   6
ENDBRANCH   1   2
BRANCH   1  13
ATOM     13  O   UNL     1       6.290   6.259  15.845  0.00  0.00    +0.000 OA
BRANCH  13  14
ATOM     14  C   UNL     1       7.041   5.145  15.591  0.00  0.00    +0.000 C 
ATOM     15  O   UNL     1       7.865   4.697  16.380  0.00  0.00    +0.000 OA
BRANCH  14  19
ATOM     16  C   UNL     1       5.250   2.582  11.534  0.00  0.00    +0.000 C 
ATOM     17  C   UNL     1       5.946   3.420  12.532  0.00  0.00    +0.000 A 
ATOM     18  C   UNL     1       5.815   3.602  13.890  0.00  0.00    +0.000 A 
ATOM     19  C   UNL     1       6.784   4.582  14.275  0.00  0.00    +0.000 A 
ATOM     20  C   UNL     1       7.453   4.909  13.104  0.00  0.00    +0.000 A 
ATOM     21  C   UNL     1       8.557   5.828  12.752  0.00  0.00    +0.000 C 
ATOM     22  O   UNL     1       6.941   4.209  12.052  0.00  0.00    +0.000 OA
ENDBRANCH  14  19
ENDBRANCH  13  14
ENDBRANCH   1  13
TORSDOF 5
ENDMDL
MODEL 4
REMARK VINA RESULT:      -7.7      1.184      1.824
REMARK  Name = 
REMARK  7 active torsions:
REMARK  status: ('A' for Active; 'I' for Inactive)
REMARK    1  A    between atoms: C_1  and  C_2
REMARK    2  A    between atoms: C_4  and  C_5
REMARK    3  A    between atoms: C_5  and  O_7
REMARK    4  A    between atoms: O_7  and  C_8
REMARK    5  A    between atoms: C_8  and  C_9
REMARK    6  A    between atoms: N_11  and  C_12
REMARK    7  A    between atoms: C_19  and  C_20
REMARK                            x       y       z     vdW  Elec       q    Type
REMARK                         _______ _______ _______ _____ _____    ______ ____
ROOT
ATOM      1  C   UNL     1       5.207   6.369  15.778  0.00  0.00    +0.000 C 
ENDROOT
BRANCH   1   2
ATOM      2  C   UNL     1       4.522   5.905  17.064  0.00  0.00    +0.000 C 
ATOM      3  O   UNL     1       4.551   6.612  18.065  0.00  0.00    +0.000 OA
ATOM      4  N   UNL     1       3.941   4.642  16.975  0.00  0.00    +0.000 N 
ATOM      5  H   UNL     1       4.138   4.080  16.153  0.00  0.00    +0.000 HD
BRANCH   4   6
ATOM      6  C   UNL     1       3.224   4.011  18.020  0.00  0.00    +0.000 A 
ATOM      7  C   UNL     1       1.842   4.159  18.182  0.00  0.00    +0.000 A 
ATOM      8  C   UNL     1       1.183   3.600  19.275  0.00  0.00    +0.000 A 
ATOM      9  C   UNL     1       1.903   2.868  20.205  0.00  0.00    +0.000 A 
ATOM     10  F   UNL     1       1.277   2.361  21.276  0.00  0.00    +0.000 F 
ATOM     11  C   UNL     1       3.265   2.658  20.041  0.00  0.00    +0.000 A 
ATOM     12  C   UNL     1       3.930   3.214  18.938  0.00  0.00    +0.000 A 
ENDBRANCH   4   6
ENDBRANCH   1   2
BRANCH   1  13
ATOM     13  O   UNL     1       6.634   6.321  15.904  0.00  0.00    +0.000 OA
BRANCH  13  14
ATOM     14  C   UNL     1       7.163   5.078  15.695  0.00  0.00    +0.000 C 
ATOM     15  O   UNL     1       7.839   4.487  16.529  0.00  0.00    +0.000 OA
BRANCH  14  19
ATOM     16  C   UNL     1       5.272   2.644  11.604  0.00  0.00    +0.000 C 
ATOM     17  C   UNL     1       5.991   3.452  12.610  0.00  0.00    +0.000 A 
ATOM     18  C   UNL     1       5.898   3.586  13.977  0.00  0.00    +0.000 A 
ATOM     19  C   UNL     1       6.872   4.559  14.367  0.00  0.00    +0.000 A 
ATOM     20  C   UNL     1       7.506   4.929  13.190  0.00  0.00    +0.000 A 
ATOM     21  C   UNL     1       8.595   5.867  12.839  0.00  0.00    +0.000 C 
ATOM     22  O   UNL     1       6.968   4.263  12.130  0.00  0.00    +0.000 OA
ENDBRANCH  14  19
ENDBRANCH  13  14
ENDBRANCH   1  13
TORSDOF 5
ENDMDL
MODEL 5
REMARK VINA RESULT:      -7.6      1.403      1.661
REMARK  Name = 
REMARK  7 active torsions:
REMARK  status: ('A' for Active; 'I' for Inactive)
REMARK    1  A    between atoms: C_1  and  C_2
REMARK    2  A    between atoms: C_4  and  C_5
REMARK    3  A    between atoms: C_5  and  O_7
REMARK    4  A    between atoms: O_7  and  C_8
REMARK    5  A    between atoms: C_8  and  C_9
REMARK    6  A    between atoms: N_11  and  C_12
REMARK    7  A    between atoms: C_19  and  C_20
REMARK                            x       y       z     vdW  Elec       q    Type
REMARK                         _______ _______ _______ _____ _____    ______ ____
ROOT
ATOM      1  C   UNL     1       7.498   5.355  17.616  0.00  0.00    +0.000 C 
ENDROOT
BRANCH   1   2
ATOM      2  C   UNL     1       6.544   5.062  18.774  0.00  0.00    +0.000 C 
ATOM      3  O   UNL     1       6.886   5.297  19.928  0.00  0.00    +0.000 OA
ATOM      4  N   UNL     1       5.335   4.489  18.385  0.00  0.00    +0.000 N 
ATOM      5  H   UNL     1       5.240   4.178  17.423  0.00  0.00    +0.000 HD
BRANCH   4   6
ATOM      6  C   UNL     1       4.280   4.157  19.268  0.00  0.00    +0.000 A 
ATOM      7  C   UNL     1       3.347   5.099  19.715  0.00  0.00    +0.000 A 
ATOM      8  C   UNL     1       2.378   4.759  20.657  0.00  0.00    +0.000 A 
ATOM      9  C   UNL     1       2.323   3.463  21.142  0.00  0.00    +0.000 A 
ATOM     10  F   UNL     1       1.415   3.144  22.075  0.00  0.00    +0.000 F 
ATOM     11  C   UNL     1       3.200   2.493  20.675  0.00  0.00    +0.000 A 
ATOM     12  C   UNL     1       4.173   2.832  19.723  0.00  0.00    +0.000 A 
ENDBRANCH   4   6
ENDBRANCH   1   2
BRANCH   1  13
ATOM     13  O   UNL     1       7.157   4.586  16.455  0.00  0.00    +0.000 OA
BRANCH  13  14
ATOM     14  C   UNL     1       6.544   5.315  15.474  0.00  0.00    +0.000 C 
ATOM     15  O   UNL     1       6.046   6.418  15.669  0.00  0.00    +0.000 OA
BRANCH  14  19
ATOM     16  C   UNL     1       5.485   2.316  11.460  0.00  0.00    +0.000 C 
ATOM     17  C   UNL     1       5.991   3.271  12.466  0.00  0.00    +0.000 A 
ATOM     18  C   UNL     1       5.644   3.571  13.764  0.00  0.00    +0.000 A 
ATOM     19  C   UNL     1       6.513   4.623  14.195  0.00  0.00    +0.000 A 
ATOM     20  C   UNL     1       7.348   4.869  13.115  0.00  0.00    +0.000 A 
ATOM     21  C   UNL     1       8.467   5.799  12.848  0.00  0.00    +0.000 C 
ATOM     22  O   UNL     1       7.027   4.055  12.070  0.00  0.00    +0.000 OA
ENDBRANCH  14  19
ENDBRANCH  13  14
ENDBRANCH   1  13
TORSDOF 5
ENDMDL
MODEL 6
REMARK VINA RESULT:      -7.6      4.002      5.969
REMARK  Name = 
REMARK  7 active torsions:
REMARK  status: ('A' for Active; 'I' for Inactive)
REMARK    1  A    between atoms: C_1  and  C_2
REMARK    2  A    between atoms: C_4  and  C_5
REMARK    3  A    between atoms: C_5  and  O_7
REMARK    4  A    between atoms: O_7  and  C_8
REMARK    5  A    between atoms: C_8  and  C_9
REMARK    6  A    between atoms: N_11  and  C_12
REMARK    7  A    between atoms: C_19  and  C_20
REMARK                            x       y       z     vdW  Elec       q    Type
REMARK                         _______ _______ _______ _____ _____    ______ ____
ROOT
ATOM      1  C   UNL     1       2.639   3.605  21.369  0.00  0.00    +0.000 C 
ENDROOT
BRANCH   1   2
ATOM      2  C   UNL     1       1.884   4.739  20.675  0.00  0.00    +0.000 C 
ATOM      3  O   UNL     1       0.724   4.573  20.312  0.00  0.00    +0.000 OA
ATOM      4  N   UNL     1       2.642   5.890  20.477  0.00  0.00    +0.000 N 
ATOM      5  H   UNL     1       3.640   5.844  20.658  0.00  0.00    +0.000 HD
BRANCH   4   6
ATOM      6  C   UNL     1       2.157   7.081  19.886  0.00  0.00    +0.000 A 
ATOM      7  C   UNL     1       2.388   7.406  18.545  0.00  0.00    +0.000 A 
ATOM      8  C   UNL     1       1.976   8.630  18.021  0.00  0.00    +0.000 A 
ATOM      9  C   UNL     1       1.307   9.530  18.834  0.00  0.00    +0.000 A 
ATOM     10  F   UNL     1       0.943  10.721  18.340  0.00  0.00    +0.000 F 
ATOM     11  C   UNL     1       1.014   9.212  20.153  0.00  0.00    +0.000 A 
ATOM     12  C   UNL     1       1.423   7.979  20.681  0.00  0.00    +0.000 A 
ENDBRANCH   4   6
ENDBRANCH   1   2
BRANCH   1  13
ATOM     13  O   UNL     1       2.946   2.547  20.452  0.00  0.00    +0.000 OA
BRANCH  13  14
ATOM     14  C   UNL     1       4.245   2.548  20.027  0.00  0.00    +0.000 C 
ATOM     15  O   UNL     1       5.108   1.820  20.504  0.00  0.00    +0.000 OA
BRANCH  14  19
ATOM     16  C   UNL     1       6.076   6.289  17.046  0.00  0.00    +0.000 C 
ATOM     17  C   UNL     1       5.356   5.191  17.721  0.00  0.00    +0.000 A 
ATOM     18  C   UNL     1       5.522   4.526  18.914  0.00  0.00    +0.000 A 
ATOM     19  C   UNL     1       4.496   3.531  18.984  0.00  0.00    +0.000 A 
ATOM     20  C   UNL     1       3.761   3.687  17.818  0.00  0.00    +0.000 A 
ATOM     21  C   UNL     1       2.577   3.022  17.231  0.00  0.00    +0.000 C 
ATOM     22  O   UNL     1       4.286   4.687  17.054  0.00  0.00    +0.000 OA
ENDBRANCH  14  19
ENDBRANCH  13  14
ENDBRANCH   1  13
TORSDOF 5
ENDMDL
MODEL 7
REMARK VINA RESULT:      -7.5      1.424      1.650
REMARK  Name = 
REMARK  7 active torsions:
REMARK  status: ('A' for Active; 'I' for Inactive)
REMARK    1  A    between atoms: C_1  and  C_2
REMARK    2  A    between atoms: C_4  and  C_5
REMARK    3  A    between atoms: C_5  and  O_7
REMARK    4  A    between atoms: O_7  and  C_8
REMARK    5  A    between atoms: C_8  and  C_9
REMARK    6  A    between atoms: N_11  and  C_12
REMARK    7  A    between atoms: C_19  and  C_20
REMARK                            x       y       z     vdW  Elec       q    Type
REMARK                         _______ _______ _______ _____ _____    ______ ____
ROOT
ATOM      1  C   UNL     1       6.332   6.361  17.578  0.00  0.00    +0.000 C 
ENDROOT
BRANCH   1   2
ATOM      2  C   UNL     1       5.677   5.472  18.636  0.00  0.00    +0.000 C 
ATOM      3  O   UNL     1       6.372   4.859  19.439  0.00  0.00    +0.000 OA
ATOM      4  N   UNL     1       4.288   5.412  18.549  0.00  0.00    +0.000 N 
ATOM      5  H   UNL     1       3.841   5.818  17.733  0.00  0.00    +0.000 HD
BRANCH   4   6
ATOM      6  C   UNL     1       3.457   4.683  19.433  0.00  0.00    +0.000 A 
ATOM      7  C   UNL     1       3.747   3.374  19.833  0.00  0.00    +0.000 A 
ATOM      8  C   UNL     1       2.860   2.654  20.630  0.00  0.00    +0.000 A 
ATOM      9  C   UNL     1       1.683   3.250  21.052  0.00  0.00    +0.000 A 
ATOM     10  F   UNL     1       0.812   2.545  21.788  0.00  0.00    +0.000 F 
ATOM     11  C   UNL     1       1.395   4.566  20.718  0.00  0.00    +0.000 A 
ATOM     12  C   UNL     1       2.289   5.295  19.920  0.00  0.00    +0.000 A 
ENDBRANCH   4   6
ENDBRANCH   1   2
BRANCH   1  13
ATOM     13  O   UNL     1       6.068   5.874  16.256  0.00  0.00    +0.000 OA
BRANCH  13  14
ATOM     14  C   UNL     1       6.976   4.950  15.819  0.00  0.00    +0.000 C 
ATOM     15  O   UNL     1       7.937   4.585  16.487  0.00  0.00    +0.000 OA
BRANCH  14  19
ATOM     16  C   UNL     1       5.097   2.728  11.604  0.00  0.00    +0.000 C 
ATOM     17  C   UNL     1       5.822   3.471  12.654  0.00  0.00    +0.000 A 
ATOM     18  C   UNL     1       5.696   3.568  14.021  0.00  0.00    +0.000 A 
ATOM     19  C   UNL     1       6.700   4.484  14.469  0.00  0.00    +0.000 A 
ATOM     20  C   UNL     1       7.383   4.862  13.321  0.00  0.00    +0.000 A 
ATOM     21  C   UNL     1       8.521   5.760  13.030  0.00  0.00    +0.000 C 
ATOM     22  O   UNL     1       6.847   4.253  12.226  0.00  0.00    +0.000 OA
ENDBRANCH  14  19
ENDBRANCH  13  14
ENDBRANCH   1  13
TORSDOF 5
ENDMDL
MODEL 8
REMARK VINA RESULT:      -7.4      1.366      1.602
REMARK  Name = 
REMARK  7 active torsions:
REMARK  status: ('A' for Active; 'I' for Inactive)
REMARK    1  A    between atoms: C_1  and  C_2
REMARK    2  A    between atoms: C_4  and  C_5
REMARK    3  A    between atoms: C_5  and  O_7
REMARK    4  A    between atoms: O_7  and  C_8
REMARK    5  A    between atoms: C_8  and  C_9
REMARK    6  A    between atoms: N_11  and  C_12
REMARK    7  A    between atoms: C_19  and  C_20
REMARK                            x       y       z     vdW  Elec       q    Type
REMARK                         _______ _______ _______ _____ _____    ______ ____
ROOT
ATOM      1  C   UNL     1       6.962   6.114  17.390  0.00  0.00    +0.000 C 
ENDROOT
BRANCH   1   2
ATOM      2  C   UNL     1       5.953   5.196  18.080  0.00  0.00    +0.000 C 
ATOM      3  O   UNL     1       6.331   4.166  18.626  0.00  0.00    +0.000 OA
ATOM      4  N   UNL     1       4.632   5.625  17.978  0.00  0.00    +0.000 N 
ATOM      5  H   UNL     1       4.425   6.395  17.350  0.00  0.00    +0.000 HD
BRANCH   4   6
ATOM      6  C   UNL     1       3.523   4.963  18.559  0.00  0.00    +0.000 A 
ATOM      7  C   UNL     1       2.734   4.050  17.852  0.00  0.00    +0.000 A 
ATOM      8  C   UNL     1       1.596   3.488  18.427  0.00  0.00    +0.000 A 
ATOM      9  C   UNL     1       1.252   3.821  19.726  0.00  0.00    +0.000 A 
ATOM     10  F   UNL     1       0.138   3.310  20.267  0.00  0.00    +0.000 F 
ATOM     11  C   UNL     1       2.047   4.681  20.472  0.00  0.00    +0.000 A 
ATOM     12  C   UNL     1       3.196   5.244  19.898  0.00  0.00    +0.000 A 
ENDBRANCH   4   6
ENDBRANCH   1   2
BRANCH   1  13
ATOM     13  O   UNL     1       7.287   5.635  16.078  0.00  0.00    +0.000 OA
BRANCH  13  14
ATOM     14  C   UNL     1       6.295   5.836  15.159  0.00  0.00    +0.000 C 
ATOM     15  O   UNL     1       5.404   6.665  15.304  0.00  0.00    +0.000 OA
BRANCH  14  19
ATOM     16  C   UNL     1       5.615   2.212  11.604  0.00  0.00    +0.000 C 
ATOM     17  C   UNL     1       6.032   3.317  12.491  0.00  0.00    +0.000 A 
ATOM     18  C   UNL     1       5.543   3.840  13.667  0.00  0.00    +0.000 A 
ATOM     19  C   UNL     1       6.392   4.936  14.021  0.00  0.00    +0.000 A 
ATOM     20  C   UNL     1       7.360   4.979  13.027  0.00  0.00    +0.000 A 
ATOM     21  C   UNL     1       8.538   5.831  12.751  0.00  0.00    +0.000 C 
ATOM     22  O   UNL     1       7.137   4.004  12.102  0.00  0.00    +0.000 OA
ENDBRANCH  14  19
ENDBRANCH  13  14
ENDBRANCH   1  13
TORSDOF 5
ENDMDL
MODEL 9
REMARK VINA RESULT:      -7.3      3.960      4.793
REMARK  Name = 
REMARK  7 active torsions:
REMARK  status: ('A' for Active; 'I' for Inactive)
REMARK    1  A    between atoms: C_1  and  C_2
REMARK    2  A    between atoms: C_4  and  C_5
REMARK    3  A    between atoms: C_5  and  O_7
REMARK    4  A    between atoms: O_7  and  C_8
REMARK    5  A    between atoms: C_8  and  C_9
REMARK    6  A    between atoms: N_11  and  C_12
REMARK    7  A    between atoms: C_19  and  C_20
REMARK                            x       y       z     vdW  Elec       q    Type
REMARK                         _______ _______ _______ _____ _____    ______ ____
ROOT
ATOM      1  C   UNL     1       3.516   3.938  19.467  0.00  0.00    +0.000 C 
ENDROOT
BRANCH   1   2
ATOM      2  C   UNL     1       2.686   5.132  18.992  0.00  0.00    +0.000 C 
ATOM      3  O   UNL     1       1.967   5.027  18.005  0.00  0.00    +0.000 OA
ATOM      4  N   UNL     1       2.873   6.289  19.745  0.00  0.00    +0.000 N 
ATOM      5  H   UNL     1       3.627   6.302  20.425  0.00  0.00    +0.000 HD
BRANCH   4   6
ATOM      6  C   UNL     1       2.195   7.511  19.522  0.00  0.00    +0.000 A 
ATOM      7  C   UNL     1       2.226   8.176  18.291  0.00  0.00    +0.000 A 
ATOM      8  C   UNL     1       1.625   9.424  18.134  0.00  0.00    +0.000 A 
ATOM      9  C   UNL     1       0.968  10.005  19.206  0.00  0.00    +0.000 A 
ATOM     10  F   UNL     1       0.422  11.221  19.066  0.00  0.00    +0.000 F 
ATOM     11  C   UNL     1       0.874   9.344  20.423  0.00  0.00    +0.000 A 
ATOM     12  C   UNL     1       1.472   8.085  20.582  0.00  0.00    +0.000 A 
ENDBRANCH   4   6
ENDBRANCH   1   2
BRANCH   1  13
ATOM     13  O   UNL     1       4.325   3.414  18.406  0.00  0.00    +0.000 OA
BRANCH  13  14
ATOM     14  C   UNL     1       5.475   4.121  18.192  0.00  0.00    +0.000 C 
ATOM     15  O   UNL     1       6.220   4.481  19.096  0.00  0.00    +0.000 OA
BRANCH  14  19
ATOM     16  C   UNL     1       6.373   4.022  13.150  0.00  0.00    +0.000 C 
ATOM     17  C   UNL     1       6.096   4.315  14.571  0.00  0.00    +0.000 A 
ATOM     18  C   UNL     1       6.027   3.550  15.712  0.00  0.00    +0.000 A 
ATOM     19  C   UNL     1       5.691   4.432  16.787  0.00  0.00    +0.000 A 
ATOM     20  C   UNL     1       5.602   5.690  16.208  0.00  0.00    +0.000 A 
ATOM     21  C   UNL     1       5.301   7.051  16.704  0.00  0.00    +0.000 C 
ATOM     22  O   UNL     1       5.841   5.615  14.869  0.00  0.00    +0.000 OA
ENDBRANCH  14  19
ENDBRANCH  13  14
ENDBRANCH   1  13
TORSDOF 5
ENDMDL
