MODEL 1
REMARK VINA RESULT:      -7.0      0.000      0.000
REMARK  Name = 
REMARK  5 active torsions:
REMARK  status: ('A' for Active; 'I' for Inactive)
REMARK    1  A    between atoms: C_1  and  C_2
REMARK    2  A    between atoms: N_6  and  C_7
REMARK    3  A    between atoms: C_7  and  C_8
REMARK    4  A    between atoms: C_8  and  C_9
REMARK    5  A    between atoms: C_9  and  N_10
REMARK                            x       y       z     vdW  Elec       q    Type
REMARK                         _______ _______ _______ _____ _____    ______ ____
ROOT
ATOM      1  N   UNL     1       1.303   8.819  19.506  0.00  0.00    +0.000 N 
ATOM      2  C   UNL     1       0.642   9.215  20.675  0.00  0.00    +0.000 A 
ATOM      3  S   UNL     1       1.236   9.103  22.239  0.00  0.00    +0.000 S 
ATOM      4  N   UNL     1      -0.538   9.934  20.456  0.00  0.00    +0.000 N 
ATOM      5  C   UNL     1      -0.284  11.004  19.625  0.00  0.00    +0.000 A 
ATOM      6  S   UNL     1      -1.124  12.436  19.831  0.00  0.00    +0.000 S 
ATOM      7  C   UNL     1       0.174  13.287  19.094  0.00  0.00    +0.000 A 
ATOM      8  C   UNL     1       1.134  12.438  18.565  0.00  0.00    +0.000 A 
ATOM      9  C   UNL     1       0.791  11.063  18.794  0.00  0.00    +0.000 A 
ATOM     10  C   UNL     1       1.498   9.817  18.505  0.00  0.00    +0.000 A 
ATOM     11  O   UNL     1       2.233   9.686  17.537  0.00  0.00    +0.000 OA
ATOM     12  C   UNL     1       2.419  12.937  18.001  0.00  0.00    +0.000 C 
ATOM     13  C   UNL     1       2.750  14.380  18.400  0.00  0.00    +0.000 C 
ATOM     14  C   UNL     1       1.605  15.340  18.758  0.00  0.00    +0.000 C 
ATOM     15  C   UNL     1       0.245  14.769  19.173  0.00  0.00    +0.000 C 
ATOM     16  H   UNL     1      -1.282   9.370  20.055  0.00  0.00    +0.000 HD
ENDROOT
BRANCH   1  17
ATOM     17  C   UNL     1       2.281   7.717  19.485  0.00  0.00    +0.000 C 
BRANCH  17  18
ATOM     18  C   UNL     1       1.836   6.365  20.080  0.00  0.00    +0.000 C 
BRANCH  18  19
ATOM     19  C   UNL     1       2.898   5.271  19.987  0.00  0.00    +0.000 C 
BRANCH  19  25
ATOM     20  C   UNL     1       1.326   2.826  21.188  0.00  0.00    +0.000 C 
ATOM     21  C   UNL     1       1.706   3.025  19.776  0.00  0.00    +0.000 A 
ATOM     22  C   UNL     1       1.437   2.247  18.671  0.00  0.00    +0.000 A 
ATOM     23  N   UNL     1       1.974   2.776  17.535  0.00  0.00    +0.000 NA
ATOM     24  C   UNL     1       2.579   3.883  17.929  0.00  0.00    +0.000 A 
ATOM     25  N   UNL     1       2.438   4.078  19.280  0.00  0.00    +0.000 N 
ENDBRANCH  19  25
ENDBRANCH  18  19
ENDBRANCH  17  18
ENDBRANCH   1  17
TORSDOF 4
ENDMDL
MODEL 2
REMARK VINA RESULT:      -6.8      5.730      9.161
REMARK  Name = 
REMARK  5 active torsions:
REMARK  status: ('A' for Active; 'I' for Inactive)
REMARK    1  A    between atoms: C_1  and  C_2
REMARK    2  A    between atoms: N_6  and  C_7
REMARK    3  A    between atoms: C_7  and  C_8
REMARK    4  A    between atoms: C_8  and  C_9
REMARK    5  A    between atoms: C_9  and  N_10
REMARK                            x       y       z     vdW  Elec       q    Type
REMARK                         _______ _______ _______ _____ _____    ______ ____
ROOT
ATOM      1  N   UNL     1       6.910   6.433  17.573  0.00  0.00    +0.000 N 
ATOM      2  C   UNL     1       7.371   5.473  18.482  0.00  0.00    +0.000 A 
ATOM      3  S   UNL     1       8.374   5.751  19.798  0.00  0.00    +0.000 S 
ATOM      4  N   UNL     1       6.764   4.219  18.354  0.00  0.00    +0.000 N 
ATOM      5  C   UNL     1       5.394   4.355  18.406  0.00  0.00    +0.000 A 
ATOM      6  S   UNL     1       4.463   3.158  19.112  0.00  0.00    +0.000 S 
ATOM      7  C   UNL     1       3.240   4.320  19.437  0.00  0.00    +0.000 A 
ATOM      8  C   UNL     1       3.505   5.549  18.852  0.00  0.00    +0.000 A 
ATOM      9  C   UNL     1       4.751   5.525  18.141  0.00  0.00    +0.000 A 
ATOM     10  C   UNL     1       5.496   6.566  17.436  0.00  0.00    +0.000 A 
ATOM     11  O   UNL     1       4.945   7.489  16.852  0.00  0.00    +0.000 OA
ATOM     12  C   UNL     1       2.665   6.752  19.106  0.00  0.00    +0.000 C 
ATOM     13  C   UNL     1       1.753   6.622  20.331  0.00  0.00    +0.000 C 
ATOM     14  C   UNL     1       1.310   5.224  20.790  0.00  0.00    +0.000 C 
ATOM     15  C   UNL     1       2.120   3.997  20.359  0.00  0.00    +0.000 C 
ATOM     16  H   UNL     1       7.019   3.737  17.497  0.00  0.00    +0.000 HD
ENDROOT
BRANCH   1  17
ATOM     17  C   UNL     1       7.685   7.641  17.238  0.00  0.00    +0.000 C 
BRANCH  17  18
ATOM     18  C   UNL     1       8.212   8.492  18.410  0.00  0.00    +0.000 C 
BRANCH  18  19
ATOM     19  C   UNL     1       8.626   9.906  18.010  0.00  0.00    +0.000 C 
BRANCH  19  25
ATOM     20  C   UNL     1      11.137  11.756  17.602  0.00  0.00    +0.000 C 
ATOM     21  C   UNL     1      10.464  11.449  18.879  0.00  0.00    +0.000 A 
ATOM     22  C   UNL     1      10.725  11.913  20.150  0.00  0.00    +0.000 A 
ATOM     23  N   UNL     1       9.874  11.379  21.071  0.00  0.00    +0.000 NA
ATOM     24  C   UNL     1       9.080  10.582  20.376  0.00  0.00    +0.000 A 
ATOM     25  N   UNL     1       9.398  10.596  19.041  0.00  0.00    +0.000 N 
ENDBRANCH  19  25
ENDBRANCH  18  19
ENDBRANCH  17  18
ENDBRANCH   1  17
TORSDOF 4
ENDMDL
MODEL 3
REMARK VINA RESULT:      -6.8      5.209      9.227
REMARK  Name = 
REMARK  5 active torsions:
REMARK  status: ('A' for Active; 'I' for Inactive)
REMARK    1  A    between atoms: C_1  and  C_2
REMARK    2  A    between atoms: N_6  and  C_7
REMARK    3  A    between atoms: C_7  and  C_8
REMARK    4  A    between atoms: C_8  and  C_9
REMARK    5  A    between atoms: C_9  and  N_10
REMARK                            x       y       z     vdW  Elec       q    Type
REMARK                         _______ _______ _______ _____ _____    ______ ____
ROOT
ATOM      1  N   UNL     1       6.116   6.618  17.960  0.00  0.00    +0.000 N 
ATOM      2  C   UNL     1       5.153   6.910  16.987  0.00  0.00    +0.000 A 
ATOM      3  S   UNL     1       5.333   6.738  15.328  0.00  0.00    +0.000 S 
ATOM      4  N   UNL     1       3.882   7.189  17.498  0.00  0.00    +0.000 N 
ATOM      5  C   UNL     1       3.477   6.164  18.325  0.00  0.00    +0.000 A 
ATOM      6  S   UNL     1       1.859   5.740  18.398  0.00  0.00    +0.000 S 
ATOM      7  C   UNL     1       2.310   4.159  18.897  0.00  0.00    +0.000 A 
ATOM      8  C   UNL     1       3.668   4.050  19.153  0.00  0.00    +0.000 A 
ATOM      9  C   UNL     1       4.342   5.293  18.912  0.00  0.00    +0.000 A 
ATOM     10  C   UNL     1       5.755   5.667  18.960  0.00  0.00    +0.000 A 
ATOM     11  O   UNL     1       6.545   5.154  19.740  0.00  0.00    +0.000 OA
ATOM     12  C   UNL     1       4.320   2.747  19.464  0.00  0.00    +0.000 C 
ATOM     13  C   UNL     1       3.467   1.526  19.100  0.00  0.00    +0.000 C 
ATOM     14  C   UNL     1       1.937   1.667  19.058  0.00  0.00    +0.000 C 
ATOM     15  C   UNL     1       1.313   3.058  18.904  0.00  0.00    +0.000 C 
ATOM     16  H   UNL     1       3.839   8.066  18.009  0.00  0.00    +0.000 HD
ENDROOT
BRANCH   1  17
ATOM     17  C   UNL     1       7.563   6.729  17.700  0.00  0.00    +0.000 C 
BRANCH  17  18
ATOM     18  C   UNL     1       8.321   7.878  18.394  0.00  0.00    +0.000 C 
BRANCH  18  19
ATOM     19  C   UNL     1       8.070   9.249  17.770  0.00  0.00    +0.000 C 
BRANCH  19  25
ATOM     20  C   UNL     1       7.906  12.327  17.144  0.00  0.00    +0.000 C 
ATOM     21  C   UNL     1       8.666  11.686  18.235  0.00  0.00    +0.000 A 
ATOM     22  C   UNL     1       9.422  12.254  19.237  0.00  0.00    +0.000 A 
ATOM     23  N   UNL     1       9.976  11.312  20.052  0.00  0.00    +0.000 NA
ATOM     24  C   UNL     1       9.567  10.155  19.559  0.00  0.00    +0.000 A 
ATOM     25  N   UNL     1       8.765  10.333  18.460  0.00  0.00    +0.000 N 
ENDBRANCH  19  25
ENDBRANCH  18  19
ENDBRANCH  17  18
ENDBRANCH   1  17
TORSDOF 4
ENDMDL
MODEL 4
REMARK VINA RESULT:      -6.8      1.091      1.172
REMARK  Name = 
REMARK  5 active torsions:
REMARK  status: ('A' for Active; 'I' for Inactive)
REMARK    1  A    between atoms: C_1  and  C_2
REMARK    2  A    between atoms: N_6  and  C_7
REMARK    3  A    between atoms: C_7  and  C_8
REMARK    4  A    between atoms: C_8  and  C_9
REMARK    5  A    between atoms: C_9  and  N_10
REMARK                            x       y       z     vdW  Elec       q    Type
REMARK                         _______ _______ _______ _____ _____    ______ ____
ROOT
ATOM      1  N   UNL     1       1.403   8.811  19.386  0.00  0.00    +0.000 N 
ATOM      2  C   UNL     1       0.684   9.104  20.552  0.00  0.00    +0.000 A 
ATOM      3  S   UNL     1       1.255   8.994  22.125  0.00  0.00    +0.000 S 
ATOM      4  N   UNL     1      -0.552   9.719  20.328  0.00  0.00    +0.000 N 
ATOM      5  C   UNL     1      -0.382  10.836  19.539  0.00  0.00    +0.000 A 
ATOM      6  S   UNL     1      -1.355  12.177  19.771  0.00  0.00    +0.000 S 
ATOM      7  C   UNL     1      -0.127  13.168  19.092  0.00  0.00    +0.000 A 
ATOM      8  C   UNL     1       0.918  12.429  18.559  0.00  0.00    +0.000 A 
ATOM      9  C   UNL     1       0.700  11.022  18.735  0.00  0.00    +0.000 A 
ATOM     10  C   UNL     1       1.525   9.857  18.424  0.00  0.00    +0.000 A 
ATOM     11  O   UNL     1       2.289   9.827  17.469  0.00  0.00    +0.000 OA
ATOM     12  C   UNL     1       2.163  13.064  18.042  0.00  0.00    +0.000 C 
ATOM     13  C   UNL     1       2.351  14.516  18.495  0.00  0.00    +0.000 C 
ATOM     14  C   UNL     1       1.114  15.354  18.857  0.00  0.00    +0.000 C 
ATOM     15  C   UNL     1      -0.195  14.647  19.221  0.00  0.00    +0.000 C 
ATOM     16  H   UNL     1      -1.232   9.103  19.892  0.00  0.00    +0.000 HD
ENDROOT
BRANCH   1  17
ATOM     17  C   UNL     1       2.479   7.805  19.353  0.00  0.00    +0.000 C 
BRANCH  17  18
ATOM     18  C   UNL     1       2.090   6.364  18.963  0.00  0.00    +0.000 C 
BRANCH  18  19
ATOM     19  C   UNL     1       1.979   5.412  20.152  0.00  0.00    +0.000 C 
BRANCH  19  25
ATOM     20  C   UNL     1       1.786   2.604  21.555  0.00  0.00    +0.000 C 
ATOM     21  C   UNL     1       2.878   3.084  20.686  0.00  0.00    +0.000 A 
ATOM     22  C   UNL     1       4.013   2.434  20.252  0.00  0.00    +0.000 A 
ATOM     23  N   UNL     1       4.783   3.232  19.460  0.00  0.00    +0.000 NA
ATOM     24  C   UNL     1       4.131   4.381  19.399  0.00  0.00    +0.000 A 
ATOM     25  N   UNL     1       2.966   4.335  20.123  0.00  0.00    +0.000 N 
ENDBRANCH  19  25
ENDBRANCH  18  19
ENDBRANCH  17  18
ENDBRANCH   1  17
TORSDOF 4
ENDMDL
MODEL 5
REMARK VINA RESULT:      -6.7      1.460      1.783
REMARK  Name = 
REMARK  5 active torsions:
REMARK  status: ('A' for Active; 'I' for Inactive)
REMARK    1  A    between atoms: C_1  and  C_2
REMARK    2  A    between atoms: N_6  and  C_7
REMARK    3  A    between atoms: C_7  and  C_8
REMARK    4  A    between atoms: C_8  and  C_9
REMARK    5  A    between atoms: C_9  and  N_10
REMARK                            x       y       z     vdW  Elec       q    Type
REMARK                         _______ _______ _______ _____ _____    ______ ____
ROOT
ATOM      1  N   UNL     1       1.312   8.919  19.386  0.00  0.00    +0.000 N 
ATOM      2  C   UNL     1       0.607   9.264  20.546  0.00  0.00    +0.000 A 
ATOM      3  S   UNL     1       1.153   9.109  22.124  0.00  0.00    +0.000 S 
ATOM      4  N   UNL     1      -0.577   9.972  20.312  0.00  0.00    +0.000 N 
ATOM      5  C   UNL     1      -0.315  11.073  19.526  0.00  0.00    +0.000 A 
ATOM      6  S   UNL     1      -1.185  12.484  19.751  0.00  0.00    +0.000 S 
ATOM      7  C   UNL     1       0.122  13.380  19.086  0.00  0.00    +0.000 A 
ATOM      8  C   UNL     1       1.112  12.564  18.561  0.00  0.00    +0.000 A 
ATOM      9  C   UNL     1       0.786  11.178  18.733  0.00  0.00    +0.000 A 
ATOM     10  C   UNL     1       1.523   9.953  18.427  0.00  0.00    +0.000 A 
ATOM     11  O   UNL     1       2.291   9.866  17.479  0.00  0.00    +0.000 OA
ATOM     12  C   UNL     1       2.406  13.103  18.056  0.00  0.00    +0.000 C 
ATOM     13  C   UNL     1       2.700  14.536  18.514  0.00  0.00    +0.000 C 
ATOM     14  C   UNL     1       1.528  15.465  18.865  0.00  0.00    +0.000 C 
ATOM     15  C   UNL     1       0.165  14.859  19.216  0.00  0.00    +0.000 C 
ATOM     16  H   UNL     1      -1.298   9.410  19.868  0.00  0.00    +0.000 HD
ENDROOT
BRANCH   1  17
ATOM     17  C   UNL     1       2.308   7.833  19.361  0.00  0.00    +0.000 C 
BRANCH  17  18
ATOM     18  C   UNL     1       2.216   6.813  18.208  0.00  0.00    +0.000 C 
BRANCH  18  19
ATOM     19  C   UNL     1       3.573   6.352  17.682  0.00  0.00    +0.000 C 
BRANCH  19  25
ATOM     20  C   UNL     1       2.472   3.425  17.344  0.00  0.00    +0.000 C 
ATOM     21  C   UNL     1       3.629   3.845  18.158  0.00  0.00    +0.000 A 
ATOM     22  C   UNL     1       4.507   3.088  18.903  0.00  0.00    +0.000 A 
ATOM     23  N   UNL     1       5.445   3.860  19.522  0.00  0.00    +0.000 NA
ATOM     24  C   UNL     1       5.153   5.099  19.164  0.00  0.00    +0.000 A 
ATOM     25  N   UNL     1       4.062   5.138  18.333  0.00  0.00    +0.000 N 
ENDBRANCH  19  25
ENDBRANCH  18  19
ENDBRANCH  17  18
ENDBRANCH   1  17
TORSDOF 4
ENDMDL
MODEL 6
REMARK VINA RESULT:      -6.7      0.836      1.352
REMARK  Name = 
REMARK  5 active torsions:
REMARK  status: ('A' for Active; 'I' for Inactive)
REMARK    1  A    between atoms: C_1  and  C_2
REMARK    2  A    between atoms: N_6  and  C_7
REMARK    3  A    between atoms: C_7  and  C_8
REMARK    4  A    between atoms: C_8  and  C_9
REMARK    5  A    between atoms: C_9  and  N_10
REMARK                            x       y       z     vdW  Elec       q    Type
REMARK                         _______ _______ _______ _____ _____    ______ ____
ROOT
ATOM      1  N   UNL     1       1.329   8.917  19.331  0.00  0.00    +0.000 N 
ATOM      2  C   UNL     1       0.621   9.218  20.501  0.00  0.00    +0.000 A 
ATOM      3  S   UNL     1       1.182   9.055  22.073  0.00  0.00    +0.000 S 
ATOM      4  N   UNL     1      -0.588   9.889  20.286  0.00  0.00    +0.000 N 
ATOM      5  C   UNL     1      -0.368  11.012  19.518  0.00  0.00    +0.000 A 
ATOM      6  S   UNL     1      -1.284  12.389  19.773  0.00  0.00    +0.000 S 
ATOM      7  C   UNL     1      -0.012  13.339  19.115  0.00  0.00    +0.000 A 
ATOM      8  C   UNL     1       1.002  12.567  18.571  0.00  0.00    +0.000 A 
ATOM      9  C   UNL     1       0.723  11.167  18.720  0.00  0.00    +0.000 A 
ATOM     10  C   UNL     1       1.499   9.973  18.388  0.00  0.00    +0.000 A 
ATOM     11  O   UNL     1       2.263   9.929  17.435  0.00  0.00    +0.000 OA
ATOM     12  C   UNL     1       2.273  13.157  18.067  0.00  0.00    +0.000 C 
ATOM     13  C   UNL     1       2.522  14.591  18.548  0.00  0.00    +0.000 C 
ATOM     14  C   UNL     1       1.321  15.475  18.922  0.00  0.00    +0.000 C 
ATOM     15  C   UNL     1      -0.018  14.817  19.271  0.00  0.00    +0.000 C 
ATOM     16  H   UNL     1      -1.292   9.311  19.837  0.00  0.00    +0.000 HD
ENDROOT
BRANCH   1  17
ATOM     17  C   UNL     1       2.361   7.866  19.282  0.00  0.00    +0.000 C 
BRANCH  17  18
ATOM     18  C   UNL     1       2.089   6.648  18.376  0.00  0.00    +0.000 C 
BRANCH  18  19
ATOM     19  C   UNL     1       2.966   5.438  18.688  0.00  0.00    +0.000 C 
BRANCH  19  25
ATOM     20  C   UNL     1       2.464   2.524  17.616  0.00  0.00    +0.000 C 
ATOM     21  C   UNL     1       2.058   3.065  18.928  0.00  0.00    +0.000 A 
ATOM     22  C   UNL     1       1.428   2.443  19.984  0.00  0.00    +0.000 A 
ATOM     23  N   UNL     1       1.220   3.297  21.026  0.00  0.00    +0.000 NA
ATOM     24  C   UNL     1       1.719   4.452  20.621  0.00  0.00    +0.000 A 
ATOM     25  N   UNL     1       2.243   4.358  19.357  0.00  0.00    +0.000 N 
ENDBRANCH  19  25
ENDBRANCH  18  19
ENDBRANCH  17  18
ENDBRANCH   1  17
TORSDOF 4
ENDMDL
MODEL 7
REMARK VINA RESULT:      -6.7      0.901      1.026
REMARK  Name = 
REMARK  5 active torsions:
REMARK  status: ('A' for Active; 'I' for Inactive)
REMARK    1  A    between atoms: C_1  and  C_2
REMARK    2  A    between atoms: N_6  and  C_7
REMARK    3  A    between atoms: C_7  and  C_8
REMARK    4  A    between atoms: C_8  and  C_9
REMARK    5  A    between atoms: C_9  and  N_10
REMARK                            x       y       z     vdW  Elec       q    Type
REMARK                         _______ _______ _______ _____ _____    ______ ____
ROOT
ATOM      1  N   UNL     1       1.367   8.859  19.339  0.00  0.00    +0.000 N 
ATOM      2  C   UNL     1       0.643   9.172  20.496  0.00  0.00    +0.000 A 
ATOM      3  S   UNL     1       1.182   9.021  22.078  0.00  0.00    +0.000 S 
ATOM      4  N   UNL     1      -0.561   9.844  20.259  0.00  0.00    +0.000 N 
ATOM      5  C   UNL     1      -0.328  10.959  19.485  0.00  0.00    +0.000 A 
ATOM      6  S   UNL     1      -1.244  12.341  19.715  0.00  0.00    +0.000 S 
ATOM      7  C   UNL     1       0.038  13.282  19.067  0.00  0.00    +0.000 A 
ATOM      8  C   UNL     1       1.058  12.503  18.543  0.00  0.00    +0.000 A 
ATOM      9  C   UNL     1       0.774  11.105  18.701  0.00  0.00    +0.000 A 
ATOM     10  C   UNL     1       1.552   9.908  18.390  0.00  0.00    +0.000 A 
ATOM     11  O   UNL     1       2.329   9.853  17.447  0.00  0.00    +0.000 OA
ATOM     12  C   UNL     1       2.337  13.087  18.052  0.00  0.00    +0.000 C 
ATOM     13  C   UNL     1       2.583  14.524  18.524  0.00  0.00    +0.000 C 
ATOM     14  C   UNL     1       1.379  15.413  18.874  0.00  0.00    +0.000 C 
ATOM     15  C   UNL     1       0.033  14.761  19.210  0.00  0.00    +0.000 C 
ATOM     16  H   UNL     1      -1.260   9.263  19.806  0.00  0.00    +0.000 HD
ENDROOT
BRANCH   1  17
ATOM     17  C   UNL     1       2.398   7.806  19.313  0.00  0.00    +0.000 C 
BRANCH  17  18
ATOM     18  C   UNL     1       2.210   6.656  18.302  0.00  0.00    +0.000 C 
BRANCH  18  19
ATOM     19  C   UNL     1       3.227   5.528  18.456  0.00  0.00    +0.000 C 
BRANCH  19  25
ATOM     20  C   UNL     1       4.447   2.887  19.653  0.00  0.00    +0.000 C 
ATOM     21  C   UNL     1       3.111   3.048  19.046  0.00  0.00    +0.000 A 
ATOM     22  C   UNL     1       2.090   2.133  18.902  0.00  0.00    +0.000 A 
ATOM     23  N   UNL     1       1.008   2.675  18.275  0.00  0.00    +0.000 NA
ATOM     24  C   UNL     1       1.351   3.927  18.027  0.00  0.00    +0.000 A 
ATOM     25  N   UNL     1       2.617   4.200  18.482  0.00  0.00    +0.000 N 
ENDBRANCH  19  25
ENDBRANCH  18  19
ENDBRANCH  17  18
ENDBRANCH   1  17
TORSDOF 4
ENDMDL
MODEL 8
REMARK VINA RESULT:      -6.7      1.516      2.277
REMARK  Name = 
REMARK  5 active torsions:
REMARK  status: ('A' for Active; 'I' for Inactive)
REMARK    1  A    between atoms: C_1  and  C_2
REMARK    2  A    between atoms: N_6  and  C_7
REMARK    3  A    between atoms: C_7  and  C_8
REMARK    4  A    between atoms: C_8  and  C_9
REMARK    5  A    between atoms: C_9  and  N_10
REMARK                            x       y       z     vdW  Elec       q    Type
REMARK                         _______ _______ _______ _____ _____    ______ ____
ROOT
ATOM      1  N   UNL     1       1.376   8.830  19.398  0.00  0.00    +0.000 N 
ATOM      2  C   UNL     1       0.681   9.140  20.574  0.00  0.00    +0.000 A 
ATOM      3  S   UNL     1       1.269   9.013  22.140  0.00  0.00    +0.000 S 
ATOM      4  N   UNL     1      -0.541   9.788  20.367  0.00  0.00    +0.000 N 
ATOM      5  C   UNL     1      -0.351  10.901  19.577  0.00  0.00    +0.000 A 
ATOM      6  S   UNL     1      -1.284  12.268  19.822  0.00  0.00    +0.000 S 
ATOM      7  C   UNL     1      -0.038  13.226  19.129  0.00  0.00    +0.000 A 
ATOM      8  C   UNL     1       0.979  12.460  18.581  0.00  0.00    +0.000 A 
ATOM      9  C   UNL     1       0.725  11.059  18.759  0.00  0.00    +0.000 A 
ATOM     10  C   UNL     1       1.514   9.872  18.435  0.00  0.00    +0.000 A 
ATOM     11  O   UNL     1       2.264   9.823  17.470  0.00  0.00    +0.000 OA
ATOM     12  C   UNL     1       2.233  13.062  18.048  0.00  0.00    +0.000 C 
ATOM     13  C   UNL     1       2.467  14.507  18.500  0.00  0.00    +0.000 C 
ATOM     14  C   UNL     1       1.258  15.379  18.878  0.00  0.00    +0.000 C 
ATOM     15  C   UNL     1      -0.065  14.706  19.259  0.00  0.00    +0.000 C 
ATOM     16  H   UNL     1      -1.243   9.192  19.939  0.00  0.00    +0.000 HD
ENDROOT
BRANCH   1  17
ATOM     17  C   UNL     1       2.424   7.794  19.350  0.00  0.00    +0.000 C 
BRANCH  17  18
ATOM     18  C   UNL     1       1.977   6.326  19.503  0.00  0.00    +0.000 C 
BRANCH  18  19
ATOM     19  C   UNL     1       2.401   5.428  18.343  0.00  0.00    +0.000 C 
BRANCH  19  25
ATOM     20  C   UNL     1       4.810   6.547  16.660  0.00  0.00    +0.000 C 
ATOM     21  C   UNL     1       4.874   5.528  17.725  0.00  0.00    +0.000 A 
ATOM     22  C   UNL     1       5.964   4.874  18.259  0.00  0.00    +0.000 A 
ATOM     23  N   UNL     1       5.601   3.990  19.231  0.00  0.00    +0.000 NA
ATOM     24  C   UNL     1       4.285   4.091  19.305  0.00  0.00    +0.000 A 
ATOM     25  N   UNL     1       3.801   5.015  18.414  0.00  0.00    +0.000 N 
ENDBRANCH  19  25
ENDBRANCH  18  19
ENDBRANCH  17  18
ENDBRANCH   1  17
TORSDOF 4
ENDMDL
MODEL 9
REMARK VINA RESULT:      -6.7      5.418      9.005
REMARK  Name = 
REMARK  5 active torsions:
REMARK  status: ('A' for Active; 'I' for Inactive)
REMARK    1  A    between atoms: C_1  and  C_2
REMARK    2  A    between atoms: N_6  and  C_7
REMARK    3  A    between atoms: C_7  and  C_8
REMARK    4  A    between atoms: C_8  and  C_9
REMARK    5  A    between atoms: C_9  and  N_10
REMARK                            x       y       z     vdW  Elec       q    Type
REMARK                         _______ _______ _______ _____ _____    ______ ____
ROOT
ATOM      1  N   UNL     1       6.901   6.312  17.485  0.00  0.00    +0.000 N 
ATOM      2  C   UNL     1       7.330   5.396  18.453  0.00  0.00    +0.000 A 
ATOM      3  S   UNL     1       8.342   5.723  19.751  0.00  0.00    +0.000 S 
ATOM      4  N   UNL     1       6.684   4.157  18.402  0.00  0.00    +0.000 N 
ATOM      5  C   UNL     1       5.319   4.340  18.443  0.00  0.00    +0.000 A 
ATOM      6  S   UNL     1       4.350   3.219  19.220  0.00  0.00    +0.000 S 
ATOM      7  C   UNL     1       3.165   4.438  19.470  0.00  0.00    +0.000 A 
ATOM      8  C   UNL     1       3.470   5.619  18.811  0.00  0.00    +0.000 A 
ATOM      9  C   UNL     1       4.714   5.511  18.105  0.00  0.00    +0.000 A 
ATOM     10  C   UNL     1       5.492   6.482  17.338  0.00  0.00    +0.000 A 
ATOM     11  O   UNL     1       4.971   7.384  16.697  0.00  0.00    +0.000 OA
ATOM     12  C   UNL     1       2.668   6.862  18.987  0.00  0.00    +0.000 C 
ATOM     13  C   UNL     1       1.753   6.838  20.216  0.00  0.00    +0.000 C 
ATOM     14  C   UNL     1       1.265   5.485  20.761  0.00  0.00    +0.000 C 
ATOM     15  C   UNL     1       2.036   4.209  20.408  0.00  0.00    +0.000 C 
ATOM     16  H   UNL     1       6.923   3.615  17.577  0.00  0.00    +0.000 HD
ENDROOT
BRANCH   1  17
ATOM     17  C   UNL     1       7.714   7.471  17.078  0.00  0.00    +0.000 C 
BRANCH  17  18
ATOM     18  C   UNL     1       7.495   8.794  17.840  0.00  0.00    +0.000 C 
BRANCH  18  19
ATOM     19  C   UNL     1       8.779   9.407  18.393  0.00  0.00    +0.000 C 
BRANCH  19  25
ATOM     20  C   UNL     1      11.088  11.335  19.312  0.00  0.00    +0.000 C 
ATOM     21  C   UNL     1       9.881  11.704  18.547  0.00  0.00    +0.000 A 
ATOM     22  C   UNL     1       9.504  12.922  18.025  0.00  0.00    +0.000 A 
ATOM     23  N   UNL     1       8.303  12.850  17.384  0.00  0.00    +0.000 NA
ATOM     24  C   UNL     1       7.929  11.588  17.506  0.00  0.00    +0.000 A 
ATOM     25  N   UNL     1       8.859  10.854  18.199  0.00  0.00    +0.000 N 
ENDBRANCH  19  25
ENDBRANCH  18  19
ENDBRANCH  17  18
ENDBRANCH   1  17
TORSDOF 4
ENDMDL
