MODEL 1
REMARK VINA RESULT:      -7.8      0.000      0.000
REMARK  Name = 
REMARK  4 active torsions:
REMARK  status: ('A' for Active; 'I' for Inactive)
REMARK    1  A    between atoms: C_4  and  C_5
REMARK    2  A    between atoms: C_5  and  N_6
REMARK    3  A    between atoms: C_10  and  C_11
REMARK    4  A    between atoms: C_11  and  C_12
REMARK                            x       y       z     vdW  Elec       q    Type
REMARK                         _______ _______ _______ _____ _____    ______ ____
ROOT
ATOM      1  C   UNL     1       0.115  10.187  18.916  0.00  0.00    +0.000 C 
ATOM      2  C   UNL     1      -0.081   9.212  20.136  0.00  0.00    +0.000 C 
ATOM      3  C   UNL     1       1.212   8.559  20.618  0.00  0.00    +0.000 C 
ATOM      4  N   UNL     1       1.871   7.922  19.493  0.00  0.00    +0.000 N 
ATOM      5  C   UNL     1       2.407   6.664  19.621  0.00  0.00    +0.000 A 
ATOM      6  N   UNL     1       2.014   5.895  20.650  0.00  0.00    +0.000 NA
ATOM      7  C   UNL     1       2.468   4.630  20.708  0.00  0.00    +0.000 A 
ATOM      8  C   UNL     1       3.322   4.091  19.784  0.00  0.00    +0.000 A 
ATOM      9  C   UNL     1       3.696   4.946  18.781  0.00  0.00    +0.000 A 
ATOM     10  N   UNL     1       3.254   6.214  18.678  0.00  0.00    +0.000 NA
ATOM     11  C   UNL     1       2.191   8.757  18.355  0.00  0.00    +0.000 C 
ATOM     12  C   UNL     1       0.891   9.376  17.848  0.00  0.00    +0.000 C 
ENDROOT
BRANCH   1  13
ATOM     13  C   UNL     1      -1.328  10.541  18.443  0.00  0.00    +0.000 A 
ATOM     14  C   UNL     1      -2.143  11.482  19.104  0.00  0.00    +0.000 A 
ATOM     15  C   UNL     1      -3.410  11.817  18.615  0.00  0.00    +0.000 A 
ATOM     16  C   UNL     1      -3.892  11.226  17.453  0.00  0.00    +0.000 A 
ATOM     17  C   UNL     1      -3.116  10.288  16.783  0.00  0.00    +0.000 A 
ATOM     18  C   UNL     1      -1.854   9.945  17.275  0.00  0.00    +0.000 A 
ENDBRANCH   1  13
BRANCH   1  23
ATOM     19  N   UNL     1       0.989  11.982  20.696  0.00  0.00    +0.000 N 
ATOM     20  C   UNL     1       1.874  13.042  20.627  0.00  0.00    +0.000 A 
ATOM     21  C   UNL     1       2.202  13.169  19.308  0.00  0.00    +0.000 A 
ATOM     22  N   UNL     1       1.557  12.221  18.571  0.00  0.00    +0.000 NA
ATOM     23  C   UNL     1       0.844  11.471  19.408  0.00  0.00    +0.000 A 
BRANCH  19  24
ATOM     24  C   UNL     1       0.318  11.668  21.950  0.00  0.00    +0.000 C 
BRANCH  24  28
ATOM     25  C   UNL     1      -3.422  13.692  22.759  0.00  0.00    +0.000 A 
ATOM     26  C   UNL     1      -3.215  12.383  23.184  0.00  0.00    +0.000 A 
ATOM     27  C   UNL     1      -2.004  11.740  22.909  0.00  0.00    +0.000 A 
ATOM     28  C   UNL     1      -0.991  12.385  22.179  0.00  0.00    +0.000 A 
ATOM     29  C   UNL     1      -1.232  13.693  21.746  0.00  0.00    +0.000 A 
ATOM     30  C   UNL     1      -2.428  14.349  22.045  0.00  0.00    +0.000 A 
ENDBRANCH  24  28
ENDBRANCH  19  24
ENDBRANCH   1  23
TORSDOF 4
ENDMDL
MODEL 2
REMARK VINA RESULT:      -7.7      0.129      1.247
REMARK  Name = 
REMARK  4 active torsions:
REMARK  status: ('A' for Active; 'I' for Inactive)
REMARK    1  A    between atoms: C_4  and  C_5
REMARK    2  A    between atoms: C_5  and  N_6
REMARK    3  A    between atoms: C_10  and  C_11
REMARK    4  A    between atoms: C_11  and  C_12
REMARK                            x       y       z     vdW  Elec       q    Type
REMARK                         _______ _______ _______ _____ _____    ______ ____
ROOT
ATOM      1  C   UNL     1       0.136  10.223  18.857  0.00  0.00    +0.000 C 
ATOM      2  C   UNL     1      -0.106   9.261  20.079  0.00  0.00    +0.000 C 
ATOM      3  C   UNL     1       1.166   8.602  20.607  0.00  0.00    +0.000 C 
ATOM      4  N   UNL     1       1.854   7.949  19.508  0.00  0.00    +0.000 N 
ATOM      5  C   UNL     1       2.375   6.688  19.663  0.00  0.00    +0.000 A 
ATOM      6  N   UNL     1       1.944   5.932  20.687  0.00  0.00    +0.000 NA
ATOM      7  C   UNL     1       2.385   4.664  20.770  0.00  0.00    +0.000 A 
ATOM      8  C   UNL     1       3.263   4.109  19.877  0.00  0.00    +0.000 A 
ATOM      9  C   UNL     1       3.675   4.952  18.879  0.00  0.00    +0.000 A 
ATOM     10  N   UNL     1       3.247   6.222  18.751  0.00  0.00    +0.000 NA
ATOM     11  C   UNL     1       2.216   8.771  18.373  0.00  0.00    +0.000 C 
ATOM     12  C   UNL     1       0.938   9.396  17.821  0.00  0.00    +0.000 C 
ENDROOT
BRANCH   1  13
ATOM     13  C   UNL     1      -1.289  10.585  18.337  0.00  0.00    +0.000 A 
ATOM     14  C   UNL     1      -1.863   9.992  17.195  0.00  0.00    +0.000 A 
ATOM     15  C   UNL     1      -3.167  10.298  16.794  0.00  0.00    +0.000 A 
ATOM     16  C   UNL     1      -3.931  11.201  17.523  0.00  0.00    +0.000 A 
ATOM     17  C   UNL     1      -3.390  11.810  18.649  0.00  0.00    +0.000 A 
ATOM     18  C   UNL     1      -2.085  11.511  19.047  0.00  0.00    +0.000 A 
ENDBRANCH   1  13
BRANCH   1  23
ATOM     19  N   UNL     1       0.997  12.010  20.652  0.00  0.00    +0.000 N 
ATOM     20  C   UNL     1       1.882  13.072  20.593  0.00  0.00    +0.000 A 
ATOM     21  C   UNL     1       2.217  13.206  19.277  0.00  0.00    +0.000 A 
ATOM     22  N   UNL     1       1.577  12.261  18.531  0.00  0.00    +0.000 NA
ATOM     23  C   UNL     1       0.861  11.506  19.360  0.00  0.00    +0.000 A 
BRANCH  19  24
ATOM     24  C   UNL     1       0.320  11.690  21.900  0.00  0.00    +0.000 C 
BRANCH  24  28
ATOM     25  C   UNL     1      -3.418  13.812  22.419  0.00  0.00    +0.000 A 
ATOM     26  C   UNL     1      -2.340  14.415  21.779  0.00  0.00    +0.000 A 
ATOM     27  C   UNL     1      -1.136  13.720  21.625  0.00  0.00    +0.000 A 
ATOM     28  C   UNL     1      -0.982  12.420  22.135  0.00  0.00    +0.000 A 
ATOM     29  C   UNL     1      -2.073  11.844  22.793  0.00  0.00    +0.000 A 
ATOM     30  C   UNL     1      -3.286  12.523  22.921  0.00  0.00    +0.000 A 
ENDBRANCH  24  28
ENDBRANCH  19  24
ENDBRANCH   1  23
TORSDOF 4
ENDMDL
MODEL 3
REMARK VINA RESULT:      -7.5      2.987      5.513
REMARK  Name = 
REMARK  4 active torsions:
REMARK  status: ('A' for Active; 'I' for Inactive)
REMARK    1  A    between atoms: C_4  and  C_5
REMARK    2  A    between atoms: C_5  and  N_6
REMARK    3  A    between atoms: C_10  and  C_11
REMARK    4  A    between atoms: C_11  and  C_12
REMARK                            x       y       z     vdW  Elec       q    Type
REMARK                         _______ _______ _______ _____ _____    ______ ____
ROOT
ATOM      1  C   UNL     1      -0.710  11.898  19.697  0.00  0.00    +0.000 C 
ATOM      2  C   UNL     1       0.591  11.620  18.856  0.00  0.00    +0.000 C 
ATOM      3  C   UNL     1       1.845  12.284  19.421  0.00  0.00    +0.000 C 
ATOM      4  N   UNL     1       1.590  13.700  19.605  0.00  0.00    +0.000 N 
ATOM      5  C   UNL     1       2.525  14.632  19.225  0.00  0.00    +0.000 A 
ATOM      6  N   UNL     1       3.496  14.262  18.372  0.00  0.00    +0.000 NA
ATOM      7  C   UNL     1       4.345  15.206  17.928  0.00  0.00    +0.000 A 
ATOM      8  C   UNL     1       4.283  16.519  18.313  0.00  0.00    +0.000 A 
ATOM      9  C   UNL     1       3.283  16.809  19.202  0.00  0.00    +0.000 A 
ATOM     10  N   UNL     1       2.403  15.898  19.660  0.00  0.00    +0.000 NA
ATOM     11  C   UNL     1       0.473  14.067  20.449  0.00  0.00    +0.000 C 
ATOM     12  C   UNL     1      -0.786  13.437  19.860  0.00  0.00    +0.000 C 
ENDROOT
BRANCH   1  13
ATOM     13  C   UNL     1      -1.881  11.345  18.829  0.00  0.00    +0.000 A 
ATOM     14  C   UNL     1      -3.188  11.870  18.879  0.00  0.00    +0.000 A 
ATOM     15  C   UNL     1      -4.198  11.387  18.042  0.00  0.00    +0.000 A 
ATOM     16  C   UNL     1      -3.929  10.373  17.130  0.00  0.00    +0.000 A 
ATOM     17  C   UNL     1      -2.652   9.828  17.063  0.00  0.00    +0.000 A 
ATOM     18  C   UNL     1      -1.643  10.303  17.905  0.00  0.00    +0.000 A 
ENDBRANCH   1  13
BRANCH   1  23
ATOM     19  N   UNL     1      -1.144  11.416  22.292  0.00  0.00    +0.000 N 
ATOM     20  C   UNL     1      -0.951  10.313  23.104  0.00  0.00    +0.000 A 
ATOM     21  C   UNL     1      -0.286   9.399  22.338  0.00  0.00    +0.000 A 
ATOM     22  N   UNL     1      -0.074   9.899  21.088  0.00  0.00    +0.000 NA
ATOM     23  C   UNL     1      -0.623  11.110  21.037  0.00  0.00    +0.000 A 
BRANCH  19  24
ATOM     24  C   UNL     1      -1.696  12.645  22.846  0.00  0.00    +0.000 C 
BRANCH  24  28
ATOM     25  C   UNL     1      -5.985  12.809  23.411  0.00  0.00    +0.000 A 
ATOM     26  C   UNL     1      -5.135  12.560  24.484  0.00  0.00    +0.000 A 
ATOM     27  C   UNL     1      -3.752  12.503  24.285  0.00  0.00    +0.000 A 
ATOM     28  C   UNL     1      -3.198  12.664  23.004  0.00  0.00    +0.000 A 
ATOM     29  C   UNL     1      -4.075  12.892  21.939  0.00  0.00    +0.000 A 
ATOM     30  C   UNL     1      -5.454  12.981  22.139  0.00  0.00    +0.000 A 
ENDBRANCH  24  28
ENDBRANCH  19  24
ENDBRANCH   1  23
TORSDOF 4
ENDMDL
MODEL 4
REMARK VINA RESULT:      -7.5      0.662      1.097
REMARK  Name = 
REMARK  4 active torsions:
REMARK  status: ('A' for Active; 'I' for Inactive)
REMARK    1  A    between atoms: C_4  and  C_5
REMARK    2  A    between atoms: C_5  and  N_6
REMARK    3  A    between atoms: C_10  and  C_11
REMARK    4  A    between atoms: C_11  and  C_12
REMARK                            x       y       z     vdW  Elec       q    Type
REMARK                         _______ _______ _______ _____ _____    ______ ____
ROOT
ATOM      1  C   UNL     1      -0.227  10.551  18.891  0.00  0.00    +0.000 C 
ATOM      2  C   UNL     1      -0.201   9.519  20.079  0.00  0.00    +0.000 C 
ATOM      3  C   UNL     1       1.184   8.945  20.368  0.00  0.00    +0.000 C 
ATOM      4  N   UNL     1       1.739   8.402  19.142  0.00  0.00    +0.000 N 
ATOM      5  C   UNL     1       2.372   7.183  19.144  0.00  0.00    +0.000 A 
ATOM      6  N   UNL     1       2.164   6.349  20.177  0.00  0.00    +0.000 NA
ATOM      7  C   UNL     1       2.708   5.119  20.119  0.00  0.00    +0.000 A 
ATOM      8  C   UNL     1       3.474   4.680  19.073  0.00  0.00    +0.000 A 
ATOM      9  C   UNL     1       3.660   5.598  18.074  0.00  0.00    +0.000 A 
ATOM     10  N   UNL     1       3.122   6.833  18.085  0.00  0.00    +0.000 NA
ATOM     11  C   UNL     1       1.856   9.301  18.014  0.00  0.00    +0.000 C 
ATOM     12  C   UNL     1       0.463   9.841  17.699  0.00  0.00    +0.000 C 
ENDROOT
BRANCH   1  13
ATOM     13  C   UNL     1      -1.739  10.816  18.615  0.00  0.00    +0.000 A 
ATOM     14  C   UNL     1      -2.525   9.988  17.788  0.00  0.00    +0.000 A 
ATOM     15  C   UNL     1      -3.892  10.224  17.612  0.00  0.00    +0.000 A 
ATOM     16  C   UNL     1      -4.509  11.287  18.260  0.00  0.00    +0.000 A 
ATOM     17  C   UNL     1      -3.760  12.126  19.076  0.00  0.00    +0.000 A 
ATOM     18  C   UNL     1      -2.392  11.898  19.246  0.00  0.00    +0.000 A 
ENDBRANCH   1  13
BRANCH   1  23
ATOM     19  N   UNL     1       0.759  12.325  20.633  0.00  0.00    +0.000 N 
ATOM     20  C   UNL     1       1.544  13.457  20.502  0.00  0.00    +0.000 A 
ATOM     21  C   UNL     1       1.668  13.672  19.159  0.00  0.00    +0.000 A 
ATOM     22  N   UNL     1       0.995  12.710  18.466  0.00  0.00    +0.000 NA
ATOM     23  C   UNL     1       0.468  11.866  19.350  0.00  0.00    +0.000 A 
BRANCH  19  24
ATOM     24  C   UNL     1       0.302  11.900  21.948  0.00  0.00    +0.000 C 
BRANCH  24  28
ATOM     25  C   UNL     1      -3.381  13.625  23.431  0.00  0.00    +0.000 A 
ATOM     26  C   UNL     1      -3.187  12.247  23.440  0.00  0.00    +0.000 A 
ATOM     27  C   UNL     1      -1.994  11.704  22.951  0.00  0.00    +0.000 A 
ATOM     28  C   UNL     1      -0.989  12.528  22.418  0.00  0.00    +0.000 A 
ATOM     29  C   UNL     1      -1.218  13.907  22.401  0.00  0.00    +0.000 A 
ATOM     30  C   UNL     1      -2.394  14.455  22.916  0.00  0.00    +0.000 A 
ENDBRANCH  24  28
ENDBRANCH  19  24
ENDBRANCH   1  23
TORSDOF 4
ENDMDL
MODEL 5
REMARK VINA RESULT:      -7.2      1.596      3.822
REMARK  Name = 
REMARK  4 active torsions:
REMARK  status: ('A' for Active; 'I' for Inactive)
REMARK    1  A    between atoms: C_4  and  C_5
REMARK    2  A    between atoms: C_5  and  N_6
REMARK    3  A    between atoms: C_10  and  C_11
REMARK    4  A    between atoms: C_11  and  C_12
REMARK                            x       y       z     vdW  Elec       q    Type
REMARK                         _______ _______ _______ _____ _____    ______ ____
ROOT
ATOM      1  C   UNL     1       0.642  11.515  19.466  0.00  0.00    +0.000 C 
ATOM      2  C   UNL     1       1.466  11.052  18.208  0.00  0.00    +0.000 C 
ATOM      3  C   UNL     1       1.294   9.574  17.867  0.00  0.00    +0.000 C 
ATOM      4  N   UNL     1       1.580   8.778  19.047  0.00  0.00    +0.000 N 
ATOM      5  C   UNL     1       2.349   7.644  18.953  0.00  0.00    +0.000 A 
ATOM      6  N   UNL     1       3.119   7.474  17.865  0.00  0.00    +0.000 NA
ATOM      7  C   UNL     1       3.943   6.411  17.830  0.00  0.00    +0.000 A 
ATOM      8  C   UNL     1       4.026   5.486  18.836  0.00  0.00    +0.000 A 
ATOM      9  C   UNL     1       3.191   5.716  19.897  0.00  0.00    +0.000 A 
ATOM     10  N   UNL     1       2.361   6.774  19.978  0.00  0.00    +0.000 NA
ATOM     11  C   UNL     1       0.801   9.055  20.235  0.00  0.00    +0.000 C 
ATOM     12  C   UNL     1       1.008  10.523  20.599  0.00  0.00    +0.000 C 
ENDROOT
BRANCH   1  13
ATOM     13  C   UNL     1       1.145  12.959  19.772  0.00  0.00    +0.000 A 
ATOM     14  C   UNL     1       0.886  14.057  18.928  0.00  0.00    +0.000 A 
ATOM     15  C   UNL     1       1.303  15.348  19.266  0.00  0.00    +0.000 A 
ATOM     16  C   UNL     1       1.983  15.577  20.456  0.00  0.00    +0.000 A 
ATOM     17  C   UNL     1       2.261  14.513  21.306  0.00  0.00    +0.000 A 
ATOM     18  C   UNL     1       1.853  13.221  20.966  0.00  0.00    +0.000 A 
ENDBRANCH   1  13
BRANCH   1  23
ATOM     19  N   UNL     1      -1.973  11.918  19.861  0.00  0.00    +0.000 N 
ATOM     20  C   UNL     1      -3.072  11.944  19.023  0.00  0.00    +0.000 A 
ATOM     21  C   UNL     1      -2.616  11.546  17.798  0.00  0.00    +0.000 A 
ATOM     22  N   UNL     1      -1.280  11.288  17.856  0.00  0.00    +0.000 NA
ATOM     23  C   UNL     1      -0.869  11.545  19.096  0.00  0.00    +0.000 A 
BRANCH  19  24
ATOM     24  C   UNL     1      -2.137  12.144  21.291  0.00  0.00    +0.000 C 
BRANCH  24  28
ATOM     25  C   UNL     1      -1.049  16.096  22.682  0.00  0.00    +0.000 A 
ATOM     26  C   UNL     1      -1.664  15.921  21.446  0.00  0.00    +0.000 A 
ATOM     27  C   UNL     1      -2.004  14.637  21.007  0.00  0.00    +0.000 A 
ATOM     28  C   UNL     1      -1.706  13.505  21.783  0.00  0.00    +0.000 A 
ATOM     29  C   UNL     1      -1.068  13.706  23.012  0.00  0.00    +0.000 A 
ATOM     30  C   UNL     1      -0.756  14.989  23.467  0.00  0.00    +0.000 A 
ENDBRANCH  24  28
ENDBRANCH  19  24
ENDBRANCH   1  23
TORSDOF 4
ENDMDL
MODEL 6
REMARK VINA RESULT:      -7.2      3.130      5.723
REMARK  Name = 
REMARK  4 active torsions:
REMARK  status: ('A' for Active; 'I' for Inactive)
REMARK    1  A    between atoms: C_4  and  C_5
REMARK    2  A    between atoms: C_5  and  N_6
REMARK    3  A    between atoms: C_10  and  C_11
REMARK    4  A    between atoms: C_11  and  C_12
REMARK                            x       y       z     vdW  Elec       q    Type
REMARK                         _______ _______ _______ _____ _____    ______ ____
ROOT
ATOM      1  C   UNL     1      -3.291  13.030  22.388  0.00  0.00    +0.000 C 
ATOM      2  C   UNL     1      -2.639  11.876  23.237  0.00  0.00    +0.000 C 
ATOM      3  C   UNL     1      -1.148  11.681  22.972  0.00  0.00    +0.000 C 
ATOM      4  N   UNL     1      -0.937  11.514  21.546  0.00  0.00    +0.000 N 
ATOM      5  C   UNL     1      -0.090  10.539  21.077  0.00  0.00    +0.000 A 
ATOM      6  N   UNL     1       0.252   9.531  21.896  0.00  0.00    +0.000 NA
ATOM      7  C   UNL     1       0.998   8.531  21.395  0.00  0.00    +0.000 A 
ATOM      8  C   UNL     1       1.442   8.495  20.100  0.00  0.00    +0.000 A 
ATOM      9  C   UNL     1       1.073   9.570  19.338  0.00  0.00    +0.000 A 
ATOM     10  N   UNL     1       0.315  10.585  19.795  0.00  0.00    +0.000 NA
ATOM     11  C   UNL     1      -1.408  12.572  20.679  0.00  0.00    +0.000 C 
ATOM     12  C   UNL     1      -2.907  12.738  20.915  0.00  0.00    +0.000 C 
ENDROOT
BRANCH   1  13
ATOM     13  C   UNL     1      -4.826  12.894  22.628  0.00  0.00    +0.000 A 
ATOM     14  C   UNL     1      -5.442  13.212  23.855  0.00  0.00    +0.000 A 
ATOM     15  C   UNL     1      -6.829  13.134  24.014  0.00  0.00    +0.000 A 
ATOM     16  C   UNL     1      -7.636  12.742  22.952  0.00  0.00    +0.000 A 
ATOM     17  C   UNL     1      -7.057  12.414  21.731  0.00  0.00    +0.000 A 
ATOM     18  C   UNL     1      -5.671  12.483  21.573  0.00  0.00    +0.000 A 
ENDBRANCH   1  13
BRANCH   1  23
ATOM     19  N   UNL     1      -3.035  15.691  22.467  0.00  0.00    +0.000 N 
ATOM     20  C   UNL     1      -2.510  16.572  23.394  0.00  0.00    +0.000 A 
ATOM     21  C   UNL     1      -1.926  15.798  24.356  0.00  0.00    +0.000 A 
ATOM     22  N   UNL     1      -2.083  14.478  24.054  0.00  0.00    +0.000 NA
ATOM     23  C   UNL     1      -2.787  14.400  22.927  0.00  0.00    +0.000 A 
BRANCH  19  24
ATOM     24  C   UNL     1      -3.602  16.190  21.222  0.00  0.00    +0.000 C 
BRANCH  24  28
ATOM     25  C   UNL     1      -7.917  15.995  20.926  0.00  0.00    +0.000 A 
ATOM     26  C   UNL     1      -7.301  16.384  22.112  0.00  0.00    +0.000 A 
ATOM     27  C   UNL     1      -5.906  16.436  22.195  0.00  0.00    +0.000 A 
ATOM     28  C   UNL     1      -5.103  16.070  21.102  0.00  0.00    +0.000 A 
ATOM     29  C   UNL     1      -5.745  15.663  19.928  0.00  0.00    +0.000 A 
ATOM     30  C   UNL     1      -7.138  15.640  19.832  0.00  0.00    +0.000 A 
ENDBRANCH  24  28
ENDBRANCH  19  24
ENDBRANCH   1  23
TORSDOF 4
ENDMDL
MODEL 7
REMARK VINA RESULT:      -7.1      2.713      5.257
REMARK  Name = 
REMARK  4 active torsions:
REMARK  status: ('A' for Active; 'I' for Inactive)
REMARK    1  A    between atoms: C_4  and  C_5
REMARK    2  A    between atoms: C_5  and  N_6
REMARK    3  A    between atoms: C_10  and  C_11
REMARK    4  A    between atoms: C_11  and  C_12
REMARK                            x       y       z     vdW  Elec       q    Type
REMARK                         _______ _______ _______ _____ _____    ______ ____
ROOT
ATOM      1  C   UNL     1      -2.568  12.939  22.086  0.00  0.00    +0.000 C 
ATOM      2  C   UNL     1      -1.884  11.668  22.715  0.00  0.00    +0.000 C 
ATOM      3  C   UNL     1      -0.431  11.474  22.288  0.00  0.00    +0.000 C 
ATOM      4  N   UNL     1      -0.355  11.491  20.839  0.00  0.00    +0.000 N 
ATOM      5  C   UNL     1       0.411  10.567  20.171  0.00  0.00    +0.000 A 
ATOM      6  N   UNL     1       0.789   9.452  20.818  0.00  0.00    +0.000 NA
ATOM      7  C   UNL     1       1.451   8.509  20.124  0.00  0.00    +0.000 A 
ATOM      8  C   UNL     1       1.774   8.633  18.799  0.00  0.00    +0.000 A 
ATOM      9  C   UNL     1       1.377   9.808  18.219  0.00  0.00    +0.000 A 
ATOM     10  N   UNL     1       0.700  10.772  18.873  0.00  0.00    +0.000 NA
ATOM     11  C   UNL     1      -0.865  12.666  20.164  0.00  0.00    +0.000 C 
ATOM     12  C   UNL     1      -2.330  12.834  20.559  0.00  0.00    +0.000 C 
ENDROOT
BRANCH   1  13
ATOM     13  C   UNL     1      -4.079  12.809  22.451  0.00  0.00    +0.000 A 
ATOM     14  C   UNL     1      -4.564  12.931  23.768  0.00  0.00    +0.000 A 
ATOM     15  C   UNL     1      -5.932  12.868  24.047  0.00  0.00    +0.000 A 
ATOM     16  C   UNL     1      -6.851  12.686  23.020  0.00  0.00    +0.000 A 
ATOM     17  C   UNL     1      -6.403  12.554  21.711  0.00  0.00    +0.000 A 
ATOM     18  C   UNL     1      -5.035  12.608  21.431  0.00  0.00    +0.000 A 
ENDBRANCH   1  13
BRANCH   1  23
ATOM     19  N   UNL     1      -2.230  15.559  22.501  0.00  0.00    +0.000 N 
ATOM     20  C   UNL     1      -1.580  16.296  23.474  0.00  0.00    +0.000 A 
ATOM     21  C   UNL     1      -0.915  15.388  24.247  0.00  0.00    +0.000 A 
ATOM     22  N   UNL     1      -1.142  14.125  23.787  0.00  0.00    +0.000 NA
ATOM     23  C   UNL     1      -1.968  14.213  22.748  0.00  0.00    +0.000 A 
BRANCH  19  24
ATOM     24  C   UNL     1      -2.918  16.235  21.409  0.00  0.00    +0.000 C 
BRANCH  24  28
ATOM     25  C   UNL     1      -7.240  16.193  21.642  0.00  0.00    +0.000 A 
ATOM     26  C   UNL     1      -6.592  16.053  20.419  0.00  0.00    +0.000 A 
ATOM     27  C   UNL     1      -5.195  16.076  20.358  0.00  0.00    +0.000 A 
ATOM     28  C   UNL     1      -4.424  16.268  21.516  0.00  0.00    +0.000 A 
ATOM     29  C   UNL     1      -5.100  16.427  22.731  0.00  0.00    +0.000 A 
ATOM     30  C   UNL     1      -6.493  16.374  22.799  0.00  0.00    +0.000 A 
ENDBRANCH  24  28
ENDBRANCH  19  24
ENDBRANCH   1  23
TORSDOF 4
ENDMDL
MODEL 8
REMARK VINA RESULT:      -7.1      2.381      5.018
REMARK  Name = 
REMARK  4 active torsions:
REMARK  status: ('A' for Active; 'I' for Inactive)
REMARK    1  A    between atoms: C_4  and  C_5
REMARK    2  A    between atoms: C_5  and  N_6
REMARK    3  A    between atoms: C_10  and  C_11
REMARK    4  A    between atoms: C_11  and  C_12
REMARK                            x       y       z     vdW  Elec       q    Type
REMARK                         _______ _______ _______ _____ _____    ______ ____
ROOT
ATOM      1  C   UNL     1      -1.483  12.908  20.950  0.00  0.00    +0.000 C 
ATOM      2  C   UNL     1      -0.947  12.784  19.476  0.00  0.00    +0.000 C 
ATOM      3  C   UNL     1      -0.947  11.355  18.937  0.00  0.00    +0.000 C 
ATOM      4  N   UNL     1      -0.236  10.497  19.866  0.00  0.00    +0.000 N 
ATOM      5  C   UNL     1       0.664   9.566  19.406  0.00  0.00    +0.000 A 
ATOM      6  N   UNL     1       1.143   9.694  18.157  0.00  0.00    +0.000 NA
ATOM      7  C   UNL     1       2.099   8.837  17.753  0.00  0.00    +0.000 A 
ATOM      8  C   UNL     1       2.595   7.833  18.540  0.00  0.00    +0.000 A 
ATOM      9  C   UNL     1       2.036   7.753  19.788  0.00  0.00    +0.000 A 
ATOM     10  N   UNL     1       1.089   8.599  20.238  0.00  0.00    +0.000 NA
ATOM     11  C   UNL     1      -0.715  10.458  21.231  0.00  0.00    +0.000 C 
ATOM     12  C   UNL     1      -0.674  11.881  21.782  0.00  0.00    +0.000 C 
ENDROOT
BRANCH   1  13
ATOM     13  C   UNL     1      -1.171  14.376  21.374  0.00  0.00    +0.000 A 
ATOM     14  C   UNL     1      -2.002  15.464  21.039  0.00  0.00    +0.000 A 
ATOM     15  C   UNL     1      -1.720  16.758  21.488  0.00  0.00    +0.000 A 
ATOM     16  C   UNL     1      -0.606  16.998  22.284  0.00  0.00    +0.000 A 
ATOM     17  C   UNL     1       0.237  15.947  22.623  0.00  0.00    +0.000 A 
ATOM     18  C   UNL     1      -0.038  14.655  22.169  0.00  0.00    +0.000 A 
ENDBRANCH   1  13
BRANCH   1  23
ATOM     19  N   UNL     1      -3.937  12.717  21.998  0.00  0.00    +0.000 N 
ATOM     20  C   UNL     1      -5.203  12.613  21.452  0.00  0.00    +0.000 A 
ATOM     21  C   UNL     1      -5.018  12.464  20.107  0.00  0.00    +0.000 A 
ATOM     22  N   UNL     1      -3.688  12.481  19.812  0.00  0.00    +0.000 NA
ATOM     23  C   UNL     1      -3.021  12.670  20.949  0.00  0.00    +0.000 A 
BRANCH  19  24
ATOM     24  C   UNL     1      -3.763  12.735  23.444  0.00  0.00    +0.000 C 
BRANCH  24  28
ATOM     25  C   UNL     1      -3.156  16.670  25.142  0.00  0.00    +0.000 A 
ATOM     26  C   UNL     1      -2.249  15.643  25.384  0.00  0.00    +0.000 A 
ATOM     27  C   UNL     1      -2.462  14.375  24.835  0.00  0.00    +0.000 A 
ATOM     28  C   UNL     1      -3.601  14.105  24.058  0.00  0.00    +0.000 A 
ATOM     29  C   UNL     1      -4.508  15.149  23.847  0.00  0.00    +0.000 A 
ATOM     30  C   UNL     1      -4.283  16.424  24.368  0.00  0.00    +0.000 A 
ENDBRANCH  24  28
ENDBRANCH  19  24
ENDBRANCH   1  23
TORSDOF 4
ENDMDL
MODEL 9
REMARK VINA RESULT:      -7.1      7.668     11.867
REMARK  Name = 
REMARK  4 active torsions:
REMARK  status: ('A' for Active; 'I' for Inactive)
REMARK    1  A    between atoms: C_4  and  C_5
REMARK    2  A    between atoms: C_5  and  N_6
REMARK    3  A    between atoms: C_10  and  C_11
REMARK    4  A    between atoms: C_11  and  C_12
REMARK                            x       y       z     vdW  Elec       q    Type
REMARK                         _______ _______ _______ _____ _____    ______ ____
ROOT
ATOM      1  C   UNL     1       8.937  16.176  19.872  0.00  0.00    +0.000 C 
ATOM      2  C   UNL     1       8.092  14.850  19.947  0.00  0.00    +0.000 C 
ATOM      3  C   UNL     1       7.083  14.696  18.811  0.00  0.00    +0.000 C 
ATOM      4  N   UNL     1       6.253  15.884  18.749  0.00  0.00    +0.000 N 
ATOM      5  C   UNL     1       4.894  15.777  18.583  0.00  0.00    +0.000 A 
ATOM      6  N   UNL     1       4.303  14.598  18.837  0.00  0.00    +0.000 NA
ATOM      7  C   UNL     1       2.961  14.531  18.769  0.00  0.00    +0.000 A 
ATOM      8  C   UNL     1       2.168  15.598  18.439  0.00  0.00    +0.000 A 
ATOM      9  C   UNL     1       2.847  16.756  18.170  0.00  0.00    +0.000 A 
ATOM     10  N   UNL     1       4.187  16.869  18.240  0.00  0.00    +0.000 NA
ATOM     11  C   UNL     1       6.927  17.154  18.576  0.00  0.00    +0.000 C 
ATOM     12  C   UNL     1       7.906  17.326  19.735  0.00  0.00    +0.000 C 
ENDROOT
BRANCH   1  13
ATOM     13  C   UNL     1       9.708  16.244  21.226  0.00  0.00    +0.000 A 
ATOM     14  C   UNL     1      10.857  17.037  21.415  0.00  0.00    +0.000 A 
ATOM     15  C   UNL     1      11.487  17.118  22.661  0.00  0.00    +0.000 A 
ATOM     16  C   UNL     1      10.984  16.414  23.749  0.00  0.00    +0.000 A 
ATOM     17  C   UNL     1       9.857  15.615  23.591  0.00  0.00    +0.000 A 
ATOM     18  C   UNL     1       9.231  15.526  22.345  0.00  0.00    +0.000 A 
ENDBRANCH   1  13
BRANCH   1  23
ATOM     19  N   UNL     1      10.919  15.108  18.429  0.00  0.00    +0.000 N 
ATOM     20  C   UNL     1      11.422  15.358  17.165  0.00  0.00    +0.000 A 
ATOM     21  C   UNL     1      10.776  16.476  16.721  0.00  0.00    +0.000 A 
ATOM     22  N   UNL     1       9.892  16.911  17.662  0.00  0.00    +0.000 NA
ATOM     23  C   UNL     1       9.944  16.068  18.690  0.00  0.00    +0.000 A 
BRANCH  19  24
ATOM     24  C   UNL     1      11.507  14.064  19.257  0.00  0.00    +0.000 C 
BRANCH  24  28
ATOM     25  C   UNL     1       9.250  10.373  19.416  0.00  0.00    +0.000 A 
ATOM     26  C   UNL     1       9.747  10.954  20.579  0.00  0.00    +0.000 A 
ATOM     27  C   UNL     1      10.480  12.143  20.512  0.00  0.00    +0.000 A 
ATOM     28  C   UNL     1      10.754  12.755  19.277  0.00  0.00    +0.000 A 
ATOM     29  C   UNL     1      10.262  12.139  18.121  0.00  0.00    +0.000 A 
ATOM     30  C   UNL     1       9.503  10.969  18.188  0.00  0.00    +0.000 A 
ENDBRANCH  24  28
ENDBRANCH  19  24
ENDBRANCH   1  23
TORSDOF 4
ENDMDL
