MODEL 1
REMARK VINA RESULT:      -7.7      0.000      0.000
REMARK  Name = 
REMARK  8 active torsions:
REMARK  status: ('A' for Active; 'I' for Inactive)
REMARK    1  A    between atoms: C_1  and  O_2
REMARK    2  A    between atoms: O_2  and  C_3
REMARK    3  A    between atoms: C_9  and  C_10
REMARK    4  A    between atoms: C_10  and  N_11
REMARK    5  A    between atoms: C_19  and  C_20
REMARK    6  A    between atoms: C_25  and  C_26
REMARK    7  A    between atoms: C_26  and  C_27
REMARK    8  A    between atoms: C_27  and  O_29
REMARK                            x       y       z     vdW  Elec       q    Type
REMARK                         _______ _______ _______ _____ _____    ______ ____
ROOT
ATOM      1  N   UNL     1      -0.417  12.050  20.254  0.00  0.00    +0.000 N 
ATOM      2  C   UNL     1      -1.531  12.643  20.854  0.00  0.00    +0.000 C 
ATOM      3  O   UNL     1      -2.085  13.648  20.411  0.00  0.00    +0.000 OA
ATOM      4  O   UNL     1      -2.055  12.041  21.957  0.00  0.00    +0.000 OA
ATOM      5  C   UNL     1      -1.228  11.215  22.774  0.00  0.00    +0.000 C 
ATOM      6  C   UNL     1      -0.328  10.346  21.965  0.00  0.00    +0.000 A 
ATOM      7  C   UNL     1       0.160   9.135  22.484  0.00  0.00    +0.000 A 
ATOM      8  C   UNL     1       0.977   8.314  21.706  0.00  0.00    +0.000 A 
ATOM      9  C   UNL     1       1.324   8.723  20.418  0.00  0.00    +0.000 A 
ATOM     10  C   UNL     1       0.913   9.982  19.944  0.00  0.00    +0.000 A 
ATOM     11  C   UNL     1       0.073  10.797  20.708  0.00  0.00    +0.000 A 
ENDROOT
BRANCH   9  12
ATOM     12  C   UNL     1       2.128   7.879  19.498  0.00  0.00    +0.000 C 
ATOM     13  O   UNL     1       2.281   8.287  18.356  0.00  0.00    +0.000 OA
ATOM     14  N   UNL     1       2.536   6.655  20.001  0.00  0.00    +0.000 N 
ATOM     15  C   UNL     1       3.189   5.769  19.185  0.00  0.00    +0.000 A 
ATOM     16  N   UNL     1       3.769   5.998  18.036  0.00  0.00    +0.000 NA
ATOM     17  C   UNL     1       4.300   4.828  17.515  0.00  0.00    +0.000 A 
ATOM     18  C   UNL     1       4.028   3.703  18.277  0.00  0.00    +0.000 A 
ATOM     19  S   UNL     1       3.236   4.158  19.737  0.00  0.00    +0.000 S 
ATOM     20  H   UNL     1       2.213   6.311  20.889  0.00  0.00    +0.000 HD
BRANCH  17  21
ATOM     21  C   UNL     1       5.023   4.935  16.212  0.00  0.00    +0.000 C 
BRANCH  21  22
ATOM     22  C   UNL     1       6.358   5.652  16.269  0.00  0.00    +0.000 C 
ATOM     23  O   UNL     1       7.458   5.140  16.258  0.00  0.00    +0.000 OA
BRANCH  22  24
ATOM     24  O   UNL     1       6.209   7.001  16.326  0.00  0.00    +0.000 OA
ATOM     25  H   UNL     1       6.766   7.445  16.991  0.00  0.00    +0.000 HD
ENDBRANCH  22  24
ENDBRANCH  21  22
ENDBRANCH  17  21
ENDBRANCH   9  12
BRANCH   1  26
ATOM     26  C   UNL     1       0.254  12.769  19.153  0.00  0.00    +0.000 C 
BRANCH  26  33
ATOM     27  C   UNL     1       0.998  15.242  19.162  0.00  0.00    +0.000 A 
ATOM     28  C   UNL     1       1.924  16.221  19.563  0.00  0.00    +0.000 A 
ATOM     29  C   UNL     1       3.056  15.883  20.299  0.00  0.00    +0.000 A 
ATOM     30  C   UNL     1       3.268  14.564  20.653  0.00  0.00    +0.000 A 
ATOM     31 CL   UNL     1       4.670  14.135  21.553  0.00  0.00    +0.000 Cl
ATOM     32  C   UNL     1       2.351  13.584  20.291  0.00  0.00    +0.000 A 
ATOM     33  C   UNL     1       1.187  13.899  19.559  0.00  0.00    +0.000 A 
BRANCH  27  35
ATOM     34  C   UNL     1      -0.655  16.851  18.610  0.00  0.00    +0.000 C 
ATOM     35  O   UNL     1      -0.106  15.546  18.404  0.00  0.00    +0.000 OA
ENDBRANCH  27  35
ENDBRANCH  26  33
ENDBRANCH   1  26
TORSDOF 7
ENDMDL
MODEL 2
REMARK VINA RESULT:      -7.7      1.824      2.321
REMARK  Name = 
REMARK  8 active torsions:
REMARK  status: ('A' for Active; 'I' for Inactive)
REMARK    1  A    between atoms: C_1  and  O_2
REMARK    2  A    between atoms: O_2  and  C_3
REMARK    3  A    between atoms: C_9  and  C_10
REMARK    4  A    between atoms: C_10  and  N_11
REMARK    5  A    between atoms: C_19  and  C_20
REMARK    6  A    between atoms: C_25  and  C_26
REMARK    7  A    between atoms: C_26  and  C_27
REMARK    8  A    between atoms: C_27  and  O_29
REMARK                            x       y       z     vdW  Elec       q    Type
REMARK                         _______ _______ _______ _____ _____    ______ ____
ROOT
ATOM      1  N   UNL     1      -1.371  12.125  20.356  0.00  0.00    +0.000 N 
ATOM      2  C   UNL     1      -2.463  12.753  20.958  0.00  0.00    +0.000 C 
ATOM      3  O   UNL     1      -3.185  13.563  20.378  0.00  0.00    +0.000 OA
ATOM      4  O   UNL     1      -2.770  12.407  22.239  0.00  0.00    +0.000 OA
ATOM      5  C   UNL     1      -1.755  11.887  23.095  0.00  0.00    +0.000 C 
ATOM      6  C   UNL     1      -0.866  10.921  22.389  0.00  0.00    +0.000 A 
ATOM      7  C   UNL     1      -0.175   9.926  23.102  0.00  0.00    +0.000 A 
ATOM      8  C   UNL     1       0.630   9.008  22.428  0.00  0.00    +0.000 A 
ATOM      9  C   UNL     1       0.762   9.107  21.042  0.00  0.00    +0.000 A 
ATOM     10  C   UNL     1       0.147  10.166  20.350  0.00  0.00    +0.000 A 
ATOM     11  C   UNL     1      -0.682  11.073  21.015  0.00  0.00    +0.000 A 
ENDROOT
BRANCH   9  12
ATOM     12  C   UNL     1       1.539   8.130  20.238  0.00  0.00    +0.000 C 
ATOM     13  O   UNL     1       1.838   8.455  19.098  0.00  0.00    +0.000 OA
ATOM     14  N   UNL     1       1.756   6.897  20.830  0.00  0.00    +0.000 N 
ATOM     15  C   UNL     1       2.371   5.900  20.117  0.00  0.00    +0.000 A 
ATOM     16  N   UNL     1       3.071   6.000  19.019  0.00  0.00    +0.000 NA
ATOM     17  C   UNL     1       3.506   4.751  18.601  0.00  0.00    +0.000 A 
ATOM     18  C   UNL     1       3.039   3.707  19.383  0.00  0.00    +0.000 A 
ATOM     19  S   UNL     1       2.181   4.327  20.742  0.00  0.00    +0.000 S 
ATOM     20  H   UNL     1       1.319   6.639  21.698  0.00  0.00    +0.000 HD
BRANCH  17  21
ATOM     21  C   UNL     1       4.347   4.707  17.367  0.00  0.00    +0.000 C 
BRANCH  21  22
ATOM     22  C   UNL     1       5.838   4.564  17.604  0.00  0.00    +0.000 C 
ATOM     23  O   UNL     1       6.729   4.954  16.880  0.00  0.00    +0.000 OA
BRANCH  22  24
ATOM     24  O   UNL     1       6.108   3.933  18.777  0.00  0.00    +0.000 OA
ATOM     25  H   UNL     1       6.494   3.043  18.681  0.00  0.00    +0.000 HD
ENDBRANCH  22  24
ENDBRANCH  21  22
ENDBRANCH  17  21
ENDBRANCH   9  12
BRANCH   1  26
ATOM     26  C   UNL     1      -0.933  12.597  19.027  0.00  0.00    +0.000 C 
BRANCH  26  33
ATOM     27  C   UNL     1       1.413  13.672  19.119  0.00  0.00    +0.000 A 
ATOM     28  C   UNL     1       2.209  14.831  19.125  0.00  0.00    +0.000 A 
ATOM     29  C   UNL     1       1.635  16.099  19.089  0.00  0.00    +0.000 A 
ATOM     30  C   UNL     1       0.260  16.221  19.032  0.00  0.00    +0.000 A 
ATOM     31 CL   UNL     1      -0.459  17.784  18.997  0.00  0.00    +0.000 Cl
ATOM     32  C   UNL     1      -0.545  15.088  18.996  0.00  0.00    +0.000 A 
ATOM     33  C   UNL     1       0.009  13.791  19.016  0.00  0.00    +0.000 A 
BRANCH  27  35
ATOM     34  C   UNL     1       2.549  11.926  17.986  0.00  0.00    +0.000 C 
ATOM     35  O   UNL     1       1.955  12.412  19.192  0.00  0.00    +0.000 OA
ENDBRANCH  27  35
ENDBRANCH  26  33
ENDBRANCH   1  26
TORSDOF 7
ENDMDL
MODEL 3
REMARK VINA RESULT:      -7.6      1.286      1.362
REMARK  Name = 
REMARK  8 active torsions:
REMARK  status: ('A' for Active; 'I' for Inactive)
REMARK    1  A    between atoms: C_1  and  O_2
REMARK    2  A    between atoms: O_2  and  C_3
REMARK    3  A    between atoms: C_9  and  C_10
REMARK    4  A    between atoms: C_10  and  N_11
REMARK    5  A    between atoms: C_19  and  C_20
REMARK    6  A    between atoms: C_25  and  C_26
REMARK    7  A    between atoms: C_26  and  C_27
REMARK    8  A    between atoms: C_27  and  O_29
REMARK                            x       y       z     vdW  Elec       q    Type
REMARK                         _______ _______ _______ _____ _____    ______ ____
ROOT
ATOM      1  N   UNL     1      -1.343  12.031  20.361  0.00  0.00    +0.000 N 
ATOM      2  C   UNL     1      -2.435  12.562  21.052  0.00  0.00    +0.000 C 
ATOM      3  O   UNL     1      -3.223  13.369  20.559  0.00  0.00    +0.000 OA
ATOM      4  O   UNL     1      -2.663  12.119  22.319  0.00  0.00    +0.000 OA
ATOM      5  C   UNL     1      -1.583  11.599  23.093  0.00  0.00    +0.000 C 
ATOM      6  C   UNL     1      -0.683  10.729  22.285  0.00  0.00    +0.000 A 
ATOM      7  C   UNL     1       0.089   9.727  22.899  0.00  0.00    +0.000 A 
ATOM      8  C   UNL     1       0.905   8.897  22.131  0.00  0.00    +0.000 A 
ATOM      9  C   UNL     1       0.966   9.091  20.750  0.00  0.00    +0.000 A 
ATOM     10  C   UNL     1       0.267  10.159  20.158  0.00  0.00    +0.000 A 
ATOM     11  C   UNL     1      -0.573  10.977  20.918  0.00  0.00    +0.000 A 
ENDROOT
BRANCH   9  12
ATOM     12  C   UNL     1       1.751   8.209  19.850  0.00  0.00    +0.000 C 
ATOM     13  O   UNL     1       1.907   8.584  18.697  0.00  0.00    +0.000 OA
ATOM     14  N   UNL     1       2.139   6.992  20.383  0.00  0.00    +0.000 N 
ATOM     15  C   UNL     1       2.773   6.073  19.588  0.00  0.00    +0.000 A 
ATOM     16  N   UNL     1       3.352   6.261  18.432  0.00  0.00    +0.000 NA
ATOM     17  C   UNL     1       3.861   5.068  17.941  0.00  0.00    +0.000 A 
ATOM     18  C   UNL     1       3.571   3.969  18.733  0.00  0.00    +0.000 A 
ATOM     19  S   UNL     1       2.793   4.476  20.183  0.00  0.00    +0.000 S 
ATOM     20  H   UNL     1       1.812   6.676  21.281  0.00  0.00    +0.000 HD
BRANCH  17  21
ATOM     21  C   UNL     1       4.580   5.129  16.633  0.00  0.00    +0.000 C 
BRANCH  21  22
ATOM     22  C   UNL     1       5.208   6.468  16.301  0.00  0.00    +0.000 C 
ATOM     23  O   UNL     1       5.082   7.094  15.269  0.00  0.00    +0.000 OA
BRANCH  22  24
ATOM     24  O   UNL     1       5.964   6.942  17.325  0.00  0.00    +0.000 OA
ATOM     25  H   UNL     1       6.865   6.572  17.373  0.00  0.00    +0.000 HD
ENDBRANCH  22  24
ENDBRANCH  21  22
ENDBRANCH  17  21
ENDBRANCH   9  12
BRANCH   1  26
ATOM     26  C   UNL     1      -0.993  12.610  19.048  0.00  0.00    +0.000 C 
BRANCH  26  33
ATOM     27  C   UNL     1      -0.133  15.028  19.339  0.00  0.00    +0.000 A 
ATOM     28  C   UNL     1       0.935  15.941  19.293  0.00  0.00    +0.000 A 
ATOM     29  C   UNL     1       2.212  15.537  18.913  0.00  0.00    +0.000 A 
ATOM     30  C   UNL     1       2.438  14.214  18.588  0.00  0.00    +0.000 A 
ATOM     31 CL   UNL     1       4.011  13.708  18.107  0.00  0.00    +0.000 Cl
ATOM     32  C   UNL     1       1.403  13.288  18.653  0.00  0.00    +0.000 A 
ATOM     33  C   UNL     1       0.102  13.665  19.050  0.00  0.00    +0.000 A 
BRANCH  27  35
ATOM     34  C   UNL     1      -1.509  16.603  20.457  0.00  0.00    +0.000 C 
ATOM     35  O   UNL     1      -1.409  15.410  19.674  0.00  0.00    +0.000 OA
ENDBRANCH  27  35
ENDBRANCH  26  33
ENDBRANCH   1  26
TORSDOF 7
ENDMDL
MODEL 4
REMARK VINA RESULT:      -7.5      3.356      4.998
REMARK  Name = 
REMARK  8 active torsions:
REMARK  status: ('A' for Active; 'I' for Inactive)
REMARK    1  A    between atoms: C_1  and  O_2
REMARK    2  A    between atoms: O_2  and  C_3
REMARK    3  A    between atoms: C_9  and  C_10
REMARK    4  A    between atoms: C_10  and  N_11
REMARK    5  A    between atoms: C_19  and  C_20
REMARK    6  A    between atoms: C_25  and  C_26
REMARK    7  A    between atoms: C_26  and  C_27
REMARK    8  A    between atoms: C_27  and  O_29
REMARK                            x       y       z     vdW  Elec       q    Type
REMARK                         _______ _______ _______ _____ _____    ______ ____
ROOT
ATOM      1  N   UNL     1      -0.954  12.468  19.755  0.00  0.00    +0.000 N 
ATOM      2  C   UNL     1      -1.097  13.745  20.304  0.00  0.00    +0.000 C 
ATOM      3  O   UNL     1      -2.055  14.082  20.999  0.00  0.00    +0.000 OA
ATOM      4  O   UNL     1      -0.094  14.642  20.099  0.00  0.00    +0.000 OA
ATOM      5  C   UNL     1       0.757  14.505  18.962  0.00  0.00    +0.000 C 
ATOM      6  C   UNL     1       1.136  13.085  18.713  0.00  0.00    +0.000 A 
ATOM      7  C   UNL     1       2.323  12.766  18.031  0.00  0.00    +0.000 A 
ATOM      8  C   UNL     1       2.684  11.434  17.830  0.00  0.00    +0.000 A 
ATOM      9  C   UNL     1       1.838  10.424  18.290  0.00  0.00    +0.000 A 
ATOM     10  C   UNL     1       0.606  10.752  18.883  0.00  0.00    +0.000 A 
ATOM     11  C   UNL     1       0.251  12.084  19.111  0.00  0.00    +0.000 A 
ENDROOT
BRANCH   9  12
ATOM     12  C   UNL     1       2.179   8.982  18.183  0.00  0.00    +0.000 C 
ATOM     13  O   UNL     1       2.420   8.546  17.067  0.00  0.00    +0.000 OA
ATOM     14  N   UNL     1       2.082   8.249  19.354  0.00  0.00    +0.000 N 
ATOM     15  C   UNL     1       2.274   6.893  19.324  0.00  0.00    +0.000 A 
ATOM     16  N   UNL     1       2.833   6.172  18.388  0.00  0.00    +0.000 NA
ATOM     17  C   UNL     1       2.815   4.828  18.731  0.00  0.00    +0.000 A 
ATOM     18  C   UNL     1       2.152   4.563  19.918  0.00  0.00    +0.000 A 
ATOM     19  S   UNL     1       1.695   6.039  20.680  0.00  0.00    +0.000 S 
ATOM     20  H   UNL     1       1.697   8.641  20.197  0.00  0.00    +0.000 HD
BRANCH  17  21
ATOM     21  C   UNL     1       3.446   3.877  17.767  0.00  0.00    +0.000 C 
BRANCH  21  22
ATOM     22  C   UNL     1       4.014   2.613  18.382  0.00  0.00    +0.000 C 
ATOM     23  O   UNL     1       3.592   1.484  18.241  0.00  0.00    +0.000 OA
BRANCH  22  24
ATOM     24  O   UNL     1       5.110   2.867  19.143  0.00  0.00    +0.000 OA
ATOM     25  H   UNL     1       5.567   3.702  18.934  0.00  0.00    +0.000 HD
ENDBRANCH  22  24
ENDBRANCH  21  22
ENDBRANCH  17  21
ENDBRANCH   9  12
BRANCH   1  26
ATOM     26  C   UNL     1      -2.096  11.536  19.839  0.00  0.00    +0.000 C 
BRANCH  26  33
ATOM     27  C   UNL     1      -4.430  12.022  18.846  0.00  0.00    +0.000 A 
ATOM     28  C   UNL     1      -5.293  12.019  17.737  0.00  0.00    +0.000 A 
ATOM     29  C   UNL     1      -4.871  11.544  16.498  0.00  0.00    +0.000 A 
ATOM     30  C   UNL     1      -3.577  11.080  16.352  0.00  0.00    +0.000 A 
ATOM     31 CL   UNL     1      -3.050  10.481  14.828  0.00  0.00    +0.000 Cl
ATOM     32  C   UNL     1      -2.699  11.101  17.430  0.00  0.00    +0.000 A 
ATOM     33  C   UNL     1      -3.094  11.591  18.692  0.00  0.00    +0.000 A 
BRANCH  27  35
ATOM     34  C   UNL     1      -6.223  12.266  20.380  0.00  0.00    +0.000 C 
ATOM     35  O   UNL     1      -4.836  12.451  20.087  0.00  0.00    +0.000 OA
ENDBRANCH  27  35
ENDBRANCH  26  33
ENDBRANCH   1  26
TORSDOF 7
ENDMDL
MODEL 5
REMARK VINA RESULT:      -7.5      3.455      5.297
REMARK  Name = 
REMARK  8 active torsions:
REMARK  status: ('A' for Active; 'I' for Inactive)
REMARK    1  A    between atoms: C_1  and  O_2
REMARK    2  A    between atoms: O_2  and  C_3
REMARK    3  A    between atoms: C_9  and  C_10
REMARK    4  A    between atoms: C_10  and  N_11
REMARK    5  A    between atoms: C_19  and  C_20
REMARK    6  A    between atoms: C_25  and  C_26
REMARK    7  A    between atoms: C_26  and  C_27
REMARK    8  A    between atoms: C_27  and  O_29
REMARK                            x       y       z     vdW  Elec       q    Type
REMARK                         _______ _______ _______ _____ _____    ______ ____
ROOT
ATOM      1  N   UNL     1      -1.000  12.632  19.749  0.00  0.00    +0.000 N 
ATOM      2  C   UNL     1      -1.054  13.999  20.035  0.00  0.00    +0.000 C 
ATOM      3  O   UNL     1      -1.983  14.529  20.642  0.00  0.00    +0.000 OA
ATOM      4  O   UNL     1       0.006  14.769  19.665  0.00  0.00    +0.000 OA
ATOM      5  C   UNL     1       0.840  14.354  18.585  0.00  0.00    +0.000 C 
ATOM      6  C   UNL     1       1.121  12.891  18.622  0.00  0.00    +0.000 A 
ATOM      7  C   UNL     1       2.281  12.366  18.026  0.00  0.00    +0.000 A 
ATOM      8  C   UNL     1       2.550  10.999  18.093  0.00  0.00    +0.000 A 
ATOM      9  C   UNL     1       1.641  10.158  18.736  0.00  0.00    +0.000 A 
ATOM     10  C   UNL     1       0.436  10.678  19.242  0.00  0.00    +0.000 A 
ATOM     11  C   UNL     1       0.173  12.049  19.202  0.00  0.00    +0.000 A 
ENDROOT
BRANCH   9  12
ATOM     12  C   UNL     1       1.883   8.704  18.916  0.00  0.00    +0.000 C 
ATOM     13  O   UNL     1       1.441   8.185  19.931  0.00  0.00    +0.000 OA
ATOM     14  N   UNL     1       2.685   8.101  17.961  0.00  0.00    +0.000 N 
ATOM     15  C   UNL     1       3.047   6.787  18.109  0.00  0.00    +0.000 A 
ATOM     16  N   UNL     1       2.517   5.881  18.887  0.00  0.00    +0.000 NA
ATOM     17  C   UNL     1       3.188   4.674  18.759  0.00  0.00    +0.000 A 
ATOM     18  C   UNL     1       4.288   4.733  17.918  0.00  0.00    +0.000 A 
ATOM     19  S   UNL     1       4.371   6.280  17.164  0.00  0.00    +0.000 S 
ATOM     20  H   UNL     1       3.165   8.634  17.256  0.00  0.00    +0.000 HD
BRANCH  17  21
ATOM     21  C   UNL     1       2.677   3.528  19.570  0.00  0.00    +0.000 C 
BRANCH  21  22
ATOM     22  C   UNL     1       1.191   3.259  19.445  0.00  0.00    +0.000 C 
ATOM     23  O   UNL     1       0.653   2.495  18.671  0.00  0.00    +0.000 OA
BRANCH  22  24
ATOM     24  O   UNL     1       0.467   3.983  20.338  0.00  0.00    +0.000 OA
ATOM     25  H   UNL     1       0.758   3.896  21.265  0.00  0.00    +0.000 HD
ENDBRANCH  22  24
ENDBRANCH  21  22
ENDBRANCH  17  21
ENDBRANCH   9  12
BRANCH   1  26
ATOM     26  C   UNL     1      -2.202  11.813  20.004  0.00  0.00    +0.000 C 
BRANCH  26  33
ATOM     27  C   UNL     1      -4.599  12.219  19.134  0.00  0.00    +0.000 A 
ATOM     28  C   UNL     1      -5.522  12.169  18.075  0.00  0.00    +0.000 A 
ATOM     29  C   UNL     1      -5.156  11.677  16.824  0.00  0.00    +0.000 A 
ATOM     30  C   UNL     1      -3.862  11.243  16.617  0.00  0.00    +0.000 A 
ATOM     31 CL   UNL     1      -3.404  10.624  15.078  0.00  0.00    +0.000 Cl
ATOM     32  C   UNL     1      -2.925  11.310  17.642  0.00  0.00    +0.000 A 
ATOM     33  C   UNL     1      -3.262  11.818  18.915  0.00  0.00    +0.000 A 
BRANCH  27  35
ATOM     34  C   UNL     1      -6.143  12.103  20.931  0.00  0.00    +0.000 C 
ATOM     35  O   UNL     1      -4.946  12.665  20.386  0.00  0.00    +0.000 OA
ENDBRANCH  27  35
ENDBRANCH  26  33
ENDBRANCH   1  26
TORSDOF 7
ENDMDL
MODEL 6
REMARK VINA RESULT:      -7.4      3.406      5.085
REMARK  Name = 
REMARK  8 active torsions:
REMARK  status: ('A' for Active; 'I' for Inactive)
REMARK    1  A    between atoms: C_1  and  O_2
REMARK    2  A    between atoms: O_2  and  C_3
REMARK    3  A    between atoms: C_9  and  C_10
REMARK    4  A    between atoms: C_10  and  N_11
REMARK    5  A    between atoms: C_19  and  C_20
REMARK    6  A    between atoms: C_25  and  C_26
REMARK    7  A    between atoms: C_26  and  C_27
REMARK    8  A    between atoms: C_27  and  O_29
REMARK                            x       y       z     vdW  Elec       q    Type
REMARK                         _______ _______ _______ _____ _____    ______ ____
ROOT
ATOM      1  N   UNL     1      -0.972  12.687  19.788  0.00  0.00    +0.000 N 
ATOM      2  C   UNL     1      -1.060  14.035  20.145  0.00  0.00    +0.000 C 
ATOM      3  O   UNL     1      -1.989  14.504  20.801  0.00  0.00    +0.000 OA
ATOM      4  O   UNL     1      -0.034  14.856  19.789  0.00  0.00    +0.000 OA
ATOM      5  C   UNL     1       0.783  14.523  18.668  0.00  0.00    +0.000 C 
ATOM      6  C   UNL     1       1.110  13.070  18.623  0.00  0.00    +0.000 A 
ATOM      7  C   UNL     1       2.269  12.612  17.972  0.00  0.00    +0.000 A 
ATOM      8  C   UNL     1       2.581  11.253  17.963  0.00  0.00    +0.000 A 
ATOM      9  C   UNL     1       1.715  10.352  18.584  0.00  0.00    +0.000 A 
ATOM     10  C   UNL     1       0.509  10.807  19.147  0.00  0.00    +0.000 A 
ATOM     11  C   UNL     1       0.203  12.170  19.183  0.00  0.00    +0.000 A 
ENDROOT
BRANCH   9  12
ATOM     12  C   UNL     1       2.007   8.899  18.684  0.00  0.00    +0.000 C 
ATOM     13  O   UNL     1       1.568   8.306  19.659  0.00  0.00    +0.000 OA
ATOM     14  N   UNL     1       2.843   8.382  17.709  0.00  0.00    +0.000 N 
ATOM     15  C   UNL     1       3.251   7.075  17.787  0.00  0.00    +0.000 A 
ATOM     16  N   UNL     1       2.741   6.107  18.502  0.00  0.00    +0.000 NA
ATOM     17  C   UNL     1       3.457   4.934  18.316  0.00  0.00    +0.000 A 
ATOM     18  C   UNL     1       4.566   5.080  17.498  0.00  0.00    +0.000 A 
ATOM     19  S   UNL     1       4.605   6.670  16.837  0.00  0.00    +0.000 S 
ATOM     20  H   UNL     1       3.315   8.972  17.045  0.00  0.00    +0.000 HD
BRANCH  17  21
ATOM     21  C   UNL     1       2.975   3.725  19.049  0.00  0.00    +0.000 C 
BRANCH  21  22
ATOM     22  C   UNL     1       3.804   2.472  18.848  0.00  0.00    +0.000 C 
ATOM     23  O   UNL     1       3.564   1.556  18.089  0.00  0.00    +0.000 OA
BRANCH  22  24
ATOM     24  O   UNL     1       4.915   2.466  19.630  0.00  0.00    +0.000 OA
ATOM     25  H   UNL     1       5.675   1.983  19.256  0.00  0.00    +0.000 HD
ENDBRANCH  22  24
ENDBRANCH  21  22
ENDBRANCH  17  21
ENDBRANCH   9  12
BRANCH   1  26
ATOM     26  C   UNL     1      -2.141  11.818  20.031  0.00  0.00    +0.000 C 
BRANCH  26  33
ATOM     27  C   UNL     1      -4.561  12.144  19.189  0.00  0.00    +0.000 A 
ATOM     28  C   UNL     1      -5.488  12.087  18.135  0.00  0.00    +0.000 A 
ATOM     29  C   UNL     1      -5.111  11.652  16.867  0.00  0.00    +0.000 A 
ATOM     30  C   UNL     1      -3.800  11.282  16.637  0.00  0.00    +0.000 A 
ATOM     31 CL   UNL     1      -3.327  10.732  15.077  0.00  0.00    +0.000 Cl
ATOM     32  C   UNL     1      -2.860  11.358  17.659  0.00  0.00    +0.000 A 
ATOM     33  C   UNL     1      -3.209  11.810  18.949  0.00  0.00    +0.000 A 
BRANCH  27  35
ATOM     34  C   UNL     1      -6.322  12.672  20.687  0.00  0.00    +0.000 C 
ATOM     35  O   UNL     1      -4.918  12.535  20.457  0.00  0.00    +0.000 OA
ENDBRANCH  27  35
ENDBRANCH  26  33
ENDBRANCH   1  26
TORSDOF 7
ENDMDL
MODEL 7
REMARK VINA RESULT:      -7.4      1.136      1.316
REMARK  Name = 
REMARK  8 active torsions:
REMARK  status: ('A' for Active; 'I' for Inactive)
REMARK    1  A    between atoms: C_1  and  O_2
REMARK    2  A    between atoms: O_2  and  C_3
REMARK    3  A    between atoms: C_9  and  C_10
REMARK    4  A    between atoms: C_10  and  N_11
REMARK    5  A    between atoms: C_19  and  C_20
REMARK    6  A    between atoms: C_25  and  C_26
REMARK    7  A    between atoms: C_26  and  C_27
REMARK    8  A    between atoms: C_27  and  O_29
REMARK                            x       y       z     vdW  Elec       q    Type
REMARK                         _______ _______ _______ _____ _____    ______ ____
ROOT
ATOM      1  N   UNL     1      -1.086  12.705  20.652  0.00  0.00    +0.000 N 
ATOM      2  C   UNL     1      -2.196  13.368  21.182  0.00  0.00    +0.000 C 
ATOM      3  O   UNL     1      -2.719  14.347  20.651  0.00  0.00    +0.000 OA
ATOM      4  O   UNL     1      -2.753  12.867  22.318  0.00  0.00    +0.000 OA
ATOM      5  C   UNL     1      -1.960  12.090  23.214  0.00  0.00    +0.000 C 
ATOM      6  C   UNL     1      -1.067  11.140  22.492  0.00  0.00    +0.000 A 
ATOM      7  C   UNL     1      -0.617   9.962  23.114  0.00  0.00    +0.000 A 
ATOM      8  C   UNL     1       0.194   9.065  22.419  0.00  0.00    +0.000 A 
ATOM      9  C   UNL     1       0.573   9.364  21.110  0.00  0.00    +0.000 A 
ATOM     10  C   UNL     1       0.200  10.590  20.531  0.00  0.00    +0.000 A 
ATOM     11  C   UNL     1      -0.634  11.481  21.212  0.00  0.00    +0.000 A 
ENDROOT
BRANCH   9  12
ATOM     12  C   UNL     1       1.373   8.433  20.274  0.00  0.00    +0.000 C 
ATOM     13  O   UNL     1       1.612   8.777  19.126  0.00  0.00    +0.000 OA
ATOM     14  N   UNL     1       1.678   7.212  20.852  0.00  0.00    +0.000 N 
ATOM     15  C   UNL     1       2.319   6.252  20.113  0.00  0.00    +0.000 A 
ATOM     16  N   UNL     1       2.973   6.393  18.990  0.00  0.00    +0.000 NA
ATOM     17  C   UNL     1       3.460   5.171  18.551  0.00  0.00    +0.000 A 
ATOM     18  C   UNL     1       3.078   4.100  19.345  0.00  0.00    +0.000 A 
ATOM     19  S   UNL     1       2.238   4.668  20.736  0.00  0.00    +0.000 S 
ATOM     20  H   UNL     1       1.286   6.928  21.734  0.00  0.00    +0.000 HD
BRANCH  17  21
ATOM     21  C   UNL     1       4.257   5.175  17.288  0.00  0.00    +0.000 C 
BRANCH  21  22
ATOM     22  C   UNL     1       5.547   4.381  17.334  0.00  0.00    +0.000 C 
ATOM     23  O   UNL     1       6.529   4.627  18.002  0.00  0.00    +0.000 OA
BRANCH  22  24
ATOM     24  O   UNL     1       5.504   3.294  16.519  0.00  0.00    +0.000 OA
ATOM     25  H   UNL     1       4.890   3.374  15.766  0.00  0.00    +0.000 HD
ENDBRANCH  22  24
ENDBRANCH  21  22
ENDBRANCH  17  21
ENDBRANCH   9  12
BRANCH   1  26
ATOM     26  C   UNL     1      -0.379  13.320  19.511  0.00  0.00    +0.000 C 
BRANCH  26  33
ATOM     27  C   UNL     1       0.644  15.688  19.376  0.00  0.00    +0.000 A 
ATOM     28  C   UNL     1       1.675  16.578  19.726  0.00  0.00    +0.000 A 
ATOM     29  C   UNL     1       2.760  16.158  20.492  0.00  0.00    +0.000 A 
ATOM     30  C   UNL     1       2.818  14.848  20.927  0.00  0.00    +0.000 A 
ATOM     31 CL   UNL     1       4.160  14.317  21.865  0.00  0.00    +0.000 Cl
ATOM     32  C   UNL     1       1.795  13.958  20.617  0.00  0.00    +0.000 A 
ATOM     33  C   UNL     1       0.676  14.360  19.856  0.00  0.00    +0.000 A 
BRANCH  27  35
ATOM     34  C   UNL     1      -1.149  17.207  19.055  0.00  0.00    +0.000 C 
ATOM     35  O   UNL     1      -0.416  16.069  18.591  0.00  0.00    +0.000 OA
ENDBRANCH  27  35
ENDBRANCH  26  33
ENDBRANCH   1  26
TORSDOF 7
ENDMDL
MODEL 8
REMARK VINA RESULT:      -7.4      1.680      2.218
REMARK  Name = 
REMARK  8 active torsions:
REMARK  status: ('A' for Active; 'I' for Inactive)
REMARK    1  A    between atoms: C_1  and  O_2
REMARK    2  A    between atoms: O_2  and  C_3
REMARK    3  A    between atoms: C_9  and  C_10
REMARK    4  A    between atoms: C_10  and  N_11
REMARK    5  A    between atoms: C_19  and  C_20
REMARK    6  A    between atoms: C_25  and  C_26
REMARK    7  A    between atoms: C_26  and  C_27
REMARK    8  A    between atoms: C_27  and  O_29
REMARK                            x       y       z     vdW  Elec       q    Type
REMARK                         _______ _______ _______ _____ _____    ______ ____
ROOT
ATOM      1  N   UNL     1      -1.021  12.106  20.211  0.00  0.00    +0.000 N 
ATOM      2  C   UNL     1      -2.110  12.694  20.860  0.00  0.00    +0.000 C 
ATOM      3  O   UNL     1      -2.827  13.549  20.342  0.00  0.00    +0.000 OA
ATOM      4  O   UNL     1      -2.417  12.255  22.111  0.00  0.00    +0.000 OA
ATOM      5  C   UNL     1      -1.404  11.667  22.925  0.00  0.00    +0.000 C 
ATOM      6  C   UNL     1      -0.522  10.752  22.148  0.00  0.00    +0.000 A 
ATOM      7  C   UNL     1       0.163   9.702  22.784  0.00  0.00    +0.000 A 
ATOM      8  C   UNL     1       0.962   8.831  22.043  0.00  0.00    +0.000 A 
ATOM      9  C   UNL     1       1.094   9.033  20.668  0.00  0.00    +0.000 A 
ATOM     10  C   UNL     1       0.485  10.144  20.057  0.00  0.00    +0.000 A 
ATOM     11  C   UNL     1      -0.338  11.004  20.789  0.00  0.00    +0.000 A 
ENDROOT
BRANCH   9  12
ATOM     12  C   UNL     1       1.865   8.114  19.793  0.00  0.00    +0.000 C 
ATOM     13  O   UNL     1       2.049   8.465  18.636  0.00  0.00    +0.000 OA
ATOM     14  N   UNL     1       2.207   6.893  20.350  0.00  0.00    +0.000 N 
ATOM     15  C   UNL     1       2.824   5.943  19.579  0.00  0.00    +0.000 A 
ATOM     16  N   UNL     1       3.426   6.096  18.429  0.00  0.00    +0.000 NA
ATOM     17  C   UNL     1       3.905   4.880  17.963  0.00  0.00    +0.000 A 
ATOM     18  C   UNL     1       3.570   3.803  18.767  0.00  0.00    +0.000 A 
ATOM     19  S   UNL     1       2.787   4.356  20.198  0.00  0.00    +0.000 S 
ATOM     20  H   UNL     1       1.859   6.602  21.248  0.00  0.00    +0.000 HD
BRANCH  17  21
ATOM     21  C   UNL     1       4.645   4.899  16.665  0.00  0.00    +0.000 C 
BRANCH  21  22
ATOM     22  C   UNL     1       5.286   6.224  16.304  0.00  0.00    +0.000 C 
ATOM     23  O   UNL     1       5.158   6.833  15.262  0.00  0.00    +0.000 OA
BRANCH  22  24
ATOM     24  O   UNL     1       6.056   6.707  17.313  0.00  0.00    +0.000 OA
ATOM     25  H   UNL     1       6.168   7.676  17.313  0.00  0.00    +0.000 HD
ENDBRANCH  22  24
ENDBRANCH  21  22
ENDBRANCH  17  21
ENDBRANCH   9  12
BRANCH   1  26
ATOM     26  C   UNL     1      -0.582  12.673  18.920  0.00  0.00    +0.000 C 
BRANCH  26  33
ATOM     27  C   UNL     1       1.408  14.245  19.411  0.00  0.00    +0.000 A 
ATOM     28  C   UNL     1       1.931  15.549  19.458  0.00  0.00    +0.000 A 
ATOM     29  C   UNL     1       1.144  16.652  19.138  0.00  0.00    +0.000 A 
ATOM     30  C   UNL     1      -0.170  16.463  18.756  0.00  0.00    +0.000 A 
ATOM     31 CL   UNL     1      -1.152  17.821  18.369  0.00  0.00    +0.000 Cl
ATOM     32  C   UNL     1      -0.700  15.180  18.676  0.00  0.00    +0.000 A 
ATOM     33  C   UNL     1       0.078  14.042  18.979  0.00  0.00    +0.000 A 
BRANCH  27  35
ATOM     34  C   UNL     1       2.678  13.149  21.089  0.00  0.00    +0.000 C 
ATOM     35  O   UNL     1       2.153  13.145  19.758  0.00  0.00    +0.000 OA
ENDBRANCH  27  35
ENDBRANCH  26  33
ENDBRANCH   1  26
TORSDOF 7
ENDMDL
MODEL 9
REMARK VINA RESULT:      -7.4      1.500      1.841
REMARK  Name = 
REMARK  8 active torsions:
REMARK  status: ('A' for Active; 'I' for Inactive)
REMARK    1  A    between atoms: C_1  and  O_2
REMARK    2  A    between atoms: O_2  and  C_3
REMARK    3  A    between atoms: C_9  and  C_10
REMARK    4  A    between atoms: C_10  and  N_11
REMARK    5  A    between atoms: C_19  and  C_20
REMARK    6  A    between atoms: C_25  and  C_26
REMARK    7  A    between atoms: C_26  and  C_27
REMARK    8  A    between atoms: C_27  and  O_29
REMARK                            x       y       z     vdW  Elec       q    Type
REMARK                         _______ _______ _______ _____ _____    ______ ____
ROOT
ATOM      1  N   UNL     1      -1.404  12.479  20.676  0.00  0.00    +0.000 N 
ATOM      2  C   UNL     1      -2.540  12.999  21.300  0.00  0.00    +0.000 C 
ATOM      3  O   UNL     1      -3.217  13.911  20.827  0.00  0.00    +0.000 OA
ATOM      4  O   UNL     1      -2.943  12.426  22.468  0.00  0.00    +0.000 OA
ATOM      5  C   UNL     1      -1.995  11.745  23.287  0.00  0.00    +0.000 C 
ATOM      6  C   UNL     1      -1.053  10.915  22.483  0.00  0.00    +0.000 A 
ATOM      7  C   UNL     1      -0.417   9.797  23.049  0.00  0.00    +0.000 A 
ATOM      8  C   UNL     1       0.439   9.009  22.280  0.00  0.00    +0.000 A 
ATOM      9  C   UNL     1       0.677   9.361  20.950  0.00  0.00    +0.000 A 
ATOM     10  C   UNL     1       0.114  10.537  20.422  0.00  0.00    +0.000 A 
ATOM     11  C   UNL     1      -0.765  11.315  21.179  0.00  0.00    +0.000 A 
ENDROOT
BRANCH   9  12
ATOM     12  C   UNL     1       1.515   8.540  20.041  0.00  0.00    +0.000 C 
ATOM     13  O   UNL     1       1.716   8.978  18.918  0.00  0.00    +0.000 OA
ATOM     14  N   UNL     1       1.897   7.300  20.525  0.00  0.00    +0.000 N 
ATOM     15  C   UNL     1       2.581   6.434  19.712  0.00  0.00    +0.000 A 
ATOM     16  N   UNL     1       3.208   6.693  18.595  0.00  0.00    +0.000 NA
ATOM     17  C   UNL     1       3.757   5.535  18.064  0.00  0.00    +0.000 A 
ATOM     18  C   UNL     1       3.449   4.391  18.782  0.00  0.00    +0.000 A 
ATOM     19  S   UNL     1       2.599   4.808  20.220  0.00  0.00    +0.000 S 
ATOM     20  H   UNL     1       1.536   6.932  21.389  0.00  0.00    +0.000 HD
BRANCH  17  21
ATOM     21  C   UNL     1       4.533   5.676  16.795  0.00  0.00    +0.000 C 
BRANCH  21  22
ATOM     22  C   UNL     1       5.980   6.094  16.965  0.00  0.00    +0.000 C 
ATOM     23  O   UNL     1       6.774   6.337  16.080  0.00  0.00    +0.000 OA
BRANCH  22  24
ATOM     24  O   UNL     1       6.332   6.189  18.274  0.00  0.00    +0.000 OA
ATOM     25  H   UNL     1       7.269   6.408  18.429  0.00  0.00    +0.000 HD
ENDBRANCH  22  24
ENDBRANCH  21  22
ENDBRANCH  17  21
ENDBRANCH   9  12
BRANCH   1  26
ATOM     26  C   UNL     1      -0.867  13.184  19.494  0.00  0.00    +0.000 C 
BRANCH  26  33
ATOM     27  C   UNL     1       1.466  14.175  18.999  0.00  0.00    +0.000 A 
ATOM     28  C   UNL     1       2.479  15.094  19.323  0.00  0.00    +0.000 A 
ATOM     29  C   UNL     1       2.351  15.953  20.411  0.00  0.00    +0.000 A 
ATOM     30  C   UNL     1       1.203  15.911  21.179  0.00  0.00    +0.000 A 
ATOM     31 CL   UNL     1       1.040  16.961  22.532  0.00  0.00    +0.000 Cl
ATOM     32  C   UNL     1       0.176  15.029  20.860  0.00  0.00    +0.000 A 
ATOM     33  C   UNL     1       0.272  14.158  19.753  0.00  0.00    +0.000 A 
BRANCH  27  35
ATOM     34  C   UNL     1       2.575  12.272  18.118  0.00  0.00    +0.000 C 
ATOM     35  O   UNL     1       1.587  13.292  17.953  0.00  0.00    +0.000 OA
ENDBRANCH  27  35
ENDBRANCH  26  33
ENDBRANCH   1  26
TORSDOF 7
ENDMDL
