MODEL 1
REMARK VINA RESULT:      -6.3      0.000      0.000
REMARK  Name = 
REMARK  9 active torsions:
REMARK  status: ('A' for Active; 'I' for Inactive)
REMARK    1  A    between atoms: C_1  and  C_2
REMARK    2  A    between atoms: C_2  and  C_3
REMARK    3  A    between atoms: C_4  and  C_5
REMARK    4  A    between atoms: C_5  and  N_6
REMARK    5  A    between atoms: C_8  and  C_9
REMARK    6  A    between atoms: C_9  and  N_10
REMARK    7  A    between atoms: N_10  and  C_11
REMARK    8  A    between atoms: N_10  and  C_12
REMARK    9  A    between atoms: N_10  and  C_13
REMARK                            x       y       z     vdW  Elec       q    Type
REMARK                         _______ _______ _______ _____ _____    ______ ____
ROOT
ATOM      1  N   UNL     1       5.245   4.454  15.447  0.00  0.00    +0.000 N 
ATOM      2  C   UNL     1       4.435   3.465  15.893  0.00  0.00    +0.000 A 
ATOM      3  C   UNL     1       4.465   3.412  17.277  0.00  0.00    +0.000 A 
ATOM      4  C   UNL     1       5.327   4.428  17.682  0.00  0.00    +0.000 A 
ATOM      5  C   UNL     1       5.727   4.866  18.947  0.00  0.00    +0.000 A 
ATOM      6  C   UNL     1       6.599   5.971  19.018  0.00  0.00    +0.000 A 
ATOM      7  C   UNL     1       7.050   6.609  17.842  0.00  0.00    +0.000 A 
ATOM      8 BR   UNL     1       8.213   8.121  17.950  0.00  0.00    +0.000 Br
ATOM      9  C   UNL     1       6.640   6.144  16.583  0.00  0.00    +0.000 A 
ATOM     10  C   UNL     1       5.780   5.046  16.534  0.00  0.00    +0.000 A 
ENDROOT
BRANCH   1  11
ATOM     11  C   UNL     1       5.453   4.804  14.046  0.00  0.00    +0.000 C 
BRANCH  11  15
ATOM     12  C   UNL     1       6.438   1.949  11.623  0.00  0.00    +0.000 C 
ATOM     13  C   UNL     1       5.665   3.090  12.235  0.00  0.00    +0.000 C 
ATOM     14  C   UNL     1       4.375   3.554  11.606  0.00  0.00    +0.000 C 
ATOM     15  C   UNL     1       6.149   3.671  13.348  0.00  0.00    +0.000 C 
ENDBRANCH  11  15
ENDBRANCH   1  11
BRANCH   3  16
ATOM     16  C   UNL     1       3.691   2.426  18.121  0.00  0.00    +0.000 C 
BRANCH  16  17
ATOM     17  N   UNL     1       2.494   3.002  18.808  0.00  0.00    +0.000 N 
ATOM     18  C   UNL     1       1.394   2.010  18.724  0.00  0.00    +0.000 C 
ATOM     19  C   UNL     1       2.800   3.263  20.232  0.00  0.00    +0.000 C 
ATOM     20  C   UNL     1       2.033   4.257  18.165  0.00  0.00    +0.000 C 
ENDBRANCH  16  17
ENDBRANCH   3  16
TORSDOF 4
ENDMDL
MODEL 2
REMARK VINA RESULT:      -6.3      3.450      4.947
REMARK  Name = 
REMARK  9 active torsions:
REMARK  status: ('A' for Active; 'I' for Inactive)
REMARK    1  A    between atoms: C_1  and  C_2
REMARK    2  A    between atoms: C_2  and  C_3
REMARK    3  A    between atoms: C_4  and  C_5
REMARK    4  A    between atoms: C_5  and  N_6
REMARK    5  A    between atoms: C_8  and  C_9
REMARK    6  A    between atoms: C_9  and  N_10
REMARK    7  A    between atoms: N_10  and  C_11
REMARK    8  A    between atoms: N_10  and  C_12
REMARK    9  A    between atoms: N_10  and  C_13
REMARK                            x       y       z     vdW  Elec       q    Type
REMARK                         _______ _______ _______ _____ _____    ______ ____
ROOT
ATOM      1  N   UNL     1       3.436   6.734  18.176  0.00  0.00    +0.000 N 
ATOM      2  C   UNL     1       3.524   5.587  18.890  0.00  0.00    +0.000 A 
ATOM      3  C   UNL     1       2.731   5.670  20.024  0.00  0.00    +0.000 A 
ATOM      4  C   UNL     1       2.129   6.925  19.980  0.00  0.00    +0.000 A 
ATOM      5  C   UNL     1       1.218   7.554  20.833  0.00  0.00    +0.000 A 
ATOM      6  C   UNL     1       0.761   8.839  20.478  0.00  0.00    +0.000 A 
ATOM      7  C   UNL     1       1.216   9.464  19.296  0.00  0.00    +0.000 A 
ATOM      8 BR   UNL     1       0.571  11.196  18.812  0.00  0.00    +0.000 Br
ATOM      9  C   UNL     1       2.137   8.814  18.462  0.00  0.00    +0.000 A 
ATOM     10  C   UNL     1       2.581   7.544  18.833  0.00  0.00    +0.000 A 
ENDROOT
BRANCH   1  11
ATOM     11  C   UNL     1       4.128   6.997  16.919  0.00  0.00    +0.000 C 
BRANCH  11  15
ATOM     12  C   UNL     1       7.128   4.607  16.392  0.00  0.00    +0.000 C 
ATOM     13  C   UNL     1       6.338   5.830  16.781  0.00  0.00    +0.000 C 
ATOM     14  C   UNL     1       7.038   7.027  17.375  0.00  0.00    +0.000 C 
ATOM     15  C   UNL     1       5.007   5.827  16.581  0.00  0.00    +0.000 C 
ENDBRANCH  11  15
ENDBRANCH   1  11
BRANCH   3  16
ATOM     16  C   UNL     1       2.590   4.579  21.061  0.00  0.00    +0.000 C 
BRANCH  16  17
ATOM     17  N   UNL     1       1.987   3.310  20.548  0.00  0.00    +0.000 N 
ATOM     18  C   UNL     1       1.526   2.516  21.713  0.00  0.00    +0.000 C 
ATOM     19  C   UNL     1       0.826   3.612  19.680  0.00  0.00    +0.000 C 
ATOM     20  C   UNL     1       2.967   2.493  19.792  0.00  0.00    +0.000 C 
ENDBRANCH  16  17
ENDBRANCH   3  16
TORSDOF 4
ENDMDL
MODEL 3
REMARK VINA RESULT:      -6.2      2.795      3.594
REMARK  Name = 
REMARK  9 active torsions:
REMARK  status: ('A' for Active; 'I' for Inactive)
REMARK    1  A    between atoms: C_1  and  C_2
REMARK    2  A    between atoms: C_2  and  C_3
REMARK    3  A    between atoms: C_4  and  C_5
REMARK    4  A    between atoms: C_5  and  N_6
REMARK    5  A    between atoms: C_8  and  C_9
REMARK    6  A    between atoms: C_9  and  N_10
REMARK    7  A    between atoms: N_10  and  C_11
REMARK    8  A    between atoms: N_10  and  C_12
REMARK    9  A    between atoms: N_10  and  C_13
REMARK                            x       y       z     vdW  Elec       q    Type
REMARK                         _______ _______ _______ _____ _____    ______ ____
ROOT
ATOM      1  N   UNL     1       4.436   6.246  17.267  0.00  0.00    +0.000 N 
ATOM      2  C   UNL     1       4.534   5.018  17.829  0.00  0.00    +0.000 A 
ATOM      3  C   UNL     1       3.697   4.928  18.929  0.00  0.00    +0.000 A 
ATOM      4  C   UNL     1       3.056   6.161  19.025  0.00  0.00    +0.000 A 
ATOM      5  C   UNL     1       2.094   6.646  19.915  0.00  0.00    +0.000 A 
ATOM      6  C   UNL     1       1.608   7.954  19.712  0.00  0.00    +0.000 A 
ATOM      7  C   UNL     1       2.086   8.741  18.642  0.00  0.00    +0.000 A 
ATOM      8 BR   UNL     1       1.404  10.504  18.362  0.00  0.00    +0.000 Br
ATOM      9  C   UNL     1       3.059   8.233  17.769  0.00  0.00    +0.000 A 
ATOM     10  C   UNL     1       3.530   6.938  17.988  0.00  0.00    +0.000 A 
ENDROOT
BRANCH   1  11
ATOM     11  C   UNL     1       5.166   6.692  16.086  0.00  0.00    +0.000 C 
BRANCH  11  15
ATOM     12  C   UNL     1       5.988   3.777  13.675  0.00  0.00    +0.000 C 
ATOM     13  C   UNL     1       6.147   4.808  14.762  0.00  0.00    +0.000 C 
ATOM     14  C   UNL     1       7.448   4.919  15.518  0.00  0.00    +0.000 C 
ATOM     15  C   UNL     1       5.110   5.622  15.033  0.00  0.00    +0.000 C 
ENDBRANCH  11  15
ENDBRANCH   1  11
BRANCH   3  16
ATOM     16  C   UNL     1       3.553   3.707  19.807  0.00  0.00    +0.000 C 
BRANCH  16  17
ATOM     17  N   UNL     1       2.538   2.717  19.332  0.00  0.00    +0.000 N 
ATOM     18  C   UNL     1       3.260   1.580  18.710  0.00  0.00    +0.000 C 
ATOM     19  C   UNL     1       1.741   2.215  20.475  0.00  0.00    +0.000 C 
ATOM     20  C   UNL     1       1.627   3.297  18.314  0.00  0.00    +0.000 C 
ENDBRANCH  16  17
ENDBRANCH   3  16
TORSDOF 4
ENDMDL
MODEL 4
REMARK VINA RESULT:      -6.2      0.521      1.334
REMARK  Name = 
REMARK  9 active torsions:
REMARK  status: ('A' for Active; 'I' for Inactive)
REMARK    1  A    between atoms: C_1  and  C_2
REMARK    2  A    between atoms: C_2  and  C_3
REMARK    3  A    between atoms: C_4  and  C_5
REMARK    4  A    between atoms: C_5  and  N_6
REMARK    5  A    between atoms: C_8  and  C_9
REMARK    6  A    between atoms: C_9  and  N_10
REMARK    7  A    between atoms: N_10  and  C_11
REMARK    8  A    between atoms: N_10  and  C_12
REMARK    9  A    between atoms: N_10  and  C_13
REMARK                            x       y       z     vdW  Elec       q    Type
REMARK                         _______ _______ _______ _____ _____    ______ ____
ROOT
ATOM      1  N   UNL     1       5.797   4.033  15.573  0.00  0.00    +0.000 N 
ATOM      2  C   UNL     1       4.900   3.118  16.010  0.00  0.00    +0.000 A 
ATOM      3  C   UNL     1       4.638   3.313  17.357  0.00  0.00    +0.000 A 
ATOM      4  C   UNL     1       5.408   4.407  17.743  0.00  0.00    +0.000 A 
ATOM      5  C   UNL     1       5.538   5.073  18.965  0.00  0.00    +0.000 A 
ATOM      6  C   UNL     1       6.389   6.196  19.018  0.00  0.00    +0.000 A 
ATOM      7  C   UNL     1       7.084   6.626  17.867  0.00  0.00    +0.000 A 
ATOM      8 BR   UNL     1       8.216   8.164  17.943  0.00  0.00    +0.000 Br
ATOM      9  C   UNL     1       6.942   5.935  16.654  0.00  0.00    +0.000 A 
ATOM     10  C   UNL     1       6.099   4.823  16.624  0.00  0.00    +0.000 A 
ENDROOT
BRANCH   1  11
ATOM     11  C   UNL     1       6.298   4.135  14.207  0.00  0.00    +0.000 C 
BRANCH  11  15
ATOM     12  C   UNL     1       4.084   3.145  11.190  0.00  0.00    +0.000 C 
ATOM     13  C   UNL     1       5.286   3.265  12.089  0.00  0.00    +0.000 C 
ATOM     14  C   UNL     1       6.599   2.639  11.688  0.00  0.00    +0.000 C 
ATOM     15  C   UNL     1       5.160   3.943  13.245  0.00  0.00    +0.000 C 
ENDBRANCH  11  15
ENDBRANCH   1  11
BRANCH   3  16
ATOM     16  C   UNL     1       3.693   2.472  18.183  0.00  0.00    +0.000 C 
BRANCH  16  17
ATOM     17  N   UNL     1       2.427   3.166  18.577  0.00  0.00    +0.000 N 
ATOM     18  C   UNL     1       2.601   3.694  19.952  0.00  0.00    +0.000 C 
ATOM     19  C   UNL     1       2.159   4.295  17.657  0.00  0.00    +0.000 C 
ATOM     20  C   UNL     1       1.264   2.246  18.579  0.00  0.00    +0.000 C 
ENDBRANCH  16  17
ENDBRANCH   3  16
TORSDOF 4
ENDMDL
MODEL 5
REMARK VINA RESULT:      -6.1      3.433      4.763
REMARK  Name = 
REMARK  9 active torsions:
REMARK  status: ('A' for Active; 'I' for Inactive)
REMARK    1  A    between atoms: C_1  and  C_2
REMARK    2  A    between atoms: C_2  and  C_3
REMARK    3  A    between atoms: C_4  and  C_5
REMARK    4  A    between atoms: C_5  and  N_6
REMARK    5  A    between atoms: C_8  and  C_9
REMARK    6  A    between atoms: C_9  and  N_10
REMARK    7  A    between atoms: N_10  and  C_11
REMARK    8  A    between atoms: N_10  and  C_12
REMARK    9  A    between atoms: N_10  and  C_13
REMARK                            x       y       z     vdW  Elec       q    Type
REMARK                         _______ _______ _______ _____ _____    ______ ____
ROOT
ATOM      1  N   UNL     1       3.397   6.617  18.240  0.00  0.00    +0.000 N 
ATOM      2  C   UNL     1       3.445   5.488  18.987  0.00  0.00    +0.000 A 
ATOM      3  C   UNL     1       2.650   5.628  20.113  0.00  0.00    +0.000 A 
ATOM      4  C   UNL     1       2.088   6.899  20.032  0.00  0.00    +0.000 A 
ATOM      5  C   UNL     1       1.193   7.580  20.862  0.00  0.00    +0.000 A 
ATOM      6  C   UNL     1       0.779   8.869  20.468  0.00  0.00    +0.000 A 
ATOM      7  C   UNL     1       1.258   9.446  19.272  0.00  0.00    +0.000 A 
ATOM      8 BR   UNL     1       0.671  11.183  18.736  0.00  0.00    +0.000 Br
ATOM      9  C   UNL     1       2.163   8.744  18.461  0.00  0.00    +0.000 A 
ATOM     10  C   UNL     1       2.565   7.472  18.870  0.00  0.00    +0.000 A 
ENDROOT
BRANCH   1  11
ATOM     11  C   UNL     1       4.103   6.823  16.981  0.00  0.00    +0.000 C 
BRANCH  11  15
ATOM     12  C   UNL     1       7.379   4.771  16.772  0.00  0.00    +0.000 C 
ATOM     13  C   UNL     1       5.944   5.180  16.562  0.00  0.00    +0.000 C 
ATOM     14  C   UNL     1       5.018   4.307  15.752  0.00  0.00    +0.000 C 
ATOM     15  C   UNL     1       5.515   6.329  17.115  0.00  0.00    +0.000 C 
ENDBRANCH  11  15
ENDBRANCH   1  11
BRANCH   3  16
ATOM     16  C   UNL     1       2.470   4.572  21.179  0.00  0.00    +0.000 C 
BRANCH  16  17
ATOM     17  N   UNL     1       1.919   3.274  20.680  0.00  0.00    +0.000 N 
ATOM     18  C   UNL     1       3.017   2.537  20.007  0.00  0.00    +0.000 C 
ATOM     19  C   UNL     1       1.417   2.464  21.813  0.00  0.00    +0.000 C 
ATOM     20  C   UNL     1       0.827   3.473  19.696  0.00  0.00    +0.000 C 
ENDBRANCH  16  17
ENDBRANCH   3  16
TORSDOF 4
ENDMDL
MODEL 6
REMARK VINA RESULT:      -6.0      3.387      5.480
REMARK  Name = 
REMARK  9 active torsions:
REMARK  status: ('A' for Active; 'I' for Inactive)
REMARK    1  A    between atoms: C_1  and  C_2
REMARK    2  A    between atoms: C_2  and  C_3
REMARK    3  A    between atoms: C_4  and  C_5
REMARK    4  A    between atoms: C_5  and  N_6
REMARK    5  A    between atoms: C_8  and  C_9
REMARK    6  A    between atoms: C_9  and  N_10
REMARK    7  A    between atoms: N_10  and  C_11
REMARK    8  A    between atoms: N_10  and  C_12
REMARK    9  A    between atoms: N_10  and  C_13
REMARK                            x       y       z     vdW  Elec       q    Type
REMARK                         _______ _______ _______ _____ _____    ______ ____
ROOT
ATOM      1  N   UNL     1       3.307   6.921  18.128  0.00  0.00    +0.000 N 
ATOM      2  C   UNL     1       2.848   6.407  19.294  0.00  0.00    +0.000 A 
ATOM      3  C   UNL     1       3.326   5.118  19.467  0.00  0.00    +0.000 A 
ATOM      4  C   UNL     1       4.120   4.850  18.354  0.00  0.00    +0.000 A 
ATOM      5  C   UNL     1       4.874   3.730  17.993  0.00  0.00    +0.000 A 
ATOM      6  C   UNL     1       5.615   3.792  16.795  0.00  0.00    +0.000 A 
ATOM      7  C   UNL     1       5.589   4.954  15.993  0.00  0.00    +0.000 A 
ATOM      8 BR   UNL     1       6.617   5.037  14.383  0.00  0.00    +0.000 Br
ATOM      9  C   UNL     1       4.818   6.061  16.375  0.00  0.00    +0.000 A 
ATOM     10  C   UNL     1       4.088   5.978  17.561  0.00  0.00    +0.000 A 
ENDROOT
BRANCH   1  11
ATOM     11  C   UNL     1       3.014   8.258  17.625  0.00  0.00    +0.000 C 
BRANCH  11  15
ATOM     12  C   UNL     1      -0.258  10.121  18.528  0.00  0.00    +0.000 C 
ATOM     13  C   UNL     1       1.190   9.877  18.189  0.00  0.00    +0.000 C 
ATOM     14  C   UNL     1       2.158  11.033  18.122  0.00  0.00    +0.000 C 
ATOM     15  C   UNL     1       1.593   8.614  17.956  0.00  0.00    +0.000 C 
ENDBRANCH  11  15
ENDBRANCH   1  11
BRANCH   3  16
ATOM     16  C   UNL     1       3.012   4.232  20.650  0.00  0.00    +0.000 C 
BRANCH  16  17
ATOM     17  N   UNL     1       1.850   3.312  20.445  0.00  0.00    +0.000 N 
ATOM     18  C   UNL     1       1.555   2.649  21.739  0.00  0.00    +0.000 C 
ATOM     19  C   UNL     1       0.660   4.083  20.017  0.00  0.00    +0.000 C 
ATOM     20  C   UNL     1       2.142   2.259  19.442  0.00  0.00    +0.000 C 
ENDBRANCH  16  17
ENDBRANCH   3  16
TORSDOF 4
ENDMDL
MODEL 7
REMARK VINA RESULT:      -6.0      3.663      4.998
REMARK  Name = 
REMARK  9 active torsions:
REMARK  status: ('A' for Active; 'I' for Inactive)
REMARK    1  A    between atoms: C_1  and  C_2
REMARK    2  A    between atoms: C_2  and  C_3
REMARK    3  A    between atoms: C_4  and  C_5
REMARK    4  A    between atoms: C_5  and  N_6
REMARK    5  A    between atoms: C_8  and  C_9
REMARK    6  A    between atoms: C_9  and  N_10
REMARK    7  A    between atoms: N_10  and  C_11
REMARK    8  A    between atoms: N_10  and  C_12
REMARK    9  A    between atoms: N_10  and  C_13
REMARK                            x       y       z     vdW  Elec       q    Type
REMARK                         _______ _______ _______ _____ _____    ______ ____
ROOT
ATOM      1  N   UNL     1       3.808   6.256  18.052  0.00  0.00    +0.000 N 
ATOM      2  C   UNL     1       3.824   5.151  18.835  0.00  0.00    +0.000 A 
ATOM      3  C   UNL     1       2.991   5.330  19.928  0.00  0.00    +0.000 A 
ATOM      4  C   UNL     1       2.439   6.601  19.786  0.00  0.00    +0.000 A 
ATOM      5  C   UNL     1       1.519   7.312  20.562  0.00  0.00    +0.000 A 
ATOM      6  C   UNL     1       1.125   8.589  20.114  0.00  0.00    +0.000 A 
ATOM      7  C   UNL     1       1.649   9.125  18.918  0.00  0.00    +0.000 A 
ATOM      8 BR   UNL     1       1.090  10.847  18.306  0.00  0.00    +0.000 Br
ATOM      9  C   UNL     1       2.577   8.394  18.161  0.00  0.00    +0.000 A 
ATOM     10  C   UNL     1       2.958   7.134  18.624  0.00  0.00    +0.000 A 
ENDROOT
BRANCH   1  11
ATOM     11  C   UNL     1       4.558   6.419  16.811  0.00  0.00    +0.000 C 
BRANCH  11  15
ATOM     12  C   UNL     1       7.974   8.054  17.614  0.00  0.00    +0.000 C 
ATOM     13  C   UNL     1       6.921   6.998  17.402  0.00  0.00    +0.000 C 
ATOM     14  C   UNL     1       7.255   5.541  17.605  0.00  0.00    +0.000 C 
ATOM     15  C   UNL     1       5.685   7.387  17.036  0.00  0.00    +0.000 C 
ENDBRANCH  11  15
ENDBRANCH   1  11
BRANCH   3  16
ATOM     16  C   UNL     1       2.768   4.310  21.020  0.00  0.00    +0.000 C 
BRANCH  16  17
ATOM     17  N   UNL     1       1.916   3.147  20.618  0.00  0.00    +0.000 N 
ATOM     18  C   UNL     1       0.732   3.673  19.896  0.00  0.00    +0.000 C 
ATOM     19  C   UNL     1       2.673   2.249  19.716  0.00  0.00    +0.000 C 
ATOM     20  C   UNL     1       1.436   2.376  21.791  0.00  0.00    +0.000 C 
ENDBRANCH  16  17
ENDBRANCH   3  16
TORSDOF 4
ENDMDL
MODEL 8
REMARK VINA RESULT:      -5.9      2.615      3.300
REMARK  Name = 
REMARK  9 active torsions:
REMARK  status: ('A' for Active; 'I' for Inactive)
REMARK    1  A    between atoms: C_1  and  C_2
REMARK    2  A    between atoms: C_2  and  C_3
REMARK    3  A    between atoms: C_4  and  C_5
REMARK    4  A    between atoms: C_5  and  N_6
REMARK    5  A    between atoms: C_8  and  C_9
REMARK    6  A    between atoms: C_9  and  N_10
REMARK    7  A    between atoms: N_10  and  C_11
REMARK    8  A    between atoms: N_10  and  C_12
REMARK    9  A    between atoms: N_10  and  C_13
REMARK                            x       y       z     vdW  Elec       q    Type
REMARK                         _______ _______ _______ _____ _____    ______ ____
ROOT
ATOM      1  N   UNL     1       4.638   5.880  16.960  0.00  0.00    +0.000 N 
ATOM      2  C   UNL     1       4.781   4.669  17.549  0.00  0.00    +0.000 A 
ATOM      3  C   UNL     1       4.015   4.607  18.702  0.00  0.00    +0.000 A 
ATOM      4  C   UNL     1       3.371   5.838  18.802  0.00  0.00    +0.000 A 
ATOM      5  C   UNL     1       2.461   6.343  19.735  0.00  0.00    +0.000 A 
ATOM      6  C   UNL     1       1.953   7.641  19.525  0.00  0.00    +0.000 A 
ATOM      7  C   UNL     1       2.357   8.399  18.405  0.00  0.00    +0.000 A 
ATOM      8 BR   UNL     1       1.644  10.149  18.117  0.00  0.00    +0.000 Br
ATOM      9  C   UNL     1       3.278   7.872  17.488  0.00  0.00    +0.000 A 
ATOM     10  C   UNL     1       3.773   6.587  17.715  0.00  0.00    +0.000 A 
ENDROOT
BRANCH   1  11
ATOM     11  C   UNL     1       5.289   6.296  15.722  0.00  0.00    +0.000 C 
BRANCH  11  15
ATOM     12  C   UNL     1       5.952   3.538  13.088  0.00  0.00    +0.000 C 
ATOM     13  C   UNL     1       6.206   4.609  14.116  0.00  0.00    +0.000 C 
ATOM     14  C   UNL     1       7.619   4.998  14.472  0.00  0.00    +0.000 C 
ATOM     15  C   UNL     1       5.149   5.207  14.697  0.00  0.00    +0.000 C 
ENDBRANCH  11  15
ENDBRANCH   1  11
BRANCH   3  16
ATOM     16  C   UNL     1       3.936   3.411  19.623  0.00  0.00    +0.000 C 
BRANCH  16  17
ATOM     17  N   UNL     1       2.903   2.400  19.239  0.00  0.00    +0.000 N 
ATOM     18  C   UNL     1       2.131   2.942  18.094  0.00  0.00    +0.000 C 
ATOM     19  C   UNL     1       3.555   1.137  18.825  0.00  0.00    +0.000 C 
ATOM     20  C   UNL     1       1.954   2.124  20.345  0.00  0.00    +0.000 C 
ENDBRANCH  16  17
ENDBRANCH   3  16
TORSDOF 4
ENDMDL
MODEL 9
REMARK VINA RESULT:      -5.9      2.926      5.572
REMARK  Name = 
REMARK  9 active torsions:
REMARK  status: ('A' for Active; 'I' for Inactive)
REMARK    1  A    between atoms: C_1  and  C_2
REMARK    2  A    between atoms: C_2  and  C_3
REMARK    3  A    between atoms: C_4  and  C_5
REMARK    4  A    between atoms: C_5  and  N_6
REMARK    5  A    between atoms: C_8  and  C_9
REMARK    6  A    between atoms: C_9  and  N_10
REMARK    7  A    between atoms: N_10  and  C_11
REMARK    8  A    between atoms: N_10  and  C_12
REMARK    9  A    between atoms: N_10  and  C_13
REMARK                            x       y       z     vdW  Elec       q    Type
REMARK                         _______ _______ _______ _____ _____    ______ ____
ROOT
ATOM      1  N   UNL     1       2.818   6.770  18.039  0.00  0.00    +0.000 N 
ATOM      2  C   UNL     1       2.166   5.585  17.977  0.00  0.00    +0.000 A 
ATOM      3  C   UNL     1       3.050   4.570  17.648  0.00  0.00    +0.000 A 
ATOM      4  C   UNL     1       4.297   5.175  17.517  0.00  0.00    +0.000 A 
ATOM      5  C   UNL     1       5.561   4.656  17.222  0.00  0.00    +0.000 A 
ATOM      6  C   UNL     1       6.653   5.548  17.204  0.00  0.00    +0.000 A 
ATOM      7  C   UNL     1       6.465   6.921  17.476  0.00  0.00    +0.000 A 
ATOM      8 BR   UNL     1       7.955   8.117  17.473  0.00  0.00    +0.000 Br
ATOM      9  C   UNL     1       5.185   7.418  17.761  0.00  0.00    +0.000 A 
ATOM     10  C   UNL     1       4.116   6.520  17.769  0.00  0.00    +0.000 A 
ENDROOT
BRANCH   1  11
ATOM     11  C   UNL     1       2.206   8.052  18.369  0.00  0.00    +0.000 C 
BRANCH  11  15
ATOM     12  C   UNL     1       0.727   8.910  21.843  0.00  0.00    +0.000 C 
ATOM     13  C   UNL     1       1.003   8.971  20.363  0.00  0.00    +0.000 C 
ATOM     14  C   UNL     1       0.344  10.028  19.512  0.00  0.00    +0.000 C 
ATOM     15  C   UNL     1       1.850   8.071  19.829  0.00  0.00    +0.000 C 
ENDBRANCH  11  15
ENDBRANCH   1  11
BRANCH   3  16
ATOM     16  C   UNL     1       2.672   3.117  17.480  0.00  0.00    +0.000 C 
BRANCH  16  17
ATOM     17  N   UNL     1       2.763   2.304  18.732  0.00  0.00    +0.000 N 
ATOM     18  C   UNL     1       1.400   1.820  19.066  0.00  0.00    +0.000 C 
ATOM     19  C   UNL     1       3.650   1.137  18.520  0.00  0.00    +0.000 C 
ATOM     20  C   UNL     1       3.263   3.100  19.879  0.00  0.00    +0.000 C 
ENDBRANCH  16  17
ENDBRANCH   3  16
TORSDOF 4
ENDMDL
