MODEL 1
REMARK VINA RESULT:      -8.4      0.000      0.000
REMARK  Name = 
REMARK  4 active torsions:
REMARK  status: ('A' for Active; 'I' for Inactive)
REMARK    1  A    between atoms: C_1  and  C_2
REMARK    2  A    between atoms: C_6  and  C_8
REMARK    3  A    between atoms: C_8  and  N_9
REMARK    4  A    between atoms: C_11  and  C_12
REMARK                            x       y       z     vdW  Elec       q    Type
REMARK                         _______ _______ _______ _____ _____    ______ ____
ROOT
ATOM      1  N   UNL     1       4.671   4.846  19.232  0.00  0.00    +0.000 N 
ATOM      2  N   UNL     1       4.397   6.120  18.859  0.00  0.00    +0.000 NA
ATOM      3  C   UNL     1       3.063   6.255  19.038  0.00  0.00    +0.000 A 
ATOM      4  C   UNL     1       2.521   5.078  19.616  0.00  0.00    +0.000 A 
ATOM      5  C   UNL     1       3.571   4.191  19.708  0.00  0.00    +0.000 A 
ATOM      6  C   UNL     1       3.492   2.803  20.246  0.00  0.00    +0.000 C 
ATOM      7  C   UNL     1       2.014   2.379  20.394  0.00  0.00    +0.000 C 
ATOM      8  C   UNL     1       1.126   3.509  20.949  0.00  0.00    +0.000 C 
ATOM      9  C   UNL     1       1.131   4.743  20.028  0.00  0.00    +0.000 C 
ENDROOT
BRANCH   3  10
ATOM     10  C   UNL     1       2.296   7.498  18.662  0.00  0.00    +0.000 C 
ATOM     11  F   UNL     1       1.337   7.275  17.724  0.00  0.00    +0.000 F 
ATOM     12  F   UNL     1       1.674   8.049  19.739  0.00  0.00    +0.000 F 
ATOM     13  F   UNL     1       3.117   8.460  18.157  0.00  0.00    +0.000 F 
ENDBRANCH   3  10
BRANCH   1  14
ATOM     14  C   UNL     1       6.016   4.338  19.026  0.00  0.00    +0.000 C 
BRANCH  14  20
ATOM     15  C   UNL     1       7.063   4.337  11.656  0.00  0.00    +0.000 C 
ATOM     16  C   UNL     1       7.012   4.446  13.124  0.00  0.00    +0.000 A 
ATOM     17  C   UNL     1       6.267   3.863  14.122  0.00  0.00    +0.000 A 
ATOM     18  C   UNL     1       6.740   4.459  15.322  0.00  0.00    +0.000 A 
ATOM     19  N   UNL     1       6.251   4.174  16.584  0.00  0.00    +0.000 N 
ATOM     20  C   UNL     1       6.677   4.799  17.740  0.00  0.00    +0.000 C 
ATOM     21  O   UNL     1       7.579   5.631  17.818  0.00  0.00    +0.000 OA
ATOM     22  N   UNL     1       7.712   5.333  15.048  0.00  0.00    +0.000 NA
ATOM     23  O   UNL     1       7.884   5.323  13.682  0.00  0.00    +0.000 OA
ATOM     24  H   UNL     1       5.516   3.470  16.656  0.00  0.00    +0.000 HD
ENDBRANCH  14  20
ENDBRANCH   1  14
TORSDOF 3
ENDMDL
MODEL 2
REMARK VINA RESULT:      -8.3      2.504      3.379
REMARK  Name = 
REMARK  4 active torsions:
REMARK  status: ('A' for Active; 'I' for Inactive)
REMARK    1  A    between atoms: C_1  and  C_2
REMARK    2  A    between atoms: C_6  and  C_8
REMARK    3  A    between atoms: C_8  and  N_9
REMARK    4  A    between atoms: C_11  and  C_12
REMARK                            x       y       z     vdW  Elec       q    Type
REMARK                         _______ _______ _______ _____ _____    ______ ____
ROOT
ATOM      1  N   UNL     1       5.498   5.202  18.730  0.00  0.00    +0.000 N 
ATOM      2  N   UNL     1       5.511   3.986  19.329  0.00  0.00    +0.000 NA
ATOM      3  C   UNL     1       4.214   3.718  19.598  0.00  0.00    +0.000 A 
ATOM      4  C   UNL     1       3.380   4.740  19.077  0.00  0.00    +0.000 A 
ATOM      5  C   UNL     1       4.233   5.682  18.546  0.00  0.00    +0.000 A 
ATOM      6  C   UNL     1       3.822   6.956  17.889  0.00  0.00    +0.000 C 
ATOM      7  C   UNL     1       2.326   7.231  18.162  0.00  0.00    +0.000 C 
ATOM      8  C   UNL     1       1.462   5.959  18.064  0.00  0.00    +0.000 C 
ATOM      9  C   UNL     1       1.899   4.892  19.085  0.00  0.00    +0.000 C 
ENDROOT
BRANCH   3  10
ATOM     10  C   UNL     1       3.758   2.493  20.351  0.00  0.00    +0.000 C 
ATOM     11  F   UNL     1       4.785   1.716  20.787  0.00  0.00    +0.000 F 
ATOM     12  F   UNL     1       3.021   2.823  21.447  0.00  0.00    +0.000 F 
ATOM     13  F   UNL     1       2.968   1.697  19.581  0.00  0.00    +0.000 F 
ENDBRANCH   3  10
BRANCH   1  14
ATOM     14  C   UNL     1       6.768   5.843  18.435  0.00  0.00    +0.000 C 
BRANCH  14  20
ATOM     15  C   UNL     1       6.645   3.278  11.447  0.00  0.00    +0.000 C 
ATOM     16  C   UNL     1       6.805   3.905  12.770  0.00  0.00    +0.000 A 
ATOM     17  C   UNL     1       6.329   3.653  14.035  0.00  0.00    +0.000 A 
ATOM     18  C   UNL     1       6.878   4.686  14.841  0.00  0.00    +0.000 A 
ATOM     19  N   UNL     1       6.645   4.831  16.197  0.00  0.00    +0.000 N 
ATOM     20  C   UNL     1       7.137   5.870  16.962  0.00  0.00    +0.000 C 
ATOM     21  O   UNL     1       7.891   6.758  16.570  0.00  0.00    +0.000 OA
ATOM     22  N   UNL     1       7.640   5.493  14.097  0.00  0.00    +0.000 NA
ATOM     23  O   UNL     1       7.597   5.006  12.810  0.00  0.00    +0.000 OA
ATOM     24  H   UNL     1       6.055   4.132  16.650  0.00  0.00    +0.000 HD
ENDBRANCH  14  20
ENDBRANCH   1  14
TORSDOF 3
ENDMDL
MODEL 3
REMARK VINA RESULT:      -8.1      4.968      6.407
REMARK  Name = 
REMARK  4 active torsions:
REMARK  status: ('A' for Active; 'I' for Inactive)
REMARK    1  A    between atoms: C_1  and  C_2
REMARK    2  A    between atoms: C_6  and  C_8
REMARK    3  A    between atoms: C_8  and  N_9
REMARK    4  A    between atoms: C_11  and  C_12
REMARK                            x       y       z     vdW  Elec       q    Type
REMARK                         _______ _______ _______ _____ _____    ______ ____
ROOT
ATOM      1  N   UNL     1       7.059   5.984  17.640  0.00  0.00    +0.000 N 
ATOM      2  N   UNL     1       7.357   5.852  16.324  0.00  0.00    +0.000 NA
ATOM      3  C   UNL     1       6.389   5.049  15.828  0.00  0.00    +0.000 A 
ATOM      4  C   UNL     1       5.430   4.754  16.831  0.00  0.00    +0.000 A 
ATOM      5  C   UNL     1       5.899   5.350  17.981  0.00  0.00    +0.000 A 
ATOM      6  C   UNL     1       5.235   5.309  19.316  0.00  0.00    +0.000 C 
ATOM      7  C   UNL     1       4.114   4.246  19.313  0.00  0.00    +0.000 C 
ATOM      8  C   UNL     1       3.297   4.249  18.007  0.00  0.00    +0.000 C 
ATOM      9  C   UNL     1       4.179   3.949  16.781  0.00  0.00    +0.000 C 
ENDROOT
BRANCH   3  10
ATOM     10  C   UNL     1       6.368   4.556  14.403  0.00  0.00    +0.000 C 
ATOM     11  F   UNL     1       7.354   5.090  13.634  0.00  0.00    +0.000 F 
ATOM     12  F   UNL     1       6.505   3.204  14.338  0.00  0.00    +0.000 F 
ATOM     13  F   UNL     1       5.191   4.854  13.787  0.00  0.00    +0.000 F 
ENDBRANCH   3  10
BRANCH   1  14
ATOM     14  C   UNL     1       7.999   6.687  18.496  0.00  0.00    +0.000 C 
BRANCH  14  20
ATOM     15  C   UNL     1      10.603  13.553  19.721  0.00  0.00    +0.000 C 
ATOM     16  C   UNL     1       9.975  12.274  19.347  0.00  0.00    +0.000 A 
ATOM     17  C   UNL     1      10.002  10.991  19.840  0.00  0.00    +0.000 A 
ATOM     18  C   UNL     1       9.168  10.248  18.963  0.00  0.00    +0.000 A 
ATOM     19  N   UNL     1       8.920   8.892  19.078  0.00  0.00    +0.000 N 
ATOM     20  C   UNL     1       8.152   8.166  18.188  0.00  0.00    +0.000 C 
ATOM     21  O   UNL     1       7.540   8.624  17.225  0.00  0.00    +0.000 OA
ATOM     22  N   UNL     1       8.672  11.047  18.015  0.00  0.00    +0.000 NA
ATOM     23  O   UNL     1       9.171  12.308  18.255  0.00  0.00    +0.000 OA
ATOM     24  H   UNL     1       9.349   8.400  19.862  0.00  0.00    +0.000 HD
ENDBRANCH  14  20
ENDBRANCH   1  14
TORSDOF 3
ENDMDL
MODEL 4
REMARK VINA RESULT:      -7.8      1.043      1.253
REMARK  Name = 
REMARK  4 active torsions:
REMARK  status: ('A' for Active; 'I' for Inactive)
REMARK    1  A    between atoms: C_1  and  C_2
REMARK    2  A    between atoms: C_6  and  C_8
REMARK    3  A    between atoms: C_8  and  N_9
REMARK    4  A    between atoms: C_11  and  C_12
REMARK                            x       y       z     vdW  Elec       q    Type
REMARK                         _______ _______ _______ _____ _____    ______ ____
ROOT
ATOM      1  N   UNL     1       4.663   4.605  19.282  0.00  0.00    +0.000 N 
ATOM      2  N   UNL     1       4.211   5.816  19.692  0.00  0.00    +0.000 NA
ATOM      3  C   UNL     1       2.866   5.742  19.575  0.00  0.00    +0.000 A 
ATOM      4  C   UNL     1       2.476   4.437  19.175  0.00  0.00    +0.000 A 
ATOM      5  C   UNL     1       3.649   3.743  18.977  0.00  0.00    +0.000 A 
ATOM      6  C   UNL     1       3.755   2.322  18.536  0.00  0.00    +0.000 C 
ATOM      7  C   UNL     1       2.384   1.826  18.025  0.00  0.00    +0.000 C 
ATOM      8  C   UNL     1       1.213   2.311  18.901  0.00  0.00    +0.000 C 
ATOM      9  C   UNL     1       1.129   3.849  18.941  0.00  0.00    +0.000 C 
ENDROOT
BRANCH   3  10
ATOM     10  C   UNL     1       1.943   6.905  19.841  0.00  0.00    +0.000 C 
ATOM     11  F   UNL     1       0.851   6.568  20.576  0.00  0.00    +0.000 F 
ATOM     12  F   UNL     1       2.577   7.904  20.513  0.00  0.00    +0.000 F 
ATOM     13  F   UNL     1       1.480   7.452  18.684  0.00  0.00    +0.000 F 
ENDBRANCH   3  10
BRANCH   1  14
ATOM     14  C   UNL     1       6.096   4.407  19.158  0.00  0.00    +0.000 C 
BRANCH  14  20
ATOM     15  C   UNL     1       7.030   4.304  11.773  0.00  0.00    +0.000 C 
ATOM     16  C   UNL     1       6.990   4.448  13.239  0.00  0.00    +0.000 A 
ATOM     17  C   UNL     1       6.318   3.825  14.264  0.00  0.00    +0.000 A 
ATOM     18  C   UNL     1       6.751   4.495  15.439  0.00  0.00    +0.000 A 
ATOM     19  N   UNL     1       6.310   4.200  16.717  0.00  0.00    +0.000 N 
ATOM     20  C   UNL     1       6.692   4.892  17.849  0.00  0.00    +0.000 C 
ATOM     21  O   UNL     1       7.512   5.808  17.890  0.00  0.00    +0.000 OA
ATOM     22  N   UNL     1       7.632   5.448  15.127  0.00  0.00    +0.000 NA
ATOM     23  O   UNL     1       7.783   5.418  13.759  0.00  0.00    +0.000 OA
ATOM     24  H   UNL     1       5.645   3.432  16.820  0.00  0.00    +0.000 HD
ENDBRANCH  14  20
ENDBRANCH   1  14
TORSDOF 3
ENDMDL
MODEL 5
REMARK VINA RESULT:      -7.7      3.607      4.636
REMARK  Name = 
REMARK  4 active torsions:
REMARK  status: ('A' for Active; 'I' for Inactive)
REMARK    1  A    between atoms: C_1  and  C_2
REMARK    2  A    between atoms: C_6  and  C_8
REMARK    3  A    between atoms: C_8  and  N_9
REMARK    4  A    between atoms: C_11  and  C_12
REMARK                            x       y       z     vdW  Elec       q    Type
REMARK                         _______ _______ _______ _____ _____    ______ ____
ROOT
ATOM      1  N   UNL     1       5.093   6.123  17.467  0.00  0.00    +0.000 N 
ATOM      2  N   UNL     1       4.554   7.332  17.761  0.00  0.00    +0.000 NA
ATOM      3  C   UNL     1       3.237   7.089  17.942  0.00  0.00    +0.000 A 
ATOM      4  C   UNL     1       2.973   5.698  17.849  0.00  0.00    +0.000 A 
ATOM      5  C   UNL     1       4.176   5.112  17.525  0.00  0.00    +0.000 A 
ATOM      6  C   UNL     1       4.404   3.655  17.307  0.00  0.00    +0.000 C 
ATOM      7  C   UNL     1       3.048   2.924  17.182  0.00  0.00    +0.000 C 
ATOM      8  C   UNL     1       2.004   3.433  18.193  0.00  0.00    +0.000 C 
ATOM      9  C   UNL     1       1.706   4.932  18.000  0.00  0.00    +0.000 C 
ENDROOT
BRANCH   3  10
ATOM     10  C   UNL     1       2.221   8.173  18.204  0.00  0.00    +0.000 C 
ATOM     11  F   UNL     1       2.709   9.427  18.008  0.00  0.00    +0.000 F 
ATOM     12  F   UNL     1       1.131   8.044  17.399  0.00  0.00    +0.000 F 
ATOM     13  F   UNL     1       1.762   8.131  19.484  0.00  0.00    +0.000 F 
ENDBRANCH   3  10
BRANCH   1  14
ATOM     14  C   UNL     1       6.492   6.063  17.079  0.00  0.00    +0.000 C 
BRANCH  14  20
ATOM     15  C   UNL     1       9.698  12.591  18.669  0.00  0.00    +0.000 C 
ATOM     16  C   UNL     1       9.185  11.223  18.480  0.00  0.00    +0.000 A 
ATOM     17  C   UNL     1       8.301  10.622  17.616  0.00  0.00    +0.000 A 
ATOM     18  C   UNL     1       8.264   9.262  18.024  0.00  0.00    +0.000 A 
ATOM     19  N   UNL     1       7.481   8.286  17.432  0.00  0.00    +0.000 N 
ATOM     20  C   UNL     1       7.408   6.979  17.871  0.00  0.00    +0.000 C 
ATOM     21  O   UNL     1       8.064   6.490  18.789  0.00  0.00    +0.000 OA
ATOM     22  N   UNL     1       9.084   9.072  19.061  0.00  0.00    +0.000 NA
ATOM     23  O   UNL     1       9.659  10.290  19.343  0.00  0.00    +0.000 OA
ATOM     24  H   UNL     1       6.911   8.562  16.632  0.00  0.00    +0.000 HD
ENDBRANCH  14  20
ENDBRANCH   1  14
TORSDOF 3
ENDMDL
MODEL 6
REMARK VINA RESULT:      -7.5      1.236      1.502
REMARK  Name = 
REMARK  4 active torsions:
REMARK  status: ('A' for Active; 'I' for Inactive)
REMARK    1  A    between atoms: C_1  and  C_2
REMARK    2  A    between atoms: C_6  and  C_8
REMARK    3  A    between atoms: C_8  and  N_9
REMARK    4  A    between atoms: C_11  and  C_12
REMARK                            x       y       z     vdW  Elec       q    Type
REMARK                         _______ _______ _______ _____ _____    ______ ____
ROOT
ATOM      1  N   UNL     1       5.099   4.993  18.562  0.00  0.00    +0.000 N 
ATOM      2  N   UNL     1       4.718   6.278  18.360  0.00  0.00    +0.000 NA
ATOM      3  C   UNL     1       3.385   6.285  18.586  0.00  0.00    +0.000 A 
ATOM      4  C   UNL     1       2.952   5.006  19.023  0.00  0.00    +0.000 A 
ATOM      5  C   UNL     1       4.067   4.200  18.977  0.00  0.00    +0.000 A 
ATOM      6  C   UNL     1       4.111   2.753  19.336  0.00  0.00    +0.000 C 
ATOM      7  C   UNL     1       2.674   2.200  19.465  0.00  0.00    +0.000 C 
ATOM      8  C   UNL     1       1.723   3.178  20.179  0.00  0.00    +0.000 C 
ATOM      9  C   UNL     1       1.605   4.515  19.422  0.00  0.00    +0.000 C 
ENDROOT
BRANCH   3  10
ATOM     10  C   UNL     1       2.515   7.501  18.389  0.00  0.00    +0.000 C 
ATOM     11  F   UNL     1       3.193   8.575  17.904  0.00  0.00    +0.000 F 
ATOM     12  F   UNL     1       1.496   7.254  17.521  0.00  0.00    +0.000 F 
ATOM     13  F   UNL     1       1.938   7.899  19.556  0.00  0.00    +0.000 F 
ENDBRANCH   3  10
BRANCH   1  14
ATOM     14  C   UNL     1       6.471   4.622  18.262  0.00  0.00    +0.000 C 
BRANCH  14  20
ATOM     15  C   UNL     1       4.689   3.327  11.150  0.00  0.00    +0.000 C 
ATOM     16  C   UNL     1       5.223   3.575  12.500  0.00  0.00    +0.000 A 
ATOM     17  C   UNL     1       4.686   3.658  13.764  0.00  0.00    +0.000 A 
ATOM     18  C   UNL     1       5.792   3.947  14.608  0.00  0.00    +0.000 A 
ATOM     19  N   UNL     1       5.706   4.132  15.977  0.00  0.00    +0.000 N 
ATOM     20  C   UNL     1       6.776   4.468  16.783  0.00  0.00    +0.000 C 
ATOM     21  O   UNL     1       7.944   4.582  16.417  0.00  0.00    +0.000 OA
ATOM     22  N   UNL     1       6.914   4.019  13.887  0.00  0.00    +0.000 NA
ATOM     23  O   UNL     1       6.561   3.785  12.577  0.00  0.00    +0.000 OA
ATOM     24  H   UNL     1       4.786   4.031  16.408  0.00  0.00    +0.000 HD
ENDBRANCH  14  20
ENDBRANCH   1  14
TORSDOF 3
ENDMDL
MODEL 7
REMARK VINA RESULT:      -7.4      4.293      7.554
REMARK  Name = 
REMARK  4 active torsions:
REMARK  status: ('A' for Active; 'I' for Inactive)
REMARK    1  A    between atoms: C_1  and  C_2
REMARK    2  A    between atoms: C_6  and  C_8
REMARK    3  A    between atoms: C_8  and  N_9
REMARK    4  A    between atoms: C_11  and  C_12
REMARK                            x       y       z     vdW  Elec       q    Type
REMARK                         _______ _______ _______ _____ _____    ______ ____
ROOT
ATOM      1  N   UNL     1       3.081   6.742  18.021  0.00  0.00    +0.000 N 
ATOM      2  N   UNL     1       2.205   6.206  18.905  0.00  0.00    +0.000 NA
ATOM      3  C   UNL     1       2.348   4.868  18.769  0.00  0.00    +0.000 A 
ATOM      4  C   UNL     1       3.392   4.574  17.854  0.00  0.00    +0.000 A 
ATOM      5  C   UNL     1       3.825   5.793  17.379  0.00  0.00    +0.000 A 
ATOM      6  C   UNL     1       4.909   6.001  16.377  0.00  0.00    +0.000 C 
ATOM      7  C   UNL     1       5.269   4.657  15.705  0.00  0.00    +0.000 C 
ATOM      8  C   UNL     1       5.311   3.486  16.705  0.00  0.00    +0.000 C 
ATOM      9  C   UNL     1       3.950   3.274  17.393  0.00  0.00    +0.000 C 
ENDROOT
BRANCH   3  10
ATOM     10  C   UNL     1       1.498   3.862  19.504  0.00  0.00    +0.000 C 
ATOM     11  F   UNL     1       0.755   3.079  18.677  0.00  0.00    +0.000 F 
ATOM     12  F   UNL     1       2.256   3.026  20.264  0.00  0.00    +0.000 F 
ATOM     13  F   UNL     1       0.625   4.470  20.353  0.00  0.00    +0.000 F 
ENDBRANCH   3  10
BRANCH   1  14
ATOM     14  C   UNL     1       3.073   8.181  17.823  0.00  0.00    +0.000 C 
BRANCH  14  20
ATOM     15  C   UNL     1      -1.277  11.003  23.165  0.00  0.00    +0.000 C 
ATOM     16  C   UNL     1      -0.562  10.476  21.989  0.00  0.00    +0.000 A 
ATOM     17  C   UNL     1       0.631   9.825  21.782  0.00  0.00    +0.000 A 
ATOM     18  C   UNL     1       0.698   9.631  20.377  0.00  0.00    +0.000 A 
ATOM     19  N   UNL     1       1.751   9.020  19.719  0.00  0.00    +0.000 N 
ATOM     20  C   UNL     1       1.835   8.886  18.347  0.00  0.00    +0.000 C 
ATOM     21  O   UNL     1       0.973   9.222  17.537  0.00  0.00    +0.000 OA
ATOM     22  N   UNL     1      -0.395  10.128  19.792  0.00  0.00    +0.000 NA
ATOM     23  O   UNL     1      -1.180  10.651  20.795  0.00  0.00    +0.000 OA
ATOM     24  H   UNL     1       2.520   8.666  20.289  0.00  0.00    +0.000 HD
ENDBRANCH  14  20
ENDBRANCH   1  14
TORSDOF 3
ENDMDL
MODEL 8
REMARK VINA RESULT:      -7.4      4.638      7.475
REMARK  Name = 
REMARK  4 active torsions:
REMARK  status: ('A' for Active; 'I' for Inactive)
REMARK    1  A    between atoms: C_1  and  C_2
REMARK    2  A    between atoms: C_6  and  C_8
REMARK    3  A    between atoms: C_8  and  N_9
REMARK    4  A    between atoms: C_11  and  C_12
REMARK                            x       y       z     vdW  Elec       q    Type
REMARK                         _______ _______ _______ _____ _____    ______ ____
ROOT
ATOM      1  N   UNL     1       2.919   7.394  18.142  0.00  0.00    +0.000 N 
ATOM      2  N   UNL     1       2.123   6.843  19.091  0.00  0.00    +0.000 NA
ATOM      3  C   UNL     1       2.392   5.519  19.043  0.00  0.00    +0.000 A 
ATOM      4  C   UNL     1       3.433   5.259  18.116  0.00  0.00    +0.000 A 
ATOM      5  C   UNL     1       3.734   6.475  17.543  0.00  0.00    +0.000 A 
ATOM      6  C   UNL     1       4.765   6.711  16.493  0.00  0.00    +0.000 C 
ATOM      7  C   UNL     1       5.235   5.362  15.904  0.00  0.00    +0.000 C 
ATOM      8  C   UNL     1       5.417   4.276  16.981  0.00  0.00    +0.000 C 
ATOM      9  C   UNL     1       4.102   3.987  17.728  0.00  0.00    +0.000 C 
ENDROOT
BRANCH   3  10
ATOM     10  C   UNL     1       1.663   4.494  19.875  0.00  0.00    +0.000 C 
ATOM     11  F   UNL     1       0.805   5.042  20.776  0.00  0.00    +0.000 F 
ATOM     12  F   UNL     1       0.932   3.647  19.100  0.00  0.00    +0.000 F 
ATOM     13  F   UNL     1       2.527   3.718  20.585  0.00  0.00    +0.000 F 
ENDBRANCH   3  10
BRANCH   1  14
ATOM     14  C   UNL     1       2.767   8.808  17.845  0.00  0.00    +0.000 C 
BRANCH  14  20
ATOM     15  C   UNL     1      -4.366  10.898  17.437  0.00  0.00    +0.000 C 
ATOM     16  C   UNL     1      -2.947  10.584  17.680  0.00  0.00    +0.000 A 
ATOM     17  C   UNL     1      -1.946   9.971  16.965  0.00  0.00    +0.000 A 
ATOM     18  C   UNL     1      -0.819   9.993  17.829  0.00  0.00    +0.000 A 
ATOM     19  N   UNL     1       0.420   9.460  17.516  0.00  0.00    +0.000 N 
ATOM     20  C   UNL     1       1.494   9.435  18.383  0.00  0.00    +0.000 C 
ATOM     21  O   UNL     1       1.523   9.931  19.508  0.00  0.00    +0.000 OA
ATOM     22  N   UNL     1      -1.134  10.592  18.980  0.00  0.00    +0.000 NA
ATOM     23  O   UNL     1      -2.457  10.962  18.886  0.00  0.00    +0.000 OA
ATOM     24  H   UNL     1       0.533   9.044  16.591  0.00  0.00    +0.000 HD
ENDBRANCH  14  20
ENDBRANCH   1  14
TORSDOF 3
ENDMDL
MODEL 9
REMARK VINA RESULT:      -7.4      4.284      7.517
REMARK  Name = 
REMARK  4 active torsions:
REMARK  status: ('A' for Active; 'I' for Inactive)
REMARK    1  A    between atoms: C_1  and  C_2
REMARK    2  A    between atoms: C_6  and  C_8
REMARK    3  A    between atoms: C_8  and  N_9
REMARK    4  A    between atoms: C_11  and  C_12
REMARK                            x       y       z     vdW  Elec       q    Type
REMARK                         _______ _______ _______ _____ _____    ______ ____
ROOT
ATOM      1  N   UNL     1       3.211   6.645  17.766  0.00  0.00    +0.000 N 
ATOM      2  N   UNL     1       4.546   6.864  17.673  0.00  0.00    +0.000 NA
ATOM      3  C   UNL     1       5.105   5.636  17.758  0.00  0.00    +0.000 A 
ATOM      4  C   UNL     1       4.098   4.637  17.812  0.00  0.00    +0.000 A 
ATOM      5  C   UNL     1       2.901   5.317  17.836  0.00  0.00    +0.000 A 
ATOM      6  C   UNL     1       1.548   4.694  17.905  0.00  0.00    +0.000 C 
ATOM      7  C   UNL     1       1.675   3.197  18.264  0.00  0.00    +0.000 C 
ATOM      8  C   UNL     1       2.842   2.508  17.531  0.00  0.00    +0.000 C 
ATOM      9  C   UNL     1       4.196   3.154  17.881  0.00  0.00    +0.000 C 
ENDROOT
BRANCH   3  10
ATOM     10  C   UNL     1       6.594   5.402  17.789  0.00  0.00    +0.000 C 
ATOM     11  F   UNL     1       7.060   5.055  19.018  0.00  0.00    +0.000 F 
ATOM     12  F   UNL     1       6.964   4.411  16.933  0.00  0.00    +0.000 F 
ATOM     13  F   UNL     1       7.284   6.513  17.412  0.00  0.00    +0.000 F 
ENDBRANCH   3  10
BRANCH   1  14
ATOM     14  C   UNL     1       2.325   7.794  17.846  0.00  0.00    +0.000 C 
BRANCH  14  20
ATOM     15  C   UNL     1      -1.141  12.027  22.894  0.00  0.00    +0.000 C 
ATOM     16  C   UNL     1      -0.374  11.102  22.044  0.00  0.00    +0.000 A 
ATOM     17  C   UNL     1      -0.141  10.980  20.694  0.00  0.00    +0.000 A 
ATOM     18  C   UNL     1       0.684   9.831  20.571  0.00  0.00    +0.000 A 
ATOM     19  N   UNL     1       1.152   9.325  19.371  0.00  0.00    +0.000 N 
ATOM     20  C   UNL     1       1.908   8.175  19.255  0.00  0.00    +0.000 C 
ATOM     21  O   UNL     1       2.319   7.488  20.188  0.00  0.00    +0.000 OA
ATOM     22  N   UNL     1       0.931   9.312  21.777  0.00  0.00    +0.000 NA
ATOM     23  O   UNL     1       0.276  10.103  22.693  0.00  0.00    +0.000 OA
ATOM     24  H   UNL     1       0.903   9.830  18.519  0.00  0.00    +0.000 HD
ENDBRANCH  14  20
ENDBRANCH   1  14
TORSDOF 3
ENDMDL
