MODEL 1
REMARK VINA RESULT:      -7.5      0.000      0.000
REMARK  Name = 
REMARK  5 active torsions:
REMARK  status: ('A' for Active; 'I' for Inactive)
REMARK    1  A    between atoms: C_1  and  O_2
REMARK    2  A    between atoms: O_2  and  C_3
REMARK    3  A    between atoms: C_3  and  C_4
REMARK    4  A    between atoms: C_4  and  N_5
REMARK    5  A    between atoms: N_5  and  C_6
REMARK                            x       y       z     vdW  Elec       q    Type
REMARK                         _______ _______ _______ _____ _____    ______ ____
ROOT
ATOM      1  C   UNL     1       3.706   5.532  18.006  0.00  0.00    +0.000 A 
ATOM      2  C   UNL     1       3.198   6.841  18.000  0.00  0.00    +0.000 A 
ATOM      3  C   UNL     1       2.374   7.374  19.001  0.00  0.00    +0.000 A 
ATOM      4  C   UNL     1       2.049   6.506  20.055  0.00  0.00    +0.000 A 
ATOM      5  C   UNL     1       2.549   5.194  20.142  0.00  0.00    +0.000 A 
ATOM      6  N   UNL     1       2.203   4.442  21.216  0.00  0.00    +0.000 NA
ATOM      7  C   UNL     1       2.650   3.171  21.290  0.00  0.00    +0.000 A 
ATOM      8  C   UNL     1       3.432   2.582  20.323  0.00  0.00    +0.000 A 
ATOM      9  C   UNL     1       3.791   3.351  19.221  0.00  0.00    +0.000 A 
ATOM     10  C   UNL     1       3.373   4.697  19.104  0.00  0.00    +0.000 A 
ATOM     11  N   UNL     1       0.969   6.827  20.961  0.00  0.00    +0.000 N 
ATOM     12  S   UNL     1       0.791   8.418  21.432  0.00  0.00    +0.000 S 
ATOM     13  O   UNL     1       1.840   8.717  22.385  0.00  0.00    +0.000 OA
ATOM     14  O   UNL     1      -0.605   8.607  21.762  0.00  0.00    +0.000 OA
ATOM     15  C   UNL     1       1.136   9.349  19.976  0.00  0.00    +0.000 A 
ATOM     16  C   UNL     1       0.666  10.674  19.930  0.00  0.00    +0.000 A 
ATOM     17  C   UNL     1       0.959  11.479  18.837  0.00  0.00    +0.000 A 
ATOM     18  C   UNL     1       1.720  10.961  17.797  0.00  0.00    +0.000 A 
ATOM     19  C   UNL     1       2.161   9.635  17.847  0.00  0.00    +0.000 A 
ATOM     20  C   UNL     1       1.880   8.777  18.937  0.00  0.00    +0.000 A 
ATOM     21  H   UNL     1       1.045   6.213  21.782  0.00  0.00    +0.000 HD
ENDROOT
BRANCH   1  22
ATOM     22  N   UNL     1       4.400   5.038  16.894  0.00  0.00    +0.000 N 
ATOM     23  H   UNL     1       4.619   4.049  16.908  0.00  0.00    +0.000 HD
BRANCH  22  24
ATOM     24  C   UNL     1       5.321   5.884  16.129  0.00  0.00    +0.000 C 
BRANCH  24  25
ATOM     25  C   UNL     1       6.784   5.471  16.303  0.00  0.00    +0.000 C 
BRANCH  25  27
ATOM     26  C   UNL     1       7.476   7.298  17.616  0.00  0.00    +0.000 C 
ATOM     27  O   UNL     1       7.621   6.626  16.374  0.00  0.00    +0.000 OA
ENDBRANCH  25  27
ENDBRANCH  24  25
ENDBRANCH  22  24
ENDBRANCH   1  22
TORSDOF 4
ENDMDL
MODEL 2
REMARK VINA RESULT:      -7.4      2.625      7.380
REMARK  Name = 
REMARK  5 active torsions:
REMARK  status: ('A' for Active; 'I' for Inactive)
REMARK    1  A    between atoms: C_1  and  O_2
REMARK    2  A    between atoms: O_2  and  C_3
REMARK    3  A    between atoms: C_3  and  C_4
REMARK    4  A    between atoms: C_4  and  N_5
REMARK    5  A    between atoms: N_5  and  C_6
REMARK                            x       y       z     vdW  Elec       q    Type
REMARK                         _______ _______ _______ _____ _____    ______ ____
ROOT
ATOM      1  C   UNL     1       0.641   8.198  21.066  0.00  0.00    +0.000 A 
ATOM      2  C   UNL     1       1.137   6.884  21.119  0.00  0.00    +0.000 A 
ATOM      3  C   UNL     1       2.017   6.333  20.179  0.00  0.00    +0.000 A 
ATOM      4  C   UNL     1       2.395   7.177  19.123  0.00  0.00    +0.000 A 
ATOM      5  C   UNL     1       1.962   8.513  19.024  0.00  0.00    +0.000 A 
ATOM      6  N   UNL     1       2.408   9.259  17.984  0.00  0.00    +0.000 NA
ATOM      7  C   UNL     1       1.971  10.530  17.862  0.00  0.00    +0.000 A 
ATOM      8  C   UNL     1       1.081  11.115  18.734  0.00  0.00    +0.000 A 
ATOM      9  C   UNL     1       0.624  10.353  19.804  0.00  0.00    +0.000 A 
ATOM     10  C   UNL     1       1.069   9.025  19.995  0.00  0.00    +0.000 A 
ATOM     11  N   UNL     1       3.027   6.634  17.942  0.00  0.00    +0.000 N 
ATOM     12  S   UNL     1       4.144   5.411  18.145  0.00  0.00    +0.000 S 
ATOM     13  O   UNL     1       5.358   6.004  18.670  0.00  0.00    +0.000 OA
ATOM     14  O   UNL     1       4.149   4.635  16.924  0.00  0.00    +0.000 OA
ATOM     15  C   UNL     1       3.466   4.406  19.425  0.00  0.00    +0.000 A 
ATOM     16  C   UNL     1       3.946   3.088  19.533  0.00  0.00    +0.000 A 
ATOM     17  C   UNL     1       3.497   2.265  20.558  0.00  0.00    +0.000 A 
ATOM     18  C   UNL     1       2.575   2.761  21.470  0.00  0.00    +0.000 A 
ATOM     19  C   UNL     1       2.091   4.066  21.336  0.00  0.00    +0.000 A 
ATOM     20  C   UNL     1       2.514   4.935  20.303  0.00  0.00    +0.000 A 
ATOM     21  H   UNL     1       3.437   7.413  17.409  0.00  0.00    +0.000 HD
ENDROOT
BRANCH   1  22
ATOM     22  N   UNL     1      -0.348   8.617  21.965  0.00  0.00    +0.000 N 
ATOM     23  H   UNL     1      -1.294   8.648  21.605  0.00  0.00    +0.000 HD
BRANCH  22  24
ATOM     24  C   UNL     1      -0.047   9.557  23.050  0.00  0.00    +0.000 C 
BRANCH  24  25
ATOM     25  C   UNL     1      -1.076  10.685  23.155  0.00  0.00    +0.000 C 
BRANCH  25  27
ATOM     26  C   UNL     1      -1.377  13.017  23.073  0.00  0.00    +0.000 C 
ATOM     27  O   UNL     1      -0.440  11.953  23.003  0.00  0.00    +0.000 OA
ENDBRANCH  25  27
ENDBRANCH  24  25
ENDBRANCH  22  24
ENDBRANCH   1  22
TORSDOF 4
ENDMDL
MODEL 3
REMARK VINA RESULT:      -7.2      2.867      6.250
REMARK  Name = 
REMARK  5 active torsions:
REMARK  status: ('A' for Active; 'I' for Inactive)
REMARK    1  A    between atoms: C_1  and  O_2
REMARK    2  A    between atoms: O_2  and  C_3
REMARK    3  A    between atoms: C_3  and  C_4
REMARK    4  A    between atoms: C_4  and  N_5
REMARK    5  A    between atoms: N_5  and  C_6
REMARK                            x       y       z     vdW  Elec       q    Type
REMARK                         _______ _______ _______ _____ _____    ______ ____
ROOT
ATOM      1  C   UNL     1       1.783   9.788  18.317  0.00  0.00    +0.000 A 
ATOM      2  C   UNL     1       2.612   8.812  17.738  0.00  0.00    +0.000 A 
ATOM      3  C   UNL     1       2.847   7.545  18.289  0.00  0.00    +0.000 A 
ATOM      4  C   UNL     1       2.203   7.277  19.507  0.00  0.00    +0.000 A 
ATOM      5  C   UNL     1       1.334   8.195  20.126  0.00  0.00    +0.000 A 
ATOM      6  N   UNL     1       0.734   7.831  21.286  0.00  0.00    +0.000 NA
ATOM      7  C   UNL     1      -0.074   8.717  21.905  0.00  0.00    +0.000 A 
ATOM      8  C   UNL     1      -0.316   9.986  21.431  0.00  0.00    +0.000 A 
ATOM      9  C   UNL     1       0.297  10.362  20.240  0.00  0.00    +0.000 A 
ATOM     10  C   UNL     1       1.131   9.464  19.535  0.00  0.00    +0.000 A 
ATOM     11  N   UNL     1       2.612   6.154  20.319  0.00  0.00    +0.000 N 
ATOM     12  S   UNL     1       3.018   4.734  19.543  0.00  0.00    +0.000 S 
ATOM     13  O   UNL     1       1.790   4.112  19.089  0.00  0.00    +0.000 OA
ATOM     14  O   UNL     1       3.947   4.032  20.403  0.00  0.00    +0.000 OA
ATOM     15  C   UNL     1       3.895   5.254  18.106  0.00  0.00    +0.000 A 
ATOM     16  C   UNL     1       4.723   4.307  17.477  0.00  0.00    +0.000 A 
ATOM     17  C   UNL     1       5.392   4.636  16.305  0.00  0.00    +0.000 A 
ATOM     18  C   UNL     1       5.231   5.905  15.766  0.00  0.00    +0.000 A 
ATOM     19  C   UNL     1       4.422   6.844  16.416  0.00  0.00    +0.000 A 
ATOM     20  C   UNL     1       3.729   6.554  17.614  0.00  0.00    +0.000 A 
ATOM     21  H   UNL     1       1.884   5.985  21.025  0.00  0.00    +0.000 HD
ENDROOT
BRANCH   1  22
ATOM     22  N   UNL     1       1.723  11.076  17.773  0.00  0.00    +0.000 N 
ATOM     23  H   UNL     1       1.348  11.148  16.835  0.00  0.00    +0.000 HD
BRANCH  22  24
ATOM     24  C   UNL     1       2.686  12.115  18.155  0.00  0.00    +0.000 C 
BRANCH  24  25
ATOM     25  C   UNL     1       2.010  13.373  18.705  0.00  0.00    +0.000 C 
BRANCH  25  27
ATOM     26  C   UNL     1      -0.078  14.414  19.014  0.00  0.00    +0.000 C 
ATOM     27  O   UNL     1       0.640  13.415  18.306  0.00  0.00    +0.000 OA
ENDBRANCH  25  27
ENDBRANCH  24  25
ENDBRANCH  22  24
ENDBRANCH   1  22
TORSDOF 4
ENDMDL
MODEL 4
REMARK VINA RESULT:      -7.1      2.977      6.088
REMARK  Name = 
REMARK  5 active torsions:
REMARK  status: ('A' for Active; 'I' for Inactive)
REMARK    1  A    between atoms: C_1  and  O_2
REMARK    2  A    between atoms: O_2  and  C_3
REMARK    3  A    between atoms: C_3  and  C_4
REMARK    4  A    between atoms: C_4  and  N_5
REMARK    5  A    between atoms: N_5  and  C_6
REMARK                            x       y       z     vdW  Elec       q    Type
REMARK                         _______ _______ _______ _____ _____    ______ ____
ROOT
ATOM      1  C   UNL     1       1.980   9.274  18.143  0.00  0.00    +0.000 A 
ATOM      2  C   UNL     1       2.858   8.398  17.484  0.00  0.00    +0.000 A 
ATOM      3  C   UNL     1       3.257   7.152  17.986  0.00  0.00    +0.000 A 
ATOM      4  C   UNL     1       2.731   6.798  19.238  0.00  0.00    +0.000 A 
ATOM      5  C   UNL     1       1.821   7.612  19.939  0.00  0.00    +0.000 A 
ATOM      6  N   UNL     1       1.345   7.168  21.128  0.00  0.00    +0.000 NA
ATOM      7  C   UNL     1       0.498   7.957  21.824  0.00  0.00    +0.000 A 
ATOM      8  C   UNL     1       0.098   9.203  21.399  0.00  0.00    +0.000 A 
ATOM      9  C   UNL     1       0.584   9.660  20.178  0.00  0.00    +0.000 A 
ATOM     10  C   UNL     1       1.452   8.864  19.396  0.00  0.00    +0.000 A 
ATOM     11  N   UNL     1       3.307   5.708  19.993  0.00  0.00    +0.000 N 
ATOM     12  S   UNL     1       3.796   4.350  19.155  0.00  0.00    +0.000 S 
ATOM     13  O   UNL     1       2.608   3.615  18.771  0.00  0.00    +0.000 OA
ATOM     14  O   UNL     1       4.849   3.731  19.931  0.00  0.00    +0.000 OA
ATOM     15  C   UNL     1       4.513   4.982  17.674  0.00  0.00    +0.000 A 
ATOM     16  C   UNL     1       5.384   4.135  16.966  0.00  0.00    +0.000 A 
ATOM     17  C   UNL     1       5.932   4.551  15.759  0.00  0.00    +0.000 A 
ATOM     18  C   UNL     1       5.607   5.807  15.264  0.00  0.00    +0.000 A 
ATOM     19  C   UNL     1       4.757   6.647  15.991  0.00  0.00    +0.000 A 
ATOM     20  C   UNL     1       4.183   6.267  17.227  0.00  0.00    +0.000 A 
ATOM     21  H   UNL     1       2.652   5.453  20.743  0.00  0.00    +0.000 HD
ENDROOT
BRANCH   1  22
ATOM     22  N   UNL     1       1.752  10.559  17.637  0.00  0.00    +0.000 N 
ATOM     23  H   UNL     1       1.342  10.609  16.713  0.00  0.00    +0.000 HD
BRANCH  22  24
ATOM     24  C   UNL     1       2.600  11.694  18.020  0.00  0.00    +0.000 C 
BRANCH  24  25
ATOM     25  C   UNL     1       1.792  12.884  18.542  0.00  0.00    +0.000 C 
BRANCH  25  27
ATOM     26  C   UNL     1       2.588  13.582  20.644  0.00  0.00    +0.000 C 
ATOM     27  O   UNL     1       2.643  13.793  19.241  0.00  0.00    +0.000 OA
ENDBRANCH  25  27
ENDBRANCH  24  25
ENDBRANCH  22  24
ENDBRANCH   1  22
TORSDOF 4
ENDMDL
MODEL 5
REMARK VINA RESULT:      -7.0      2.799      4.719
REMARK  Name = 
REMARK  5 active torsions:
REMARK  status: ('A' for Active; 'I' for Inactive)
REMARK    1  A    between atoms: C_1  and  O_2
REMARK    2  A    between atoms: O_2  and  C_3
REMARK    3  A    between atoms: C_3  and  C_4
REMARK    4  A    between atoms: C_4  and  N_5
REMARK    5  A    between atoms: N_5  and  C_6
REMARK                            x       y       z     vdW  Elec       q    Type
REMARK                         _______ _______ _______ _____ _____    ______ ____
ROOT
ATOM      1  C   UNL     1       2.155   6.164  20.575  0.00  0.00    +0.000 A 
ATOM      2  C   UNL     1       1.396   7.185  21.170  0.00  0.00    +0.000 A 
ATOM      3  C   UNL     1       1.176   8.444  20.596  0.00  0.00    +0.000 A 
ATOM      4  C   UNL     1       1.782   8.665  19.350  0.00  0.00    +0.000 A 
ATOM      5  C   UNL     1       2.529   7.677  18.682  0.00  0.00    +0.000 A 
ATOM      6  N   UNL     1       3.050   7.976  17.466  0.00  0.00    +0.000 NA
ATOM      7  C   UNL     1       3.796   7.046  16.833  0.00  0.00    +0.000 A 
ATOM      8  C   UNL     1       4.074   5.806  17.360  0.00  0.00    +0.000 A 
ATOM      9  C   UNL     1       3.540   5.496  18.607  0.00  0.00    +0.000 A 
ATOM     10  C   UNL     1       2.729   6.421  19.302  0.00  0.00    +0.000 A 
ATOM     11  N   UNL     1       1.896  10.004  18.818  0.00  0.00    +0.000 N 
ATOM     12  S   UNL     1       0.611  11.046  19.040  0.00  0.00    +0.000 S 
ATOM     13  O   UNL     1      -0.444  10.645  18.131  0.00  0.00    +0.000 OA
ATOM     14  O   UNL     1       1.149  12.389  19.028  0.00  0.00    +0.000 OA
ATOM     15  C   UNL     1       0.044  10.702  20.673  0.00  0.00    +0.000 A 
ATOM     16  C   UNL     1      -0.739  11.684  21.304  0.00  0.00    +0.000 A 
ATOM     17  C   UNL     1      -1.269  11.448  22.567  0.00  0.00    +0.000 A 
ATOM     18  C   UNL     1      -1.016  10.234  23.191  0.00  0.00    +0.000 A 
ATOM     19  C   UNL     1      -0.217   9.275  22.559  0.00  0.00    +0.000 A 
ATOM     20  C   UNL     1       0.349   9.477  21.279  0.00  0.00    +0.000 A 
ATOM     21  H   UNL     1       2.138   9.935  17.821  0.00  0.00    +0.000 HD
ENDROOT
BRANCH   1  22
ATOM     22  N   UNL     1       2.443   4.992  21.285  0.00  0.00    +0.000 N 
ATOM     23  H   UNL     1       3.417   4.837  21.515  0.00  0.00    +0.000 HD
BRANCH  22  24
ATOM     24  C   UNL     1       1.625   3.784  21.133  0.00  0.00    +0.000 C 
BRANCH  24  25
ATOM     25  C   UNL     1       2.419   2.600  20.576  0.00  0.00    +0.000 C 
BRANCH  25  27
ATOM     26  C   UNL     1       1.033   2.808  18.684  0.00  0.00    +0.000 C 
ATOM     27  O   UNL     1       1.651   1.908  19.592  0.00  0.00    +0.000 OA
ENDBRANCH  25  27
ENDBRANCH  24  25
ENDBRANCH  22  24
ENDBRANCH   1  22
TORSDOF 4
ENDMDL
MODEL 6
REMARK VINA RESULT:      -7.0      2.677      4.581
REMARK  Name = 
REMARK  5 active torsions:
REMARK  status: ('A' for Active; 'I' for Inactive)
REMARK    1  A    between atoms: C_1  and  O_2
REMARK    2  A    between atoms: O_2  and  C_3
REMARK    3  A    between atoms: C_3  and  C_4
REMARK    4  A    between atoms: C_4  and  N_5
REMARK    5  A    between atoms: N_5  and  C_6
REMARK                            x       y       z     vdW  Elec       q    Type
REMARK                         _______ _______ _______ _____ _____    ______ ____
ROOT
ATOM      1  C   UNL     1       2.915   5.240  20.042  0.00  0.00    +0.000 A 
ATOM      2  C   UNL     1       2.122   6.250  20.612  0.00  0.00    +0.000 A 
ATOM      3  C   UNL     1       1.901   7.504  20.029  0.00  0.00    +0.000 A 
ATOM      4  C   UNL     1       2.541   7.732  18.801  0.00  0.00    +0.000 A 
ATOM      5  C   UNL     1       3.323   6.755  18.157  0.00  0.00    +0.000 A 
ATOM      6  N   UNL     1       3.874   7.059  16.957  0.00  0.00    +0.000 NA
ATOM      7  C   UNL     1       4.654   6.140  16.349  0.00  0.00    +0.000 A 
ATOM      8  C   UNL     1       4.935   4.906  16.887  0.00  0.00    +0.000 A 
ATOM      9  C   UNL     1       4.369   4.589  18.117  0.00  0.00    +0.000 A 
ATOM     10  C   UNL     1       3.523   5.503  18.787  0.00  0.00    +0.000 A 
ATOM     11  N   UNL     1       2.650   9.072  18.270  0.00  0.00    +0.000 N 
ATOM     12  S   UNL     1       1.343  10.094  18.450  0.00  0.00    +0.000 S 
ATOM     13  O   UNL     1       0.322   9.675  17.512  0.00  0.00    +0.000 OA
ATOM     14  O   UNL     1       1.860  11.446  18.452  0.00  0.00    +0.000 OA
ATOM     15  C   UNL     1       0.732   9.744  20.067  0.00  0.00    +0.000 A 
ATOM     16  C   UNL     1      -0.084  10.716  20.672  0.00  0.00    +0.000 A 
ATOM     17  C   UNL     1      -0.648  10.474  21.919  0.00  0.00    +0.000 A 
ATOM     18  C   UNL     1      -0.396   9.264  22.553  0.00  0.00    +0.000 A 
ATOM     19  C   UNL     1       0.437   8.317  21.948  0.00  0.00    +0.000 A 
ATOM     20  C   UNL     1       1.037   8.525  20.684  0.00  0.00    +0.000 A 
ATOM     21  H   UNL     1       2.923   9.005  17.281  0.00  0.00    +0.000 HD
ENDROOT
BRANCH   1  22
ATOM     22  N   UNL     1       3.200   4.073  20.763  0.00  0.00    +0.000 N 
ATOM     23  H   UNL     1       3.818   3.409  20.312  0.00  0.00    +0.000 HD
BRANCH  22  24
ATOM     24  C   UNL     1       2.236   3.504  21.711  0.00  0.00    +0.000 C 
BRANCH  24  25
ATOM     25  C   UNL     1       1.166   2.653  21.024  0.00  0.00    +0.000 C 
BRANCH  25  27
ATOM     26  C   UNL     1       0.849   2.392  18.707  0.00  0.00    +0.000 C 
ATOM     27  O   UNL     1       1.679   2.089  19.817  0.00  0.00    +0.000 OA
ENDBRANCH  25  27
ENDBRANCH  24  25
ENDBRANCH  22  24
ENDBRANCH   1  22
TORSDOF 4
ENDMDL
MODEL 7
REMARK VINA RESULT:      -7.0      2.692      4.429
REMARK  Name = 
REMARK  5 active torsions:
REMARK  status: ('A' for Active; 'I' for Inactive)
REMARK    1  A    between atoms: C_1  and  O_2
REMARK    2  A    between atoms: O_2  and  C_3
REMARK    3  A    between atoms: C_3  and  C_4
REMARK    4  A    between atoms: C_4  and  N_5
REMARK    5  A    between atoms: N_5  and  C_6
REMARK                            x       y       z     vdW  Elec       q    Type
REMARK                         _______ _______ _______ _____ _____    ______ ____
ROOT
ATOM      1  C   UNL     1       3.554   4.864  19.362  0.00  0.00    +0.000 A 
ATOM      2  C   UNL     1       2.714   5.795  19.995  0.00  0.00    +0.000 A 
ATOM      3  C   UNL     1       2.426   7.071  19.491  0.00  0.00    +0.000 A 
ATOM      4  C   UNL     1       3.047   7.406  18.278  0.00  0.00    +0.000 A 
ATOM      5  C   UNL     1       3.874   6.511  17.574  0.00  0.00    +0.000 A 
ATOM      6  N   UNL     1       4.404   6.916  16.394  0.00  0.00    +0.000 NA
ATOM      7  C   UNL     1       5.225   6.077  15.728  0.00  0.00    +0.000 A 
ATOM      8  C   UNL     1       5.571   4.828  16.188  0.00  0.00    +0.000 A 
ATOM      9  C   UNL     1       5.028   4.408  17.398  0.00  0.00    +0.000 A 
ATOM     10  C   UNL     1       4.141   5.235  18.124  0.00  0.00    +0.000 A 
ATOM     11  N   UNL     1       3.086   8.780  17.831  0.00  0.00    +0.000 N 
ATOM     12  S   UNL     1       1.730   9.721  18.077  0.00  0.00    +0.000 S 
ATOM     13  O   UNL     1       0.727   9.310  17.116  0.00  0.00    +0.000 OA
ATOM     14  O   UNL     1       2.178  11.095  18.161  0.00  0.00    +0.000 OA
ATOM     15  C   UNL     1       1.147   9.242  19.670  0.00  0.00    +0.000 A 
ATOM     16  C   UNL     1       0.285  10.132  20.336  0.00  0.00    +0.000 A 
ATOM     17  C   UNL     1      -0.259   9.785  21.566  0.00  0.00    +0.000 A 
ATOM     18  C   UNL     1       0.057   8.554  22.124  0.00  0.00    +0.000 A 
ATOM     19  C   UNL     1       0.933   7.689  21.460  0.00  0.00    +0.000 A 
ATOM     20  C   UNL     1       1.516   8.004  20.210  0.00  0.00    +0.000 A 
ATOM     21  H   UNL     1       3.357   8.788  16.839  0.00  0.00    +0.000 HD
ENDROOT
BRANCH   1  22
ATOM     22  N   UNL     1       3.900   3.672  20.009  0.00  0.00    +0.000 N 
ATOM     23  H   UNL     1       4.889   3.453  20.044  0.00  0.00    +0.000 HD
BRANCH  22  24
ATOM     24  C   UNL     1       2.993   2.519  20.029  0.00  0.00    +0.000 C 
BRANCH  24  25
ATOM     25  C   UNL     1       2.930   1.794  18.683  0.00  0.00    +0.000 C 
BRANCH  25  27
ATOM     26  C   UNL     1       0.686   2.496  18.779  0.00  0.00    +0.000 C 
ATOM     27  O   UNL     1       1.796   2.233  17.935  0.00  0.00    +0.000 OA
ENDBRANCH  25  27
ENDBRANCH  24  25
ENDBRANCH  22  24
ENDBRANCH   1  22
TORSDOF 4
ENDMDL
MODEL 8
REMARK VINA RESULT:      -6.9      2.781      6.092
REMARK  Name = 
REMARK  5 active torsions:
REMARK  status: ('A' for Active; 'I' for Inactive)
REMARK    1  A    between atoms: C_1  and  O_2
REMARK    2  A    between atoms: O_2  and  C_3
REMARK    3  A    between atoms: C_3  and  C_4
REMARK    4  A    between atoms: C_4  and  N_5
REMARK    5  A    between atoms: N_5  and  C_6
REMARK                            x       y       z     vdW  Elec       q    Type
REMARK                         _______ _______ _______ _____ _____    ______ ____
ROOT
ATOM      1  C   UNL     1       1.603   9.788  18.542  0.00  0.00    +0.000 A 
ATOM      2  C   UNL     1       2.283   8.614  18.176  0.00  0.00    +0.000 A 
ATOM      3  C   UNL     1       2.306   7.442  18.945  0.00  0.00    +0.000 A 
ATOM      4  C   UNL     1       1.604   7.489  20.158  0.00  0.00    +0.000 A 
ATOM      5  C   UNL     1       0.875   8.620  20.572  0.00  0.00    +0.000 A 
ATOM      6  N   UNL     1       0.202   8.558  21.747  0.00  0.00    +0.000 NA
ATOM      7  C   UNL     1      -0.472   9.649  22.168  0.00  0.00    +0.000 A 
ATOM      8  C   UNL     1      -0.504  10.837  21.475  0.00  0.00    +0.000 A 
ATOM      9  C   UNL     1       0.184  10.904  20.268  0.00  0.00    +0.000 A 
ATOM     10  C   UNL     1       0.884   9.783  19.766  0.00  0.00    +0.000 A 
ATOM     11  N   UNL     1       1.817   6.477  21.168  0.00  0.00    +0.000 N 
ATOM     12  S   UNL     1       2.013   4.898  20.663  0.00  0.00    +0.000 S 
ATOM     13  O   UNL     1       0.714   4.397  20.263  0.00  0.00    +0.000 OA
ATOM     14  O   UNL     1       2.804   4.227  21.672  0.00  0.00    +0.000 OA
ATOM     15  C   UNL     1       2.991   5.024  19.201  0.00  0.00    +0.000 A 
ATOM     16  C   UNL     1       3.674   3.868  18.781  0.00  0.00    +0.000 A 
ATOM     17  C   UNL     1       4.411   3.884  17.603  0.00  0.00    +0.000 A 
ATOM     18  C   UNL     1       4.460   5.050  16.851  0.00  0.00    +0.000 A 
ATOM     19  C   UNL     1       3.793   6.197  17.293  0.00  0.00    +0.000 A 
ATOM     20  C   UNL     1       3.038   6.228  18.490  0.00  0.00    +0.000 A 
ATOM     21  H   UNL     1       1.057   6.544  21.857  0.00  0.00    +0.000 HD
ENDROOT
BRANCH   1  22
ATOM     22  N   UNL     1       1.754  10.956  17.786  0.00  0.00    +0.000 N 
ATOM     23  H   UNL     1       1.524  10.884  16.802  0.00  0.00    +0.000 HD
BRANCH  22  24
ATOM     24  C   UNL     1       2.757  11.969  18.133  0.00  0.00    +0.000 C 
BRANCH  24  25
ATOM     25  C   UNL     1       2.177  13.384  18.174  0.00  0.00    +0.000 C 
BRANCH  25  27
ATOM     26  C   UNL     1       3.525  14.805  19.479  0.00  0.00    +0.000 C 
ATOM     27  O   UNL     1       3.227  14.352  18.167  0.00  0.00    +0.000 OA
ENDBRANCH  25  27
ENDBRANCH  24  25
ENDBRANCH  22  24
ENDBRANCH   1  22
TORSDOF 4
ENDMDL
MODEL 9
REMARK VINA RESULT:      -6.9      4.286      5.909
REMARK  Name = 
REMARK  5 active torsions:
REMARK  status: ('A' for Active; 'I' for Inactive)
REMARK    1  A    between atoms: C_1  and  O_2
REMARK    2  A    between atoms: O_2  and  C_3
REMARK    3  A    between atoms: C_3  and  C_4
REMARK    4  A    between atoms: C_4  and  N_5
REMARK    5  A    between atoms: N_5  and  C_6
REMARK                            x       y       z     vdW  Elec       q    Type
REMARK                         _______ _______ _______ _____ _____    ______ ____
ROOT
ATOM      1  C   UNL     1       6.022   6.417  17.009  0.00  0.00    +0.000 A 
ATOM      2  C   UNL     1       5.068   6.091  17.988  0.00  0.00    +0.000 A 
ATOM      3  C   UNL     1       4.259   4.947  17.952  0.00  0.00    +0.000 A 
ATOM      4  C   UNL     1       4.435   4.105  16.844  0.00  0.00    +0.000 A 
ATOM      5  C   UNL     1       5.394   4.353  15.844  0.00  0.00    +0.000 A 
ATOM      6  N   UNL     1       5.510   3.463  14.828  0.00  0.00    +0.000 NA
ATOM      7  C   UNL     1       6.402   3.711  13.846  0.00  0.00    +0.000 A 
ATOM      8  C   UNL     1       7.200   4.832  13.809  0.00  0.00    +0.000 A 
ATOM      9  C   UNL     1       7.084   5.746  14.851  0.00  0.00    +0.000 A 
ATOM     10  C   UNL     1       6.185   5.524  15.918  0.00  0.00    +0.000 A 
ATOM     11  N   UNL     1       3.456   3.087  16.535  0.00  0.00    +0.000 N 
ATOM     12  S   UNL     1       2.769   2.251  17.806  0.00  0.00    +0.000 S 
ATOM     13  O   UNL     1       3.758   1.319  18.307  0.00  0.00    +0.000 OA
ATOM     14  O   UNL     1       1.466   1.805  17.364  0.00  0.00    +0.000 OA
ATOM     15  C   UNL     1       2.531   3.471  19.056  0.00  0.00    +0.000 A 
ATOM     16  C   UNL     1       1.601   3.182  20.071  0.00  0.00    +0.000 A 
ATOM     17  C   UNL     1       1.413   4.075  21.118  0.00  0.00    +0.000 A 
ATOM     18  C   UNL     1       2.154   5.249  21.149  0.00  0.00    +0.000 A 
ATOM     19  C   UNL     1       3.059   5.533  20.121  0.00  0.00    +0.000 A 
ATOM     20  C   UNL     1       3.276   4.656  19.032  0.00  0.00    +0.000 A 
ATOM     21  H   UNL     1       3.871   2.436  15.857  0.00  0.00    +0.000 HD
ENDROOT
BRANCH   1  22
ATOM     22  N   UNL     1       6.681   7.652  17.050  0.00  0.00    +0.000 N 
ATOM     23  H   UNL     1       6.611   8.223  16.217  0.00  0.00    +0.000 HD
BRANCH  22  24
ATOM     24  C   UNL     1       7.891   7.848  17.856  0.00  0.00    +0.000 C 
BRANCH  24  25
ATOM     25  C   UNL     1       8.280   9.323  17.986  0.00  0.00    +0.000 C 
BRANCH  25  27
ATOM     26  C   UNL     1       9.623  10.834  19.191  0.00  0.00    +0.000 C 
ATOM     27  O   UNL     1       9.079   9.524  19.152  0.00  0.00    +0.000 OA
ENDBRANCH  25  27
ENDBRANCH  24  25
ENDBRANCH  22  24
ENDBRANCH   1  22
TORSDOF 4
ENDMDL
