MODEL 1
REMARK VINA RESULT:      -7.7      0.000      0.000
REMARK  Name = 
REMARK  13 active torsions:
REMARK  status: ('A' for Active; 'I' for Inactive)
REMARK    1  A    between atoms: C_1  and  C_2
REMARK    2  A    between atoms: C_2  and  C_3
REMARK    3  A    between atoms: C_2  and  C_4
REMARK    4  A    between atoms: C_2  and  N_17
REMARK    5  A    between atoms: C_4  and  C_5
REMARK    6  A    between atoms: C_5  and  C_6
REMARK    7  A    between atoms: C_6  and  O_7
REMARK    8  A    between atoms: O_7  and  C_8
REMARK    9  A    between atoms: C_8  and  N_9
REMARK   10  A    between atoms: N_17  and  S_18
REMARK   11  A    between atoms: S_18  and  C_21
REMARK   12  A    between atoms: C_25  and  O_26
REMARK   13  A    between atoms: O_26  and  C_27
REMARK                            x       y       z     vdW  Elec       q    Type
REMARK                         _______ _______ _______ _____ _____    ______ ____
ROOT
ATOM      1  C   UNL     1       0.772   4.413  20.442  0.00  0.00    +0.000 C 
ATOM      2  C   UNL     1       2.115   4.706  19.710  0.00  0.00    +0.000 C 
ATOM      3  C   UNL     1       1.822   4.648  18.208  0.00  0.00    +0.000 C 
ENDROOT
BRANCH   2   4
ATOM      4  N   UNL     1       2.999   3.584  20.126  0.00  0.00    +0.000 NA
ATOM      5  H   UNL     1       2.563   2.891  20.741  0.00  0.00    +0.000 HD
BRANCH   4   6
ATOM      6  S   UNL     1       4.145   2.787  19.195  0.00  0.00    +0.000 S 
ATOM      7  O   UNL     1       5.021   2.142  20.149  0.00  0.00    +0.000 OA
ATOM      8  O   UNL     1       3.480   2.031  18.161  0.00  0.00    +0.000 OA
BRANCH   6   9
ATOM      9  C   UNL     1       5.119   4.066  18.432  0.00  0.00    +0.000 A 
ATOM     10  C   UNL     1       5.832   4.995  19.191  0.00  0.00    +0.000 A 
ATOM     11  C   UNL     1       6.419   6.085  18.553  0.00  0.00    +0.000 A 
ATOM     12  C   UNL     1       6.355   6.197  17.158  0.00  0.00    +0.000 A 
ATOM     13  C   UNL     1       5.706   5.222  16.386  0.00  0.00    +0.000 A 
ATOM     14  C   UNL     1       5.065   4.169  17.035  0.00  0.00    +0.000 A 
BRANCH  13  15
ATOM     15  O   UNL     1       5.769   5.384  15.024  0.00  0.00    +0.000 OA
BRANCH  15  16
ATOM     16  C   UNL     1       6.336   4.324  14.229  0.00  0.00    +0.000 C 
ATOM     17  C   UNL     1       5.290   3.750  13.308  0.00  0.00    +0.000 C 
ATOM     18  C   UNL     1       6.019   3.150  12.127  0.00  0.00    +0.000 C 
ATOM     19  C   UNL     1       7.185   4.100  11.908  0.00  0.00    +0.000 C 
ATOM     20  C   UNL     1       7.330   4.909  13.208  0.00  0.00    +0.000 C 
ENDBRANCH  15  16
ENDBRANCH  13  15
ENDBRANCH   6   9
ENDBRANCH   4   6
ENDBRANCH   2   4
BRANCH   2  21
ATOM     21  C   UNL     1       2.583   6.112  20.184  0.00  0.00    +0.000 C 
BRANCH  21  22
ATOM     22  C   UNL     1       1.816   7.339  19.672  0.00  0.00    +0.000 C 
BRANCH  22  23
ATOM     23  C   UNL     1       1.469   8.348  20.771  0.00  0.00    +0.000 C 
BRANCH  23  24
ATOM     24  O   UNL     1       0.582   9.323  20.212  0.00  0.00    +0.000 OA
BRANCH  24  25
ATOM     25  C   UNL     1       0.909   9.655  18.857  0.00  0.00    +0.000 C 
BRANCH  25  26
ATOM     26  N   UNL     1       0.569  11.051  18.567  0.00  0.00    +0.000 N 
ATOM     27  C   UNL     1       1.538  11.990  18.780  0.00  0.00    +0.000 A 
ATOM     28  C   UNL     1       1.224  13.271  18.980  0.00  0.00    +0.000 A 
ATOM     29  C   UNL     1      -0.118  13.754  18.748  0.00  0.00    +0.000 A 
ATOM     30  O   UNL     1      -0.397  14.938  18.883  0.00  0.00    +0.000 OA
ATOM     31  N   UNL     1      -1.002  12.786  18.392  0.00  0.00    +0.000 N 
ATOM     32  C   UNL     1      -0.758  11.433  18.460  0.00  0.00    +0.000 A 
ATOM     33  O   UNL     1      -1.697  10.638  18.419  0.00  0.00    +0.000 OA
ATOM     34  H   UNL     1      -1.959  13.077  18.316  0.00  0.00    +0.000 HD
ENDBRANCH  25  26
ENDBRANCH  24  25
ENDBRANCH  23  24
ENDBRANCH  22  23
ENDBRANCH  21  22
ENDBRANCH   2  21
TORSDOF 11
ENDMDL
MODEL 2
REMARK VINA RESULT:      -7.2      4.954      8.743
REMARK  Name = 
REMARK  13 active torsions:
REMARK  status: ('A' for Active; 'I' for Inactive)
REMARK    1  A    between atoms: C_1  and  C_2
REMARK    2  A    between atoms: C_2  and  C_3
REMARK    3  A    between atoms: C_2  and  C_4
REMARK    4  A    between atoms: C_2  and  N_17
REMARK    5  A    between atoms: C_4  and  C_5
REMARK    6  A    between atoms: C_5  and  C_6
REMARK    7  A    between atoms: C_6  and  O_7
REMARK    8  A    between atoms: O_7  and  C_8
REMARK    9  A    between atoms: C_8  and  N_9
REMARK   10  A    between atoms: N_17  and  S_18
REMARK   11  A    between atoms: S_18  and  C_21
REMARK   12  A    between atoms: C_25  and  O_26
REMARK   13  A    between atoms: O_26  and  C_27
REMARK                            x       y       z     vdW  Elec       q    Type
REMARK                         _______ _______ _______ _____ _____    ______ ____
ROOT
ATOM      1  C   UNL     1       5.119   6.754  15.743  0.00  0.00    +0.000 C 
ATOM      2  C   UNL     1       5.462   5.753  16.886  0.00  0.00    +0.000 C 
ATOM      3  C   UNL     1       6.343   4.662  16.269  0.00  0.00    +0.000 C 
ENDROOT
BRANCH   2   4
ATOM      4  N   UNL     1       4.137   5.206  17.289  0.00  0.00    +0.000 NA
ATOM      5  H   UNL     1       3.868   4.334  16.826  0.00  0.00    +0.000 HD
BRANCH   4   6
ATOM      6  S   UNL     1       3.460   5.197  18.824  0.00  0.00    +0.000 S 
ATOM      7  O   UNL     1       2.466   4.147  18.789  0.00  0.00    +0.000 OA
ATOM      8  O   UNL     1       4.513   5.198  19.812  0.00  0.00    +0.000 OA
BRANCH   6   9
ATOM      9  C   UNL     1       2.551   6.721  18.957  0.00  0.00    +0.000 A 
ATOM     10  C   UNL     1       2.273   7.508  17.839  0.00  0.00    +0.000 A 
ATOM     11  C   UNL     1       1.729   8.778  18.020  0.00  0.00    +0.000 A 
ATOM     12  C   UNL     1       1.397   9.218  19.308  0.00  0.00    +0.000 A 
ATOM     13  C   UNL     1       1.602   8.398  20.425  0.00  0.00    +0.000 A 
ATOM     14  C   UNL     1       2.206   7.155  20.244  0.00  0.00    +0.000 A 
BRANCH  13  15
ATOM     15  O   UNL     1       1.170   8.892  21.631  0.00  0.00    +0.000 OA
BRANCH  15  16
ATOM     16  C   UNL     1      -0.045   9.667  21.662  0.00  0.00    +0.000 C 
ATOM     17  C   UNL     1      -0.571   9.750  23.073  0.00  0.00    +0.000 C 
ATOM     18  C   UNL     1      -1.401  11.011  23.164  0.00  0.00    +0.000 C 
ATOM     19  C   UNL     1      -0.655  11.993  22.276  0.00  0.00    +0.000 C 
ATOM     20  C   UNL     1       0.272  11.149  21.385  0.00  0.00    +0.000 C 
ENDBRANCH  15  16
ENDBRANCH  13  15
ENDBRANCH   6   9
ENDBRANCH   4   6
ENDBRANCH   2   4
BRANCH   2  21
ATOM     21  C   UNL     1       6.190   6.571  17.990  0.00  0.00    +0.000 C 
BRANCH  21  22
ATOM     22  C   UNL     1       7.544   7.206  17.643  0.00  0.00    +0.000 C 
BRANCH  22  23
ATOM     23  C   UNL     1       7.543   8.736  17.729  0.00  0.00    +0.000 C 
BRANCH  23  24
ATOM     24  O   UNL     1       8.717   9.140  18.441  0.00  0.00    +0.000 OA
BRANCH  24  25
ATOM     25  C   UNL     1       8.659  10.505  18.873  0.00  0.00    +0.000 C 
BRANCH  25  26
ATOM     26  N   UNL     1       9.597  11.332  18.109  0.00  0.00    +0.000 N 
ATOM     27  C   UNL     1      10.931  11.127  18.323  0.00  0.00    +0.000 A 
ATOM     28  C   UNL     1      11.827  12.077  18.047  0.00  0.00    +0.000 A 
ATOM     29  C   UNL     1      11.456  13.256  17.299  0.00  0.00    +0.000 A 
ATOM     30  O   UNL     1      12.286  14.105  17.001  0.00  0.00    +0.000 OA
ATOM     31  N   UNL     1      10.135  13.323  16.988  0.00  0.00    +0.000 N 
ATOM     32  C   UNL     1       9.161  12.501  17.509  0.00  0.00    +0.000 A 
ATOM     33  O   UNL     1       7.976  12.822  17.419  0.00  0.00    +0.000 OA
ATOM     34  H   UNL     1       9.833  14.174  16.551  0.00  0.00    +0.000 HD
ENDBRANCH  25  26
ENDBRANCH  24  25
ENDBRANCH  23  24
ENDBRANCH  22  23
ENDBRANCH  21  22
ENDBRANCH   2  21
TORSDOF 11
ENDMDL
MODEL 3
REMARK VINA RESULT:      -7.2      4.777      8.053
REMARK  Name = 
REMARK  13 active torsions:
REMARK  status: ('A' for Active; 'I' for Inactive)
REMARK    1  A    between atoms: C_1  and  C_2
REMARK    2  A    between atoms: C_2  and  C_3
REMARK    3  A    between atoms: C_2  and  C_4
REMARK    4  A    between atoms: C_2  and  N_17
REMARK    5  A    between atoms: C_4  and  C_5
REMARK    6  A    between atoms: C_5  and  C_6
REMARK    7  A    between atoms: C_6  and  O_7
REMARK    8  A    between atoms: O_7  and  C_8
REMARK    9  A    between atoms: C_8  and  N_9
REMARK   10  A    between atoms: N_17  and  S_18
REMARK   11  A    between atoms: S_18  and  C_21
REMARK   12  A    between atoms: C_25  and  O_26
REMARK   13  A    between atoms: O_26  and  C_27
REMARK                            x       y       z     vdW  Elec       q    Type
REMARK                         _______ _______ _______ _____ _____    ______ ____
ROOT
ATOM      1  C   UNL     1       5.763   6.637  15.575  0.00  0.00    +0.000 C 
ATOM      2  C   UNL     1       6.188   5.596  16.652  0.00  0.00    +0.000 C 
ATOM      3  C   UNL     1       6.854   4.435  15.908  0.00  0.00    +0.000 C 
ENDROOT
BRANCH   2   4
ATOM      4  N   UNL     1       4.899   5.171  17.264  0.00  0.00    +0.000 NA
ATOM      5  H   UNL     1       4.112   5.101  16.613  0.00  0.00    +0.000 HD
BRANCH   4   6
ATOM      6  S   UNL     1       4.668   4.024  18.467  0.00  0.00    +0.000 S 
ATOM      7  O   UNL     1       4.110   2.876  17.788  0.00  0.00    +0.000 OA
ATOM      8  O   UNL     1       5.870   3.913  19.259  0.00  0.00    +0.000 OA
BRANCH   6   9
ATOM      9  C   UNL     1       3.363   4.661  19.495  0.00  0.00    +0.000 A 
ATOM     10  C   UNL     1       2.494   3.814  20.184  0.00  0.00    +0.000 A 
ATOM     11  C   UNL     1       1.378   4.356  20.817  0.00  0.00    +0.000 A 
ATOM     12  C   UNL     1       1.181   5.743  20.822  0.00  0.00    +0.000 A 
ATOM     13  C   UNL     1       2.096   6.603  20.197  0.00  0.00    +0.000 A 
ATOM     14  C   UNL     1       3.175   6.050  19.510  0.00  0.00    +0.000 A 
BRANCH  13  15
ATOM     15  O   UNL     1       1.853   7.948  20.327  0.00  0.00    +0.000 OA
BRANCH  15  16
ATOM     16  C   UNL     1       0.706   8.370  21.090  0.00  0.00    +0.000 C 
ATOM     17  C   UNL     1       1.150   9.038  22.367  0.00  0.00    +0.000 C 
ATOM     18  C   UNL     1       0.042   9.978  22.785  0.00  0.00    +0.000 C 
ATOM     19  C   UNL     1      -0.489  10.513  21.465  0.00  0.00    +0.000 C 
ATOM     20  C   UNL     1       0.007   9.545  20.378  0.00  0.00    +0.000 C 
ENDBRANCH  15  16
ENDBRANCH  13  15
ENDBRANCH   6   9
ENDBRANCH   4   6
ENDBRANCH   2   4
BRANCH   2  21
ATOM     21  C   UNL     1       7.156   6.331  17.624  0.00  0.00    +0.000 C 
BRANCH  21  22
ATOM     22  C   UNL     1       7.683   7.711  17.210  0.00  0.00    +0.000 C 
BRANCH  22  23
ATOM     23  C   UNL     1       8.336   8.488  18.357  0.00  0.00    +0.000 C 
BRANCH  23  24
ATOM     24  O   UNL     1       8.085   9.882  18.147  0.00  0.00    +0.000 OA
BRANCH  24  25
ATOM     25  C   UNL     1       9.289  10.653  18.059  0.00  0.00    +0.000 C 
BRANCH  25  26
ATOM     26  N   UNL     1       9.124  11.953  18.716  0.00  0.00    +0.000 N 
ATOM     27  C   UNL     1       9.018  13.053  17.912  0.00  0.00    +0.000 A 
ATOM     28  C   UNL     1       9.310  14.272  18.370  0.00  0.00    +0.000 A 
ATOM     29  C   UNL     1       9.516  14.507  19.780  0.00  0.00    +0.000 A 
ATOM     30  O   UNL     1       9.734  15.632  20.210  0.00  0.00    +0.000 OA
ATOM     31  N   UNL     1       9.459  13.385  20.545  0.00  0.00    +0.000 N 
ATOM     32  C   UNL     1       9.445  12.099  20.055  0.00  0.00    +0.000 A 
ATOM     33  O   UNL     1       9.704  11.156  20.802  0.00  0.00    +0.000 OA
ATOM     34  H   UNL     1       9.692  13.506  21.513  0.00  0.00    +0.000 HD
ENDBRANCH  25  26
ENDBRANCH  24  25
ENDBRANCH  23  24
ENDBRANCH  22  23
ENDBRANCH  21  22
ENDBRANCH   2  21
TORSDOF 11
ENDMDL
MODEL 4
REMARK VINA RESULT:      -7.2      1.444      1.827
REMARK  Name = 
REMARK  13 active torsions:
REMARK  status: ('A' for Active; 'I' for Inactive)
REMARK    1  A    between atoms: C_1  and  C_2
REMARK    2  A    between atoms: C_2  and  C_3
REMARK    3  A    between atoms: C_2  and  C_4
REMARK    4  A    between atoms: C_2  and  N_17
REMARK    5  A    between atoms: C_4  and  C_5
REMARK    6  A    between atoms: C_5  and  C_6
REMARK    7  A    between atoms: C_6  and  O_7
REMARK    8  A    between atoms: O_7  and  C_8
REMARK    9  A    between atoms: C_8  and  N_9
REMARK   10  A    between atoms: N_17  and  S_18
REMARK   11  A    between atoms: S_18  and  C_21
REMARK   12  A    between atoms: C_25  and  O_26
REMARK   13  A    between atoms: O_26  and  C_27
REMARK                            x       y       z     vdW  Elec       q    Type
REMARK                         _______ _______ _______ _____ _____    ______ ____
ROOT
ATOM      1  C   UNL     1       2.331   3.368  21.804  0.00  0.00    +0.000 C 
ATOM      2  C   UNL     1       2.062   3.668  20.299  0.00  0.00    +0.000 C 
ATOM      3  C   UNL     1       0.630   3.211  20.007  0.00  0.00    +0.000 C 
ENDROOT
BRANCH   2   4
ATOM      4  N   UNL     1       3.051   2.816  19.584  0.00  0.00    +0.000 NA
ATOM      5  H   UNL     1       3.051   1.828  19.854  0.00  0.00    +0.000 HD
BRANCH   4   6
ATOM      6  S   UNL     1       3.493   2.900  17.968  0.00  0.00    +0.000 S 
ATOM      7  O   UNL     1       3.869   1.550  17.611  0.00  0.00    +0.000 OA
ATOM      8  O   UNL     1       2.476   3.613  17.231  0.00  0.00    +0.000 OA
BRANCH   6   9
ATOM      9  C   UNL     1       4.997   3.849  17.929  0.00  0.00    +0.000 A 
ATOM     10  C   UNL     1       5.428   4.584  19.034  0.00  0.00    +0.000 A 
ATOM     11  C   UNL     1       6.504   5.458  18.891  0.00  0.00    +0.000 A 
ATOM     12  C   UNL     1       7.187   5.531  17.670  0.00  0.00    +0.000 A 
ATOM     13  C   UNL     1       6.805   4.735  16.581  0.00  0.00    +0.000 A 
ATOM     14  C   UNL     1       5.688   3.911  16.711  0.00  0.00    +0.000 A 
BRANCH  13  15
ATOM     15  O   UNL     1       7.588   4.825  15.457  0.00  0.00    +0.000 OA
BRANCH  15  16
ATOM     16  C   UNL     1       6.945   5.042  14.185  0.00  0.00    +0.000 C 
ATOM     17  C   UNL     1       7.981   5.243  13.109  0.00  0.00    +0.000 C 
ATOM     18  C   UNL     1       7.344   4.839  11.798  0.00  0.00    +0.000 C 
ATOM     19  C   UNL     1       6.459   3.664  12.180  0.00  0.00    +0.000 C 
ATOM     20  C   UNL     1       6.279   3.738  13.706  0.00  0.00    +0.000 C 
ENDBRANCH  15  16
ENDBRANCH  13  15
ENDBRANCH   6   9
ENDBRANCH   4   6
ENDBRANCH   2   4
BRANCH   2  21
ATOM     21  C   UNL     1       2.264   5.198  20.107  0.00  0.00    +0.000 C 
BRANCH  21  22
ATOM     22  C   UNL     1       1.290   6.149  20.817  0.00  0.00    +0.000 C 
BRANCH  22  23
ATOM     23  C   UNL     1       1.798   7.591  20.909  0.00  0.00    +0.000 C 
BRANCH  23  24
ATOM     24  O   UNL     1       0.730   8.462  20.520  0.00  0.00    +0.000 OA
BRANCH  24  25
ATOM     25  C   UNL     1       1.130   9.419  19.532  0.00  0.00    +0.000 C 
BRANCH  25  26
ATOM     26  N   UNL     1       0.345  10.651  19.654  0.00  0.00    +0.000 N 
ATOM     27  C   UNL     1      -0.299  11.097  18.535  0.00  0.00    +0.000 A 
ATOM     28  C   UNL     1      -0.649  12.379  18.406  0.00  0.00    +0.000 A 
ATOM     29  C   UNL     1      -0.576  13.286  19.528  0.00  0.00    +0.000 A 
ATOM     30  O   UNL     1      -0.944  14.450  19.426  0.00  0.00    +0.000 OA
ATOM     31  N   UNL     1      -0.063  12.733  20.657  0.00  0.00    +0.000 N 
ATOM     32  C   UNL     1       0.561  11.508  20.720  0.00  0.00    +0.000 A 
ATOM     33  O   UNL     1       1.259  11.226  21.693  0.00  0.00    +0.000 OA
ATOM     34  H   UNL     1       0.086  13.365  21.422  0.00  0.00    +0.000 HD
ENDBRANCH  25  26
ENDBRANCH  24  25
ENDBRANCH  23  24
ENDBRANCH  22  23
ENDBRANCH  21  22
ENDBRANCH   2  21
TORSDOF 11
ENDMDL
MODEL 5
REMARK VINA RESULT:      -7.1      4.425      7.227
REMARK  Name = 
REMARK  13 active torsions:
REMARK  status: ('A' for Active; 'I' for Inactive)
REMARK    1  A    between atoms: C_1  and  C_2
REMARK    2  A    between atoms: C_2  and  C_3
REMARK    3  A    between atoms: C_2  and  C_4
REMARK    4  A    between atoms: C_2  and  N_17
REMARK    5  A    between atoms: C_4  and  C_5
REMARK    6  A    between atoms: C_5  and  C_6
REMARK    7  A    between atoms: C_6  and  O_7
REMARK    8  A    between atoms: O_7  and  C_8
REMARK    9  A    between atoms: C_8  and  N_9
REMARK   10  A    between atoms: N_17  and  S_18
REMARK   11  A    between atoms: S_18  and  C_21
REMARK   12  A    between atoms: C_25  and  O_26
REMARK   13  A    between atoms: O_26  and  C_27
REMARK                            x       y       z     vdW  Elec       q    Type
REMARK                         _______ _______ _______ _____ _____    ______ ____
ROOT
ATOM      1  C   UNL     1       0.649  12.583  20.968  0.00  0.00    +0.000 C 
ATOM      2  C   UNL     1      -0.804  12.053  21.150  0.00  0.00    +0.000 C 
ATOM      3  C   UNL     1      -1.120  12.134  22.647  0.00  0.00    +0.000 C 
ENDROOT
BRANCH   2   4
ATOM      4  N   UNL     1      -0.725  10.637  20.697  0.00  0.00    +0.000 NA
ATOM      5  H   UNL     1      -0.707  10.505  19.682  0.00  0.00    +0.000 HD
BRANCH   4   6
ATOM      6  S   UNL     1       0.163   9.391  21.387  0.00  0.00    +0.000 S 
ATOM      7  O   UNL     1       1.056  10.041  22.322  0.00  0.00    +0.000 OA
ATOM      8  O   UNL     1      -0.733   8.343  21.814  0.00  0.00    +0.000 OA
BRANCH   6   9
ATOM      9  C   UNL     1       1.201   8.762  20.086  0.00  0.00    +0.000 A 
ATOM     10  C   UNL     1       1.392   9.467  18.897  0.00  0.00    +0.000 A 
ATOM     11  C   UNL     1       2.054   8.847  17.839  0.00  0.00    +0.000 A 
ATOM     12  C   UNL     1       2.585   7.561  18.005  0.00  0.00    +0.000 A 
ATOM     13  C   UNL     1       2.462   6.882  19.225  0.00  0.00    +0.000 A 
ATOM     14  C   UNL     1       1.743   7.481  20.257  0.00  0.00    +0.000 A 
BRANCH  13  15
ATOM     15  O   UNL     1       3.086   5.661  19.308  0.00  0.00    +0.000 OA
BRANCH  15  16
ATOM     16  C   UNL     1       2.606   4.585  18.478  0.00  0.00    +0.000 C 
ATOM     17  C   UNL     1       3.635   3.485  18.409  0.00  0.00    +0.000 C 
ATOM     18  C   UNL     1       2.894   2.203  18.105  0.00  0.00    +0.000 C 
ATOM     19  C   UNL     1       1.589   2.355  18.869  0.00  0.00    +0.000 C 
ATOM     20  C   UNL     1       1.449   3.854  19.186  0.00  0.00    +0.000 C 
ENDBRANCH  15  16
ENDBRANCH  13  15
ENDBRANCH   6   9
ENDBRANCH   4   6
ENDBRANCH   2   4
BRANCH   2  21
ATOM     21  C   UNL     1      -1.722  12.961  20.283  0.00  0.00    +0.000 C 
BRANCH  21  22
ATOM     22  C   UNL     1      -3.019  12.357  19.729  0.00  0.00    +0.000 C 
BRANCH  22  23
ATOM     23  C   UNL     1      -4.287  12.998  20.301  0.00  0.00    +0.000 C 
BRANCH  23  24
ATOM     24  O   UNL     1      -4.634  12.298  21.502  0.00  0.00    +0.000 OA
BRANCH  24  25
ATOM     25  C   UNL     1      -5.601  13.001  22.291  0.00  0.00    +0.000 C 
BRANCH  25  26
ATOM     26  N   UNL     1      -4.950  13.726  23.387  0.00  0.00    +0.000 N 
ATOM     27  C   UNL     1      -4.585  15.022  23.151  0.00  0.00    +0.000 A 
ATOM     28  C   UNL     1      -3.627  15.609  23.871  0.00  0.00    +0.000 A 
ATOM     29  C   UNL     1      -3.108  14.987  25.067  0.00  0.00    +0.000 A 
ATOM     30  O   UNL     1      -2.265  15.546  25.757  0.00  0.00    +0.000 OA
ATOM     31  N   UNL     1      -3.626  13.758  25.324  0.00  0.00    +0.000 N 
ATOM     32  C   UNL     1      -4.393  13.028  24.445  0.00  0.00    +0.000 A 
ATOM     33  O   UNL     1      -4.557  11.822  24.630  0.00  0.00    +0.000 OA
ATOM     34  H   UNL     1      -3.215  13.265  26.095  0.00  0.00    +0.000 HD
ENDBRANCH  25  26
ENDBRANCH  24  25
ENDBRANCH  23  24
ENDBRANCH  22  23
ENDBRANCH  21  22
ENDBRANCH   2  21
TORSDOF 11
ENDMDL
MODEL 6
REMARK VINA RESULT:      -6.9      4.657      8.077
REMARK  Name = 
REMARK  13 active torsions:
REMARK  status: ('A' for Active; 'I' for Inactive)
REMARK    1  A    between atoms: C_1  and  C_2
REMARK    2  A    between atoms: C_2  and  C_3
REMARK    3  A    between atoms: C_2  and  C_4
REMARK    4  A    between atoms: C_2  and  N_17
REMARK    5  A    between atoms: C_4  and  C_5
REMARK    6  A    between atoms: C_5  and  C_6
REMARK    7  A    between atoms: C_6  and  O_7
REMARK    8  A    between atoms: O_7  and  C_8
REMARK    9  A    between atoms: C_8  and  N_9
REMARK   10  A    between atoms: N_17  and  S_18
REMARK   11  A    between atoms: S_18  and  C_21
REMARK   12  A    between atoms: C_25  and  O_26
REMARK   13  A    between atoms: O_26  and  C_27
REMARK                            x       y       z     vdW  Elec       q    Type
REMARK                         _______ _______ _______ _____ _____    ______ ____
ROOT
ATOM      1  C   UNL     1       5.743   6.566  15.475  0.00  0.00    +0.000 C 
ATOM      2  C   UNL     1       6.125   5.469  16.513  0.00  0.00    +0.000 C 
ATOM      3  C   UNL     1       6.646   4.269  15.716  0.00  0.00    +0.000 C 
ENDROOT
BRANCH   2   4
ATOM      4  N   UNL     1       4.835   5.147  17.182  0.00  0.00    +0.000 NA
ATOM      5  H   UNL     1       4.010   5.184  16.577  0.00  0.00    +0.000 HD
BRANCH   4   6
ATOM      6  S   UNL     1       4.554   3.977  18.352  0.00  0.00    +0.000 S 
ATOM      7  O   UNL     1       3.984   2.859  17.634  0.00  0.00    +0.000 OA
ATOM      8  O   UNL     1       5.737   3.820  19.164  0.00  0.00    +0.000 OA
BRANCH   6   9
ATOM      9  C   UNL     1       3.243   4.619  19.369  0.00  0.00    +0.000 A 
ATOM     10  C   UNL     1       2.268   3.785  19.918  0.00  0.00    +0.000 A 
ATOM     11  C   UNL     1       1.162   4.355  20.545  0.00  0.00    +0.000 A 
ATOM     12  C   UNL     1       1.077   5.747  20.684  0.00  0.00    +0.000 A 
ATOM     13  C   UNL     1       2.095   6.582  20.202  0.00  0.00    +0.000 A 
ATOM     14  C   UNL     1       3.167   6.010  19.520  0.00  0.00    +0.000 A 
BRANCH  13  15
ATOM     15  O   UNL     1       1.954   7.924  20.459  0.00  0.00    +0.000 OA
BRANCH  15  16
ATOM     16  C   UNL     1       0.732   8.383  21.070  0.00  0.00    +0.000 C 
ATOM     17  C   UNL     1       1.031   9.050  22.389  0.00  0.00    +0.000 C 
ATOM     18  C   UNL     1      -0.095  10.023  22.660  0.00  0.00    +0.000 C 
ATOM     19  C   UNL     1      -0.442  10.560  21.281  0.00  0.00    +0.000 C 
ATOM     20  C   UNL     1       0.160   9.569  20.270  0.00  0.00    +0.000 C 
ENDBRANCH  15  16
ENDBRANCH  13  15
ENDBRANCH   6   9
ENDBRANCH   4   6
ENDBRANCH   2   4
BRANCH   2  21
ATOM     21  C   UNL     1       7.202   6.094  17.446  0.00  0.00    +0.000 C 
BRANCH  21  22
ATOM     22  C   UNL     1       7.824   7.434  17.032  0.00  0.00    +0.000 C 
BRANCH  22  23
ATOM     23  C   UNL     1       7.312   8.626  17.846  0.00  0.00    +0.000 C 
BRANCH  23  24
ATOM     24  O   UNL     1       8.443   9.278  18.436  0.00  0.00    +0.000 OA
BRANCH  24  25
ATOM     25  C   UNL     1       8.854  10.439  17.704  0.00  0.00    +0.000 C 
BRANCH  25  26
ATOM     26  N   UNL     1       9.431  11.443  18.603  0.00  0.00    +0.000 N 
ATOM     27  C   UNL     1      10.089  10.988  19.711  0.00  0.00    +0.000 A 
ATOM     28  C   UNL     1      10.250  11.764  20.784  0.00  0.00    +0.000 A 
ATOM     29  C   UNL     1       9.949  13.176  20.733  0.00  0.00    +0.000 A 
ATOM     30  O   UNL     1      10.143  13.901  21.700  0.00  0.00    +0.000 OA
ATOM     31  N   UNL     1       9.435  13.592  19.546  0.00  0.00    +0.000 N 
ATOM     32  C   UNL     1       9.001  12.757  18.541  0.00  0.00    +0.000 A 
ATOM     33  O   UNL     1       8.276  13.198  17.649  0.00  0.00    +0.000 OA
ATOM     34  H   UNL     1       9.129  14.547  19.515  0.00  0.00    +0.000 HD
ENDBRANCH  25  26
ENDBRANCH  24  25
ENDBRANCH  23  24
ENDBRANCH  22  23
ENDBRANCH  21  22
ENDBRANCH   2  21
TORSDOF 11
ENDMDL
MODEL 7
REMARK VINA RESULT:      -6.9      3.726     10.635
REMARK  Name = 
REMARK  13 active torsions:
REMARK  status: ('A' for Active; 'I' for Inactive)
REMARK    1  A    between atoms: C_1  and  C_2
REMARK    2  A    between atoms: C_2  and  C_3
REMARK    3  A    between atoms: C_2  and  C_4
REMARK    4  A    between atoms: C_2  and  N_17
REMARK    5  A    between atoms: C_4  and  C_5
REMARK    6  A    between atoms: C_5  and  C_6
REMARK    7  A    between atoms: C_6  and  O_7
REMARK    8  A    between atoms: O_7  and  C_8
REMARK    9  A    between atoms: C_8  and  N_9
REMARK   10  A    between atoms: N_17  and  S_18
REMARK   11  A    between atoms: S_18  and  C_21
REMARK   12  A    between atoms: C_25  and  O_26
REMARK   13  A    between atoms: O_26  and  C_27
REMARK                            x       y       z     vdW  Elec       q    Type
REMARK                         _______ _______ _______ _____ _____    ______ ____
ROOT
ATOM      1  C   UNL     1      -0.265   9.559  22.652  0.00  0.00    +0.000 C 
ATOM      2  C   UNL     1       0.523   9.599  21.309  0.00  0.00    +0.000 C 
ATOM      3  C   UNL     1       1.482  10.791  21.394  0.00  0.00    +0.000 C 
ENDROOT
BRANCH   2   4
ATOM      4  N   UNL     1      -0.531   9.834  20.285  0.00  0.00    +0.000 NA
ATOM      5  H   UNL     1      -1.367   9.251  20.379  0.00  0.00    +0.000 HD
BRANCH   4   6
ATOM      6  S   UNL     1      -1.008  11.303  19.628  0.00  0.00    +0.000 S 
ATOM      7  O   UNL     1      -1.787  11.942  20.666  0.00  0.00    +0.000 OA
ATOM      8  O   UNL     1       0.136  11.959  19.041  0.00  0.00    +0.000 OA
BRANCH   6   9
ATOM      9  C   UNL     1      -2.162  10.900  18.335  0.00  0.00    +0.000 A 
ATOM     10  C   UNL     1      -1.878   9.924  17.379  0.00  0.00    +0.000 A 
ATOM     11  C   UNL     1      -2.726   9.781  16.282  0.00  0.00    +0.000 A 
ATOM     12  C   UNL     1      -3.887  10.560  16.190  0.00  0.00    +0.000 A 
ATOM     13  C   UNL     1      -4.215  11.486  17.190  0.00  0.00    +0.000 A 
ATOM     14  C   UNL     1      -3.330  11.670  18.252  0.00  0.00    +0.000 A 
BRANCH  13  15
ATOM     15  O   UNL     1      -5.413  12.140  17.045  0.00  0.00    +0.000 OA
BRANCH  15  16
ATOM     16  C   UNL     1      -6.398  12.015  18.090  0.00  0.00    +0.000 C 
ATOM     17  C   UNL     1      -6.537  10.572  18.500  0.00  0.00    +0.000 C 
ATOM     18  C   UNL     1      -7.043  10.562  19.925  0.00  0.00    +0.000 C 
ATOM     19  C   UNL     1      -6.349  11.758  20.557  0.00  0.00    +0.000 C 
ATOM     20  C   UNL     1      -5.860  12.636  19.393  0.00  0.00    +0.000 C 
ENDBRANCH  15  16
ENDBRANCH  13  15
ENDBRANCH   6   9
ENDBRANCH   4   6
ENDBRANCH   2   4
BRANCH   2  21
ATOM     21  C   UNL     1       1.258   8.234  21.182  0.00  0.00    +0.000 C 
BRANCH  21  22
ATOM     22  C   UNL     1       1.871   7.868  19.824  0.00  0.00    +0.000 C 
BRANCH  22  23
ATOM     23  C   UNL     1       2.172   6.374  19.669  0.00  0.00    +0.000 C 
BRANCH  23  24
ATOM     24  O   UNL     1       3.540   6.238  19.269  0.00  0.00    +0.000 OA
BRANCH  24  25
ATOM     25  C   UNL     1       4.083   4.951  19.589  0.00  0.00    +0.000 C 
BRANCH  25  26
ATOM     26  N   UNL     1       5.163   4.598  18.663  0.00  0.00    +0.000 N 
ATOM     27  C   UNL     1       6.341   5.279  18.785  0.00  0.00    +0.000 A 
ATOM     28  C   UNL     1       7.195   5.367  17.763  0.00  0.00    +0.000 A 
ATOM     29  C   UNL     1       7.024   4.557  16.579  0.00  0.00    +0.000 A 
ATOM     30  O   UNL     1       7.833   4.599  15.661  0.00  0.00    +0.000 OA
ATOM     31  N   UNL     1       5.905   3.788  16.589  0.00  0.00    +0.000 N 
ATOM     32  C   UNL     1       4.879   3.902  17.500  0.00  0.00    +0.000 A 
ATOM     33  O   UNL     1       3.785   3.393  17.258  0.00  0.00    +0.000 OA
ATOM     34  H   UNL     1       5.713   3.287  15.741  0.00  0.00    +0.000 HD
ENDBRANCH  25  26
ENDBRANCH  24  25
ENDBRANCH  23  24
ENDBRANCH  22  23
ENDBRANCH  21  22
ENDBRANCH   2  21
TORSDOF 11
ENDMDL
MODEL 8
REMARK VINA RESULT:      -6.8      4.924      8.263
REMARK  Name = 
REMARK  13 active torsions:
REMARK  status: ('A' for Active; 'I' for Inactive)
REMARK    1  A    between atoms: C_1  and  C_2
REMARK    2  A    between atoms: C_2  and  C_3
REMARK    3  A    between atoms: C_2  and  C_4
REMARK    4  A    between atoms: C_2  and  N_17
REMARK    5  A    between atoms: C_4  and  C_5
REMARK    6  A    between atoms: C_5  and  C_6
REMARK    7  A    between atoms: C_6  and  O_7
REMARK    8  A    between atoms: O_7  and  C_8
REMARK    9  A    between atoms: C_8  and  N_9
REMARK   10  A    between atoms: N_17  and  S_18
REMARK   11  A    between atoms: S_18  and  C_21
REMARK   12  A    between atoms: C_25  and  O_26
REMARK   13  A    between atoms: O_26  and  C_27
REMARK                            x       y       z     vdW  Elec       q    Type
REMARK                         _______ _______ _______ _____ _____    ______ ____
ROOT
ATOM      1  C   UNL     1       7.125   5.058  16.030  0.00  0.00    +0.000 C 
ATOM      2  C   UNL     1       6.918   5.102  17.573  0.00  0.00    +0.000 C 
ATOM      3  C   UNL     1       8.153   4.454  18.205  0.00  0.00    +0.000 C 
ENDROOT
BRANCH   2   4
ATOM      4  N   UNL     1       5.704   4.268  17.793  0.00  0.00    +0.000 NA
ATOM      5  H   UNL     1       5.654   3.805  18.704  0.00  0.00    +0.000 HD
BRANCH   4   6
ATOM      6  S   UNL     1       4.134   4.600  17.304  0.00  0.00    +0.000 S 
ATOM      7  O   UNL     1       4.242   5.778  16.471  0.00  0.00    +0.000 OA
ATOM      8  O   UNL     1       3.520   3.390  16.811  0.00  0.00    +0.000 OA
BRANCH   6   9
ATOM      9  C   UNL     1       3.273   5.122  18.771  0.00  0.00    +0.000 A 
ATOM     10  C   UNL     1       2.863   4.208  19.742  0.00  0.00    +0.000 A 
ATOM     11  C   UNL     1       2.029   4.640  20.772  0.00  0.00    +0.000 A 
ATOM     12  C   UNL     1       1.677   5.992  20.865  0.00  0.00    +0.000 A 
ATOM     13  C   UNL     1       2.153   6.927  19.935  0.00  0.00    +0.000 A 
ATOM     14  C   UNL     1       2.933   6.477  18.871  0.00  0.00    +0.000 A 
BRANCH  13  15
ATOM     15  O   UNL     1       1.815   8.238  20.161  0.00  0.00    +0.000 OA
BRANCH  15  16
ATOM     16  C   UNL     1       0.691   8.521  21.019  0.00  0.00    +0.000 C 
ATOM     17  C   UNL     1       1.164   9.164  22.297  0.00  0.00    +0.000 C 
ATOM     18  C   UNL     1       0.012   9.982  22.836  0.00  0.00    +0.000 C 
ATOM     19  C   UNL     1      -0.652  10.530  21.584  0.00  0.00    +0.000 C 
ATOM     20  C   UNL     1      -0.152   9.662  20.417  0.00  0.00    +0.000 C 
ENDBRANCH  15  16
ENDBRANCH  13  15
ENDBRANCH   6   9
ENDBRANCH   4   6
ENDBRANCH   2   4
BRANCH   2  21
ATOM     21  C   UNL     1       6.753   6.601  17.957  0.00  0.00    +0.000 C 
BRANCH  21  22
ATOM     22  C   UNL     1       8.009   7.381  18.371  0.00  0.00    +0.000 C 
BRANCH  22  23
ATOM     23  C   UNL     1       8.191   8.698  17.612  0.00  0.00    +0.000 C 
BRANCH  23  24
ATOM     24  O   UNL     1       8.410   9.737  18.573  0.00  0.00    +0.000 OA
BRANCH  24  25
ATOM     25  C   UNL     1       9.227  10.797  18.063  0.00  0.00    +0.000 C 
BRANCH  25  26
ATOM     26  N   UNL     1       9.688  11.667  19.149  0.00  0.00    +0.000 N 
ATOM     27  C   UNL     1       9.521  11.215  20.428  0.00  0.00    +0.000 A 
ATOM     28  C   UNL     1       9.480  12.062  21.458  0.00  0.00    +0.000 A 
ATOM     29  C   UNL     1       9.843  13.451  21.294  0.00  0.00    +0.000 A 
ATOM     30  O   UNL     1       9.855  14.219  22.248  0.00  0.00    +0.000 OA
ATOM     31  N   UNL     1      10.144  13.800  20.017  0.00  0.00    +0.000 N 
ATOM     32  C   UNL     1       9.913  13.013  18.911  0.00  0.00    +0.000 A 
ATOM     33  O   UNL     1       9.924  13.516  17.788  0.00  0.00    +0.000 OA
ATOM     34  H   UNL     1      10.307  14.777  19.859  0.00  0.00    +0.000 HD
ENDBRANCH  25  26
ENDBRANCH  24  25
ENDBRANCH  23  24
ENDBRANCH  22  23
ENDBRANCH  21  22
ENDBRANCH   2  21
TORSDOF 11
ENDMDL
MODEL 9
REMARK VINA RESULT:      -6.8      2.103      2.586
REMARK  Name = 
REMARK  13 active torsions:
REMARK  status: ('A' for Active; 'I' for Inactive)
REMARK    1  A    between atoms: C_1  and  C_2
REMARK    2  A    between atoms: C_2  and  C_3
REMARK    3  A    between atoms: C_2  and  C_4
REMARK    4  A    between atoms: C_2  and  N_17
REMARK    5  A    between atoms: C_4  and  C_5
REMARK    6  A    between atoms: C_5  and  C_6
REMARK    7  A    between atoms: C_6  and  O_7
REMARK    8  A    between atoms: O_7  and  C_8
REMARK    9  A    between atoms: C_8  and  N_9
REMARK   10  A    between atoms: N_17  and  S_18
REMARK   11  A    between atoms: S_18  and  C_21
REMARK   12  A    between atoms: C_25  and  O_26
REMARK   13  A    between atoms: O_26  and  C_27
REMARK                            x       y       z     vdW  Elec       q    Type
REMARK                         _______ _______ _______ _____ _____    ______ ____
ROOT
ATOM      1  C   UNL     1       1.923   3.416  21.465  0.00  0.00    +0.000 C 
ATOM      2  C   UNL     1       1.679   3.482  19.928  0.00  0.00    +0.000 C 
ATOM      3  C   UNL     1       0.547   2.498  19.618  0.00  0.00    +0.000 C 
ENDROOT
BRANCH   2   4
ATOM      4  N   UNL     1       2.967   3.018  19.343  0.00  0.00    +0.000 NA
ATOM      5  H   UNL     1       3.541   2.439  19.961  0.00  0.00    +0.000 HD
BRANCH   4   6
ATOM      6  S   UNL     1       3.251   2.517  17.768  0.00  0.00    +0.000 S 
ATOM      7  O   UNL     1       4.084   1.341  17.893  0.00  0.00    +0.000 OA
ATOM      8  O   UNL     1       2.002   2.475  17.046  0.00  0.00    +0.000 OA
BRANCH   6   9
ATOM      9  C   UNL     1       4.287   3.770  17.044  0.00  0.00    +0.000 A 
ATOM     10  C   UNL     1       4.171   5.113  17.404  0.00  0.00    +0.000 A 
ATOM     11  C   UNL     1       4.868   6.074  16.675  0.00  0.00    +0.000 A 
ATOM     12  C   UNL     1       5.731   5.679  15.644  0.00  0.00    +0.000 A 
ATOM     13  C   UNL     1       5.910   4.324  15.333  0.00  0.00    +0.000 A 
ATOM     14  C   UNL     1       5.161   3.373  16.023  0.00  0.00    +0.000 A 
BRANCH  13  15
ATOM     15  O   UNL     1       6.837   4.040  14.361  0.00  0.00    +0.000 OA
BRANCH  15  16
ATOM     16  C   UNL     1       6.409   4.023  12.985  0.00  0.00    +0.000 C 
ATOM     17  C   UNL     1       6.692   2.675  12.371  0.00  0.00    +0.000 C 
ATOM     18  C   UNL     1       5.713   2.491  11.233  0.00  0.00    +0.000 C 
ATOM     19  C   UNL     1       4.444   3.152  11.745  0.00  0.00    +0.000 C 
ATOM     20  C   UNL     1       4.870   4.055  12.915  0.00  0.00    +0.000 C 
ENDBRANCH  15  16
ENDBRANCH  13  15
ENDBRANCH   6   9
ENDBRANCH   4   6
ENDBRANCH   2   4
BRANCH   2  21
ATOM     21  C   UNL     1       1.311   4.957  19.599  0.00  0.00    +0.000 C 
BRANCH  21  22
ATOM     22  C   UNL     1       1.604   6.028  20.659  0.00  0.00    +0.000 C 
BRANCH  22  23
ATOM     23  C   UNL     1       2.069   7.363  20.069  0.00  0.00    +0.000 C 
BRANCH  23  24
ATOM     24  O   UNL     1       1.637   8.409  20.947  0.00  0.00    +0.000 OA
BRANCH  24  25
ATOM     25  C   UNL     1       0.254   8.294  21.303  0.00  0.00    +0.000 C 
BRANCH  25  26
ATOM     26  N   UNL     1      -0.354   9.619  21.459  0.00  0.00    +0.000 N 
ATOM     27  C   UNL     1      -0.656  10.309  20.319  0.00  0.00    +0.000 A 
ATOM     28  C   UNL     1      -0.780  11.637  20.330  0.00  0.00    +0.000 A 
ATOM     29  C   UNL     1      -0.835  12.369  21.575  0.00  0.00    +0.000 A 
ATOM     30  O   UNL     1      -1.000  13.582  21.589  0.00  0.00    +0.000 OA
ATOM     31  N   UNL     1      -0.677  11.597  22.681  0.00  0.00    +0.000 N 
ATOM     32  C   UNL     1      -0.266  10.284  22.671  0.00  0.00    +0.000 A 
ATOM     33  O   UNL     1       0.145   9.763  23.708  0.00  0.00    +0.000 OA
ATOM     34  H   UNL     1      -0.618  12.091  23.552  0.00  0.00    +0.000 HD
ENDBRANCH  25  26
ENDBRANCH  24  25
ENDBRANCH  23  24
ENDBRANCH  22  23
ENDBRANCH  21  22
ENDBRANCH   2  21
TORSDOF 11
ENDMDL
