MODEL 1
REMARK VINA RESULT:      -7.1      0.000      0.000
REMARK  Name = 
REMARK  7 active torsions:
REMARK  status: ('A' for Active; 'I' for Inactive)
REMARK    1  A    between atoms: C_1  and  C_2
REMARK    2  A    between atoms: C_2  and  CA_3
REMARK    3  A    between atoms: CA_3  and  C_4
REMARK    4  A    between atoms: CA_3  and  N_6
REMARK    5  A    between atoms: C_4  and  O_5
REMARK    6  A    between atoms: C_13  and  C_14
REMARK    7  A    between atoms: C_20  and  N_21
REMARK                            x       y       z     vdW  Elec       q    Type
REMARK                         _______ _______ _______ _____ _____    ______ ____
ROOT
ATOM      1  N   UNL     1       4.711   3.851  13.187  0.00  0.00    +0.000 N 
ATOM      2  C   UNL     1       5.477   4.245  14.267  0.00  0.00    +0.000 A 
ATOM      3  C   UNL     1       6.851   4.812  14.075  0.00  0.00    +0.000 A 
ATOM      4  C   UNL     1       7.609   5.047  15.148  0.00  0.00    +0.000 A 
ATOM      5  C   UNL     1       7.075   4.830  16.428  0.00  0.00    +0.000 A 
ATOM      6  N   UNL     1       7.627   4.982  17.609  0.00  0.00    +0.000 NA
ATOM      7  C   UNL     1       6.634   4.679  18.495  0.00  0.00    +0.000 A 
ATOM      8  C   UNL     1       5.443   4.342  17.867  0.00  0.00    +0.000 A 
ATOM      9  N   UNL     1       5.757   4.401  16.514  0.00  0.00    +0.000 N 
ATOM     10  N   UNL     1       4.937   4.072  15.451  0.00  0.00    +0.000 NA
ATOM     11  H   UNL     1       3.894   3.329  13.492  0.00  0.00    +0.000 HD
ENDROOT
BRANCH   8  12
ATOM     12  C   UNL     1       4.139   4.039  18.489  0.00  0.00    +0.000 A 
ATOM     13  C   UNL     1       3.508   5.084  19.199  0.00  0.00    +0.000 A 
ATOM     14  C   UNL     1       2.319   4.873  19.895  0.00  0.00    +0.000 A 
ATOM     15 CL   UNL     1       1.600   6.164  20.779  0.00  0.00    +0.000 Cl
ATOM     16  C   UNL     1       1.730   3.619  19.905  0.00  0.00    +0.000 A 
ATOM     17  C   UNL     1       2.335   2.574  19.208  0.00  0.00    +0.000 A 
ATOM     18  C   UNL     1       3.512   2.772  18.461  0.00  0.00    +0.000 A 
BRANCH  18  19
ATOM     19  N   UNL     1       4.136   1.627  17.923  0.00  0.00    +0.000 N 
ATOM     20  H   UNL     1       4.247   0.881  18.601  0.00  0.00    +0.000 HD
ATOM     21  H   UNL     1       3.628   1.294  17.099  0.00  0.00    +0.000 HD
ENDBRANCH  18  19
ENDBRANCH   8  12
BRANCH   1  22
ATOM     22  CA  UNL     1       5.260   3.418  11.887  0.00  0.00    +0.000 C 
BRANCH  22  24
ATOM     23  C   UNL     1       6.300   1.249  11.006  0.00  0.00    +0.000 C 
ATOM     24  C   UNL     1       6.291   2.299  12.109  0.00  0.00    +0.000 C 
ENDBRANCH  22  24
BRANCH  22  25
ATOM     25  C   UNL     1       4.115   2.962  10.958  0.00  0.00    +0.000 C 
BRANCH  25  26
ATOM     26  O   UNL     1       3.489   4.071  10.318  0.00  0.00    +0.000 OA
ATOM     27  H   UNL     1       2.747   4.346  10.888  0.00  0.00    +0.000 HD
ENDBRANCH  25  26
ENDBRANCH  22  25
ENDBRANCH   1  22
TORSDOF 6
ENDMDL
MODEL 2
REMARK VINA RESULT:      -7.1      4.019      7.717
REMARK  Name = 
REMARK  7 active torsions:
REMARK  status: ('A' for Active; 'I' for Inactive)
REMARK    1  A    between atoms: C_1  and  C_2
REMARK    2  A    between atoms: C_2  and  CA_3
REMARK    3  A    between atoms: CA_3  and  C_4
REMARK    4  A    between atoms: CA_3  and  N_6
REMARK    5  A    between atoms: C_4  and  O_5
REMARK    6  A    between atoms: C_13  and  C_14
REMARK    7  A    between atoms: C_20  and  N_21
REMARK                            x       y       z     vdW  Elec       q    Type
REMARK                         _______ _______ _______ _____ _____    ______ ____
ROOT
ATOM      1  N   UNL     1       1.778   7.978  19.386  0.00  0.00    +0.000 N 
ATOM      2  C   UNL     1       2.029   6.644  19.639  0.00  0.00    +0.000 A 
ATOM      3  C   UNL     1       1.109   5.834  20.502  0.00  0.00    +0.000 A 
ATOM      4  C   UNL     1       1.462   4.590  20.835  0.00  0.00    +0.000 A 
ATOM      5  C   UNL     1       2.646   4.048  20.309  0.00  0.00    +0.000 A 
ATOM      6  N   UNL     1       3.191   2.869  20.499  0.00  0.00    +0.000 NA
ATOM      7  C   UNL     1       4.298   2.869  19.702  0.00  0.00    +0.000 A 
ATOM      8  C   UNL     1       4.447   4.054  18.995  0.00  0.00    +0.000 A 
ATOM      9  N   UNL     1       3.385   4.835  19.435  0.00  0.00    +0.000 N 
ATOM     10  N   UNL     1       3.119   6.149  19.099  0.00  0.00    +0.000 NA
ATOM     11  H   UNL     1       2.578   8.421  18.943  0.00  0.00    +0.000 HD
ENDROOT
BRANCH   8  12
ATOM     12  C   UNL     1       5.467   4.388  17.981  0.00  0.00    +0.000 A 
ATOM     13  C   UNL     1       5.169   4.064  16.639  0.00  0.00    +0.000 A 
ATOM     14  C   UNL     1       6.102   4.258  15.622  0.00  0.00    +0.000 A 
ATOM     15 CL   UNL     1       5.712   3.816  14.004  0.00  0.00    +0.000 Cl
ATOM     16  C   UNL     1       7.353   4.775  15.912  0.00  0.00    +0.000 A 
ATOM     17  C   UNL     1       7.667   5.105  17.231  0.00  0.00    +0.000 A 
ATOM     18  C   UNL     1       6.727   4.960  18.269  0.00  0.00    +0.000 A 
BRANCH  18  19
ATOM     19  N   UNL     1       7.185   5.166  19.588  0.00  0.00    +0.000 N 
ATOM     20  H   UNL     1       8.157   4.909  19.715  0.00  0.00    +0.000 HD
ATOM     21  H   UNL     1       7.027   6.136  19.876  0.00  0.00    +0.000 HD
ENDBRANCH  18  19
ENDBRANCH   8  12
BRANCH   1  22
ATOM     22  CA  UNL     1       1.007   8.867  20.277  0.00  0.00    +0.000 C 
BRANCH  22  24
ATOM     23  C   UNL     1       0.706   9.312  22.782  0.00  0.00    +0.000 C 
ATOM     24  C   UNL     1       1.658   8.894  21.670  0.00  0.00    +0.000 C 
ENDBRANCH  22  24
BRANCH  22  25
ATOM     25  C   UNL     1       0.918  10.280  19.663  0.00  0.00    +0.000 C 
BRANCH  25  26
ATOM     26  O   UNL     1       0.875  10.228  18.239  0.00  0.00    +0.000 OA
ATOM     27  H   UNL     1       0.196   9.572  18.000  0.00  0.00    +0.000 HD
ENDBRANCH  25  26
ENDBRANCH  22  25
ENDBRANCH   1  22
TORSDOF 6
ENDMDL
MODEL 3
REMARK VINA RESULT:      -7.0      4.410      7.981
REMARK  Name = 
REMARK  7 active torsions:
REMARK  status: ('A' for Active; 'I' for Inactive)
REMARK    1  A    between atoms: C_1  and  C_2
REMARK    2  A    between atoms: C_2  and  CA_3
REMARK    3  A    between atoms: CA_3  and  C_4
REMARK    4  A    between atoms: CA_3  and  N_6
REMARK    5  A    between atoms: C_4  and  O_5
REMARK    6  A    between atoms: C_13  and  C_14
REMARK    7  A    between atoms: C_20  and  N_21
REMARK                            x       y       z     vdW  Elec       q    Type
REMARK                         _______ _______ _______ _____ _____    ______ ____
ROOT
ATOM      1  N   UNL     1       1.905   7.674  20.232  0.00  0.00    +0.000 N 
ATOM      2  C   UNL     1       2.115   6.310  20.174  0.00  0.00    +0.000 A 
ATOM      3  C   UNL     1       1.226   5.359  20.916  0.00  0.00    +0.000 A 
ATOM      4  C   UNL     1       1.547   4.064  20.947  0.00  0.00    +0.000 A 
ATOM      5  C   UNL     1       2.664   3.615  20.224  0.00  0.00    +0.000 A 
ATOM      6  N   UNL     1       3.168   2.409  20.115  0.00  0.00    +0.000 NA
ATOM      7  C   UNL     1       4.213   2.549  19.249  0.00  0.00    +0.000 A 
ATOM      8  C   UNL     1       4.363   3.854  18.801  0.00  0.00    +0.000 A 
ATOM      9  N   UNL     1       3.371   4.551  19.482  0.00  0.00    +0.000 N 
ATOM     10  N   UNL     1       3.140   5.913  19.455  0.00  0.00    +0.000 NA
ATOM     11  H   UNL     1       2.690   8.180  19.830  0.00  0.00    +0.000 HD
ENDROOT
BRANCH   8  12
ATOM     12  C   UNL     1       5.320   4.370  17.802  0.00  0.00    +0.000 A 
ATOM     13  C   UNL     1       5.074   4.047  16.450  0.00  0.00    +0.000 A 
ATOM     14  C   UNL     1       5.966   4.412  15.443  0.00  0.00    +0.000 A 
ATOM     15 CL   UNL     1       5.648   3.966  13.811  0.00  0.00    +0.000 Cl
ATOM     16  C   UNL     1       7.124   5.104  15.755  0.00  0.00    +0.000 A 
ATOM     17  C   UNL     1       7.385   5.437  17.084  0.00  0.00    +0.000 A 
ATOM     18  C   UNL     1       6.479   5.118  18.113  0.00  0.00    +0.000 A 
BRANCH  18  19
ATOM     19  N   UNL     1       6.900   5.350  19.439  0.00  0.00    +0.000 N 
ATOM     20  H   UNL     1       6.952   4.502  19.993  0.00  0.00    +0.000 HD
ATOM     21  H   UNL     1       7.798   5.843  19.451  0.00  0.00    +0.000 HD
ENDBRANCH  18  19
ENDBRANCH   8  12
BRANCH   1  22
ATOM     22  CA  UNL     1       1.241   8.371  21.351  0.00  0.00    +0.000 C 
BRANCH  22  24
ATOM     23  C   UNL     1       0.841  10.518  20.012  0.00  0.00    +0.000 C 
ATOM     24  C   UNL     1       1.489   9.885  21.235  0.00  0.00    +0.000 C 
ENDBRANCH  22  24
BRANCH  22  25
ATOM     25  C   UNL     1      -0.265   8.040  21.358  0.00  0.00    +0.000 C 
BRANCH  25  26
ATOM     26  O   UNL     1      -0.874   8.407  22.593  0.00  0.00    +0.000 OA
ATOM     27  H   UNL     1      -1.321   7.612  22.937  0.00  0.00    +0.000 HD
ENDBRANCH  25  26
ENDBRANCH  22  25
ENDBRANCH   1  22
TORSDOF 6
ENDMDL
MODEL 4
REMARK VINA RESULT:      -6.8      4.404      7.795
REMARK  Name = 
REMARK  7 active torsions:
REMARK  status: ('A' for Active; 'I' for Inactive)
REMARK    1  A    between atoms: C_1  and  C_2
REMARK    2  A    between atoms: C_2  and  CA_3
REMARK    3  A    between atoms: CA_3  and  C_4
REMARK    4  A    between atoms: CA_3  and  N_6
REMARK    5  A    between atoms: C_4  and  O_5
REMARK    6  A    between atoms: C_13  and  C_14
REMARK    7  A    between atoms: C_20  and  N_21
REMARK                            x       y       z     vdW  Elec       q    Type
REMARK                         _______ _______ _______ _____ _____    ______ ____
ROOT
ATOM      1  N   UNL     1       2.016   8.207  19.448  0.00  0.00    +0.000 N 
ATOM      2  C   UNL     1       2.179   6.852  19.664  0.00  0.00    +0.000 A 
ATOM      3  C   UNL     1       1.246   6.095  20.559  0.00  0.00    +0.000 A 
ATOM      4  C   UNL     1       1.521   4.821  20.851  0.00  0.00    +0.000 A 
ATOM      5  C   UNL     1       2.632   4.204  20.255  0.00  0.00    +0.000 A 
ATOM      6  N   UNL     1       3.095   2.984  20.396  0.00  0.00    +0.000 NA
ATOM      7  C   UNL     1       4.157   2.918  19.542  0.00  0.00    +0.000 A 
ATOM      8  C   UNL     1       4.360   4.104  18.850  0.00  0.00    +0.000 A 
ATOM      9  N   UNL     1       3.383   4.953  19.358  0.00  0.00    +0.000 N 
ATOM     10  N   UNL     1       3.199   6.289  19.059  0.00  0.00    +0.000 NA
ATOM     11  H   UNL     1       2.824   8.598  18.971  0.00  0.00    +0.000 HD
ENDROOT
BRANCH   8  12
ATOM     12  C   UNL     1       5.349   4.383  17.790  0.00  0.00    +0.000 A 
ATOM     13  C   UNL     1       4.955   4.122  16.459  0.00  0.00    +0.000 A 
ATOM     14  C   UNL     1       5.846   4.269  15.397  0.00  0.00    +0.000 A 
ATOM     15 CL   UNL     1       5.337   3.905  13.793  0.00  0.00    +0.000 Cl
ATOM     16  C   UNL     1       7.149   4.675  15.631  0.00  0.00    +0.000 A 
ATOM     17  C   UNL     1       7.558   4.941  16.938  0.00  0.00    +0.000 A 
ATOM     18  C   UNL     1       6.665   4.843  18.022  0.00  0.00    +0.000 A 
BRANCH  18  19
ATOM     19  N   UNL     1       7.206   4.974  19.318  0.00  0.00    +0.000 N 
ATOM     20  H   UNL     1       7.550   5.908  19.512  0.00  0.00    +0.000 HD
ATOM     21  H   UNL     1       6.521   4.688  20.024  0.00  0.00    +0.000 HD
ENDBRANCH  18  19
ENDBRANCH   8  12
BRANCH   1  22
ATOM     22  CA  UNL     1       1.361   9.131  20.393  0.00  0.00    +0.000 C 
BRANCH  22  24
ATOM     23  C   UNL     1      -0.074  10.177  18.546  0.00  0.00    +0.000 C 
ATOM     24  C   UNL     1      -0.055   9.465  19.891  0.00  0.00    +0.000 C 
ENDBRANCH  22  24
BRANCH  22  25
ATOM     25  C   UNL     1       1.332   8.509  21.805  0.00  0.00    +0.000 C 
BRANCH  25  26
ATOM     26  O   UNL     1       2.100   9.276  22.728  0.00  0.00    +0.000 OA
ATOM     27  H   UNL     1       2.667   9.869  22.202  0.00  0.00    +0.000 HD
ENDBRANCH  25  26
ENDBRANCH  22  25
ENDBRANCH   1  22
TORSDOF 6
ENDMDL
MODEL 5
REMARK VINA RESULT:      -6.7      4.037      7.746
REMARK  Name = 
REMARK  7 active torsions:
REMARK  status: ('A' for Active; 'I' for Inactive)
REMARK    1  A    between atoms: C_1  and  C_2
REMARK    2  A    between atoms: C_2  and  CA_3
REMARK    3  A    between atoms: CA_3  and  C_4
REMARK    4  A    between atoms: CA_3  and  N_6
REMARK    5  A    between atoms: C_4  and  O_5
REMARK    6  A    between atoms: C_13  and  C_14
REMARK    7  A    between atoms: C_20  and  N_21
REMARK                            x       y       z     vdW  Elec       q    Type
REMARK                         _______ _______ _______ _____ _____    ______ ____
ROOT
ATOM      1  N   UNL     1       1.689   7.973  19.755  0.00  0.00    +0.000 N 
ATOM      2  C   UNL     1       2.017   6.637  19.882  0.00  0.00    +0.000 A 
ATOM      3  C   UNL     1       1.099   5.679  20.578  0.00  0.00    +0.000 A 
ATOM      4  C   UNL     1       1.516   4.430  20.801  0.00  0.00    +0.000 A 
ATOM      5  C   UNL     1       2.770   4.027  20.313  0.00  0.00    +0.000 A 
ATOM      6  N   UNL     1       3.383   2.871  20.418  0.00  0.00    +0.000 NA
ATOM      7  C   UNL     1       4.540   3.031  19.713  0.00  0.00    +0.000 A 
ATOM      8  C   UNL     1       4.654   4.295  19.153  0.00  0.00    +0.000 A 
ATOM      9  N   UNL     1       3.510   4.953  19.590  0.00  0.00    +0.000 N 
ATOM     10  N   UNL     1       3.175   6.277  19.378  0.00  0.00    +0.000 NA
ATOM     11  H   UNL     1       2.485   8.513  19.426  0.00  0.00    +0.000 HD
ENDROOT
BRANCH   8  12
ATOM     12  C   UNL     1       5.716   4.805  18.263  0.00  0.00    +0.000 A 
ATOM     13  C   UNL     1       6.488   5.888  18.739  0.00  0.00    +0.000 A 
ATOM     14  C   UNL     1       7.454   6.496  17.939  0.00  0.00    +0.000 A 
ATOM     15 CL   UNL     1       8.348   7.838  18.544  0.00  0.00    +0.000 Cl
ATOM     16  C   UNL     1       7.676   6.047  16.648  0.00  0.00    +0.000 A 
ATOM     17  C   UNL     1       6.927   4.976  16.160  0.00  0.00    +0.000 A 
ATOM     18  C   UNL     1       5.976   4.316  16.962  0.00  0.00    +0.000 A 
BRANCH  18  19
ATOM     19  N   UNL     1       5.157   3.354  16.335  0.00  0.00    +0.000 N 
ATOM     20  H   UNL     1       4.458   3.765  15.727  0.00  0.00    +0.000 HD
ATOM     21  H   UNL     1       5.728   2.676  15.820  0.00  0.00    +0.000 HD
ENDBRANCH  18  19
ENDBRANCH   8  12
BRANCH   1  22
ATOM     22  CA  UNL     1       0.796   8.705  20.674  0.00  0.00    +0.000 C 
BRANCH  22  24
ATOM     23  C   UNL     1       0.567   9.407  23.128  0.00  0.00    +0.000 C 
ATOM     24  C   UNL     1       1.490   8.885  22.035  0.00  0.00    +0.000 C 
ENDBRANCH  22  24
BRANCH  22  25
ATOM     25  C   UNL     1       0.399  10.061  20.054  0.00  0.00    +0.000 C 
BRANCH  25  26
ATOM     26  O   UNL     1       0.854  10.172  18.708  0.00  0.00    +0.000 OA
ATOM     27  H   UNL     1       0.330   9.543  18.178  0.00  0.00    +0.000 HD
ENDBRANCH  25  26
ENDBRANCH  22  25
ENDBRANCH   1  22
TORSDOF 6
ENDMDL
MODEL 6
REMARK VINA RESULT:      -6.6      1.328      1.581
REMARK  Name = 
REMARK  7 active torsions:
REMARK  status: ('A' for Active; 'I' for Inactive)
REMARK    1  A    between atoms: C_1  and  C_2
REMARK    2  A    between atoms: C_2  and  CA_3
REMARK    3  A    between atoms: CA_3  and  C_4
REMARK    4  A    between atoms: CA_3  and  N_6
REMARK    5  A    between atoms: C_4  and  O_5
REMARK    6  A    between atoms: C_13  and  C_14
REMARK    7  A    between atoms: C_20  and  N_21
REMARK                            x       y       z     vdW  Elec       q    Type
REMARK                         _______ _______ _______ _____ _____    ______ ____
ROOT
ATOM      1  N   UNL     1       5.354   3.852  13.774  0.00  0.00    +0.000 N 
ATOM      2  C   UNL     1       5.878   4.231  14.994  0.00  0.00    +0.000 A 
ATOM      3  C   UNL     1       7.265   4.787  15.101  0.00  0.00    +0.000 A 
ATOM      4  C   UNL     1       7.782   5.008  16.312  0.00  0.00    +0.000 A 
ATOM      5  C   UNL     1       6.989   4.787  17.449  0.00  0.00    +0.000 A 
ATOM      6  N   UNL     1       7.281   4.926  18.720  0.00  0.00    +0.000 NA
ATOM      7  C   UNL     1       6.122   4.626  19.375  0.00  0.00    +0.000 A 
ATOM      8  C   UNL     1       5.087   4.304  18.507  0.00  0.00    +0.000 A 
ATOM      9  N   UNL     1       5.679   4.369  17.251  0.00  0.00    +0.000 N 
ATOM     10  N   UNL     1       5.099   4.055  16.037  0.00  0.00    +0.000 NA
ATOM     11  H   UNL     1       4.487   3.335  13.895  0.00  0.00    +0.000 HD
ENDROOT
BRANCH   8  12
ATOM     12  C   UNL     1       3.679   4.009  18.838  0.00  0.00    +0.000 A 
ATOM     13  C   UNL     1       2.958   5.008  19.529  0.00  0.00    +0.000 A 
ATOM     14  C   UNL     1       1.652   4.790  19.963  0.00  0.00    +0.000 A 
ATOM     15 CL   UNL     1       0.821   6.020  20.835  0.00  0.00    +0.000 Cl
ATOM     16  C   UNL     1       1.031   3.575  19.725  0.00  0.00    +0.000 A 
ATOM     17  C   UNL     1       1.724   2.576  19.042  0.00  0.00    +0.000 A 
ATOM     18  C   UNL     1       3.027   2.787  18.554  0.00  0.00    +0.000 A 
BRANCH  18  19
ATOM     19  N   UNL     1       3.705   1.671  18.019  0.00  0.00    +0.000 N 
ATOM     20  H   UNL     1       3.903   0.958  18.712  0.00  0.00    +0.000 HD
ATOM     21  H   UNL     1       3.181   1.274  17.233  0.00  0.00    +0.000 HD
ENDBRANCH  18  19
ENDBRANCH   8  12
BRANCH   1  22
ATOM     22  CA  UNL     1       6.161   3.422  12.615  0.00  0.00    +0.000 C 
BRANCH  22  24
ATOM     23  C   UNL     1       4.073   3.103  11.164  0.00  0.00    +0.000 C 
ATOM     24  C   UNL     1       5.334   2.469  11.735  0.00  0.00    +0.000 C 
ENDBRANCH  22  24
BRANCH  22  25
ATOM     25  C   UNL     1       6.641   4.656  11.822  0.00  0.00    +0.000 C 
BRANCH  25  26
ATOM     26  O   UNL     1       7.933   5.079  12.248  0.00  0.00    +0.000 OA
ATOM     27  H   UNL     1       7.910   6.051  12.303  0.00  0.00    +0.000 HD
ENDBRANCH  25  26
ENDBRANCH  22  25
ENDBRANCH   1  22
TORSDOF 6
ENDMDL
MODEL 7
REMARK VINA RESULT:      -6.6      3.668      5.508
REMARK  Name = 
REMARK  7 active torsions:
REMARK  status: ('A' for Active; 'I' for Inactive)
REMARK    1  A    between atoms: C_1  and  C_2
REMARK    2  A    between atoms: C_2  and  CA_3
REMARK    3  A    between atoms: CA_3  and  C_4
REMARK    4  A    between atoms: CA_3  and  N_6
REMARK    5  A    between atoms: C_4  and  O_5
REMARK    6  A    between atoms: C_13  and  C_14
REMARK    7  A    between atoms: C_20  and  N_21
REMARK                            x       y       z     vdW  Elec       q    Type
REMARK                         _______ _______ _______ _____ _____    ______ ____
ROOT
ATOM      1  N   UNL     1       5.517   5.562  17.089  0.00  0.00    +0.000 N 
ATOM      2  C   UNL     1       4.712   5.157  18.136  0.00  0.00    +0.000 A 
ATOM      3  C   UNL     1       4.838   3.784  18.722  0.00  0.00    +0.000 A 
ATOM      4  C   UNL     1       3.948   3.386  19.635  0.00  0.00    +0.000 A 
ATOM      5  C   UNL     1       2.967   4.288  20.077  0.00  0.00    +0.000 A 
ATOM      6  N   UNL     1       1.999   4.121  20.946  0.00  0.00    +0.000 NA
ATOM      7  C   UNL     1       1.390   5.340  21.023  0.00  0.00    +0.000 A 
ATOM      8  C   UNL     1       1.987   6.286  20.202  0.00  0.00    +0.000 A 
ATOM      9  N   UNL     1       2.989   5.574  19.553  0.00  0.00    +0.000 N 
ATOM     10  N   UNL     1       3.833   6.035  18.560  0.00  0.00    +0.000 NA
ATOM     11  H   UNL     1       5.188   6.439  16.695  0.00  0.00    +0.000 HD
ENDROOT
BRANCH   8  12
ATOM     12  C   UNL     1       1.662   7.722  20.081  0.00  0.00    +0.000 A 
ATOM     13  C   UNL     1       1.141   8.362  21.227  0.00  0.00    +0.000 A 
ATOM     14  C   UNL     1       0.722   9.690  21.188  0.00  0.00    +0.000 A 
ATOM     15 CL   UNL     1       0.057  10.422  22.597  0.00  0.00    +0.000 Cl
ATOM     16  C   UNL     1       0.807  10.415  20.011  0.00  0.00    +0.000 A 
ATOM     17  C   UNL     1       1.323   9.803  18.868  0.00  0.00    +0.000 A 
ATOM     18  C   UNL     1       1.794   8.476  18.892  0.00  0.00    +0.000 A 
BRANCH  18  19
ATOM     19  N   UNL     1       2.146   7.893  17.657  0.00  0.00    +0.000 N 
ATOM     20  H   UNL     1       3.112   7.589  17.623  0.00  0.00    +0.000 HD
ATOM     21  H   UNL     1       1.516   7.117  17.434  0.00  0.00    +0.000 HD
ENDBRANCH  18  19
ENDBRANCH   8  12
BRANCH   1  22
ATOM     22  CA  UNL     1       6.135   4.648  16.108  0.00  0.00    +0.000 C 
BRANCH  22  24
ATOM     23  C   UNL     1       5.934   3.912  13.662  0.00  0.00    +0.000 C 
ATOM     24  C   UNL     1       5.626   4.986  14.696  0.00  0.00    +0.000 C 
ENDBRANCH  22  24
BRANCH  22  25
ATOM     25  C   UNL     1       7.672   4.741  16.196  0.00  0.00    +0.000 C 
BRANCH  25  26
ATOM     26  O   UNL     1       8.165   4.118  17.380  0.00  0.00    +0.000 OA
ATOM     27  H   UNL     1       9.126   4.273  17.404  0.00  0.00    +0.000 HD
ENDBRANCH  25  26
ENDBRANCH  22  25
ENDBRANCH   1  22
TORSDOF 6
ENDMDL
MODEL 8
REMARK VINA RESULT:      -6.5      4.521      7.470
REMARK  Name = 
REMARK  7 active torsions:
REMARK  status: ('A' for Active; 'I' for Inactive)
REMARK    1  A    between atoms: C_1  and  C_2
REMARK    2  A    between atoms: C_2  and  CA_3
REMARK    3  A    between atoms: CA_3  and  C_4
REMARK    4  A    between atoms: CA_3  and  N_6
REMARK    5  A    between atoms: C_4  and  O_5
REMARK    6  A    between atoms: C_13  and  C_14
REMARK    7  A    between atoms: C_20  and  N_21
REMARK                            x       y       z     vdW  Elec       q    Type
REMARK                         _______ _______ _______ _____ _____    ______ ____
ROOT
ATOM      1  N   UNL     1       2.200   8.901  17.678  0.00  0.00    +0.000 N 
ATOM      2  C   UNL     1       2.508   7.659  18.199  0.00  0.00    +0.000 A 
ATOM      3  C   UNL     1       1.798   7.130  19.408  0.00  0.00    +0.000 A 
ATOM      4  C   UNL     1       2.222   5.991  19.960  0.00  0.00    +0.000 A 
ATOM      5  C   UNL     1       3.270   5.280  19.351  0.00  0.00    +0.000 A 
ATOM      6  N   UNL     1       3.850   4.160  19.713  0.00  0.00    +0.000 NA
ATOM      7  C   UNL     1       4.761   3.911  18.728  0.00  0.00    +0.000 A 
ATOM      8  C   UNL     1       4.749   4.878  17.733  0.00  0.00    +0.000 A 
ATOM      9  N   UNL     1       3.800   5.793  18.175  0.00  0.00    +0.000 N 
ATOM     10  N   UNL     1       3.460   6.996  17.585  0.00  0.00    +0.000 NA
ATOM     11  H   UNL     1       2.885   9.183  16.982  0.00  0.00    +0.000 HD
ENDROOT
BRANCH   8  12
ATOM     12  C   UNL     1       5.527   4.904  16.478  0.00  0.00    +0.000 A 
ATOM     13  C   UNL     1       4.911   4.360  15.329  0.00  0.00    +0.000 A 
ATOM     14  C   UNL     1       5.595   4.259  14.119  0.00  0.00    +0.000 A 
ATOM     15 CL   UNL     1       4.821   3.555  12.752  0.00  0.00    +0.000 Cl
ATOM     16  C   UNL     1       6.907   4.691  14.021  0.00  0.00    +0.000 A 
ATOM     17  C   UNL     1       7.533   5.235  15.143  0.00  0.00    +0.000 A 
ATOM     18  C   UNL     1       6.850   5.390  16.364  0.00  0.00    +0.000 A 
BRANCH  18  19
ATOM     19  N   UNL     1       7.608   5.797  17.482  0.00  0.00    +0.000 N 
ATOM     20  H   UNL     1       7.289   5.382  18.350  0.00  0.00    +0.000 HD
ATOM     21  H   UNL     1       8.602   5.602  17.332  0.00  0.00    +0.000 HD
ENDBRANCH  18  19
ENDBRANCH   8  12
BRANCH   1  22
ATOM     22  CA  UNL     1       1.632  10.017  18.459  0.00  0.00    +0.000 C 
BRANCH  22  24
ATOM     23  C   UNL     1       1.569  12.577  18.540  0.00  0.00    +0.000 C 
ATOM     24  C   UNL     1       2.289  11.338  18.025  0.00  0.00    +0.000 C 
ENDBRANCH  22  24
BRANCH  22  25
ATOM     25  C   UNL     1       0.100  10.058  18.281  0.00  0.00    +0.000 C 
BRANCH  25  26
ATOM     26  O   UNL     1      -0.574   9.955  19.533  0.00  0.00    +0.000 OA
ATOM     27  H   UNL     1      -0.459   9.038  19.842  0.00  0.00    +0.000 HD
ENDBRANCH  25  26
ENDBRANCH  22  25
ENDBRANCH   1  22
TORSDOF 6
ENDMDL
MODEL 9
REMARK VINA RESULT:      -6.4      1.469      1.939
REMARK  Name = 
REMARK  7 active torsions:
REMARK  status: ('A' for Active; 'I' for Inactive)
REMARK    1  A    between atoms: C_1  and  C_2
REMARK    2  A    between atoms: C_2  and  CA_3
REMARK    3  A    between atoms: CA_3  and  C_4
REMARK    4  A    between atoms: CA_3  and  N_6
REMARK    5  A    between atoms: C_4  and  O_5
REMARK    6  A    between atoms: C_13  and  C_14
REMARK    7  A    between atoms: C_20  and  N_21
REMARK                            x       y       z     vdW  Elec       q    Type
REMARK                         _______ _______ _______ _____ _____    ______ ____
ROOT
ATOM      1  N   UNL     1       4.519   3.857  12.690  0.00  0.00    +0.000 N 
ATOM      2  C   UNL     1       5.387   4.214  13.704  0.00  0.00    +0.000 A 
ATOM      3  C   UNL     1       6.826   4.518  13.419  0.00  0.00    +0.000 A 
ATOM      4  C   UNL     1       7.659   4.722  14.442  0.00  0.00    +0.000 A 
ATOM      5  C   UNL     1       7.152   4.720  15.752  0.00  0.00    +0.000 A 
ATOM      6  N   UNL     1       7.773   4.886  16.896  0.00  0.00    +0.000 NA
ATOM      7  C   UNL     1       6.784   4.841  17.834  0.00  0.00    +0.000 A 
ATOM      8  C   UNL     1       5.527   4.654  17.276  0.00  0.00    +0.000 A 
ATOM      9  N   UNL     1       5.786   4.531  15.916  0.00  0.00    +0.000 N 
ATOM     10  N   UNL     1       4.877   4.248  14.914  0.00  0.00    +0.000 NA
ATOM     11  H   UNL     1       3.641   3.512  13.068  0.00  0.00    +0.000 HD
ENDROOT
BRANCH   8  12
ATOM     12  C   UNL     1       4.219   4.637  17.961  0.00  0.00    +0.000 A 
ATOM     13  C   UNL     1       3.705   3.375  18.333  0.00  0.00    +0.000 A 
ATOM     14  C   UNL     1       2.440   3.247  18.905  0.00  0.00    +0.000 A 
ATOM     15 CL   UNL     1       1.835   1.687  19.310  0.00  0.00    +0.000 Cl
ATOM     16  C   UNL     1       1.654   4.368  19.117  0.00  0.00    +0.000 A 
ATOM     17  C   UNL     1       2.144   5.624  18.760  0.00  0.00    +0.000 A 
ATOM     18  C   UNL     1       3.436   5.784  18.223  0.00  0.00    +0.000 A 
BRANCH  18  19
ATOM     19  N   UNL     1       3.782   7.065  17.744  0.00  0.00    +0.000 N 
ATOM     20  H   UNL     1       4.606   7.447  18.194  0.00  0.00    +0.000 HD
ATOM     21  H   UNL     1       3.901   7.049  16.727  0.00  0.00    +0.000 HD
ENDBRANCH  18  19
ENDBRANCH   8  12
BRANCH   1  22
ATOM     22  CA  UNL     1       4.931   3.216  11.426  0.00  0.00    +0.000 C 
BRANCH  22  24
ATOM     23  C   UNL     1       6.924   1.680  10.945  0.00  0.00    +0.000 C 
ATOM     24  C   UNL     1       5.634   1.881  11.728  0.00  0.00    +0.000 C 
ENDBRANCH  22  24
BRANCH  22  25
ATOM     25  C   UNL     1       3.703   3.019  10.512  0.00  0.00    +0.000 C 
BRANCH  25  26
ATOM     26  O   UNL     1       3.212   4.264  10.023  0.00  0.00    +0.000 OA
ATOM     27  H   UNL     1       3.978   4.860   9.943  0.00  0.00    +0.000 HD
ENDBRANCH  25  26
ENDBRANCH  22  25
ENDBRANCH   1  22
TORSDOF 6
ENDMDL
