MODEL 1
REMARK VINA RESULT:      -6.8      0.000      0.000
REMARK  Name = 
REMARK  14 active torsions:
REMARK  status: ('A' for Active; 'I' for Inactive)
REMARK    1  A    between atoms: C_1  and  C_2
REMARK    2  A    between atoms: C_2  and  C_3
REMARK    3  A    between atoms: C_3  and  C_4
REMARK    4  A    between atoms: C_4  and  C_5
REMARK    5  A    between atoms: C_4  and  N_8
REMARK    6  A    between atoms: C_5  and  C_6
REMARK    7  A    between atoms: C_6  and  C_7
REMARK    8  A    between atoms: C_9  and  C_10
REMARK    9  A    between atoms: C_10  and  C_11
REMARK   10  A    between atoms: N_17  and  C_18
REMARK   11  A    between atoms: N_20  and  C_21
REMARK   12  A    between atoms: C_24  and  C_25
REMARK   13  A    between atoms: C_25  and  C_26
REMARK   14  A    between atoms: C_25  and  C_27
REMARK                            x       y       z     vdW  Elec       q    Type
REMARK                         _______ _______ _______ _____ _____    ______ ____
ROOT
ATOM      1  N   UNL     1       4.742   5.398  17.761  0.00  0.00    +0.000 N 
ATOM      2  C   UNL     1       4.782   6.689  17.226  0.00  0.00    +0.000 A 
ATOM      3  N   UNL     1       3.908   7.479  17.816  0.00  0.00    +0.000 NA
ATOM      4  C   UNL     1       3.267   6.704  18.718  0.00  0.00    +0.000 A 
ATOM      5  C   UNL     1       3.707   5.401  18.684  0.00  0.00    +0.000 A 
ATOM      6  C   UNL     1       3.025   4.364  19.412  0.00  0.00    +0.000 C 
ATOM      7  O   UNL     1       3.228   3.161  19.288  0.00  0.00    +0.000 OA
ATOM      8  N   UNL     1       1.987   4.838  20.197  0.00  0.00    +0.000 N 
ATOM      9  C   UNL     1       0.956   3.946  20.680  0.00  0.00    +0.000 C 
ATOM     10  C   UNL     1       1.953   6.221  20.638  0.00  0.00    +0.000 C 
ATOM     11  N   UNL     1       2.274   7.124  19.538  0.00  0.00    +0.000 N 
ENDROOT
BRANCH  11  12
ATOM     12  C   UNL     1       1.483   8.291  19.387  0.00  0.00    +0.000 A 
ATOM     13  C   UNL     1       1.115   8.700  18.095  0.00  0.00    +0.000 A 
ATOM     14  C   UNL     1       0.277   9.803  17.863  0.00  0.00    +0.000 A 
ATOM     15  C   UNL     1      -0.245  10.538  18.927  0.00  0.00    +0.000 A 
ATOM     16  C   UNL     1       0.134  10.174  20.223  0.00  0.00    +0.000 A 
ATOM     17  C   UNL     1       0.995   9.085  20.454  0.00  0.00    +0.000 A 
ATOM     18 CL   UNL     1       1.461   8.863  22.115  0.00  0.00    +0.000 Cl
BRANCH  15  19
ATOM     19  C   UNL     1      -1.172  11.709  18.663  0.00  0.00    +0.000 C 
ATOM     20  C   UNL     1      -0.385  13.005  18.456  0.00  0.00    +0.000 C 
ATOM     21  C   UNL     1      -2.101  11.435  17.478  0.00  0.00    +0.000 C 
ENDBRANCH  15  19
ENDBRANCH  11  12
BRANCH   2  22
ATOM     22  C   UNL     1       5.669   7.175  16.126  0.00  0.00    +0.000 C 
ATOM     23  C   UNL     1       4.982   7.056  14.777  0.00  0.00    +0.000 C 
ENDBRANCH   2  22
BRANCH   1  24
ATOM     24  C   UNL     1       5.659   4.310  17.377  0.00  0.00    +0.000 C 
BRANCH  24  25
ATOM     25  C   UNL     1       5.400   3.701  15.978  0.00  0.00    +0.000 C 
BRANCH  25  27
ATOM     26  C   UNL     1       5.950   3.782  13.534  0.00  0.00    +0.000 C 
ATOM     27  C   UNL     1       6.524   3.854  14.948  0.00  0.00    +0.000 C 
ENDBRANCH  25  27
ENDBRANCH  24  25
BRANCH  24  28
ATOM     28  C   UNL     1       7.140   4.642  17.682  0.00  0.00    +0.000 C 
BRANCH  28  29
ATOM     29  C   UNL     1       7.413   5.395  18.983  0.00  0.00    +0.000 C 
ATOM     30  C   UNL     1       8.082   6.735  18.706  0.00  0.00    +0.000 C 
ENDBRANCH  28  29
ENDBRANCH  24  28
ENDBRANCH   1  24
TORSDOF 8
ENDMDL
MODEL 2
REMARK VINA RESULT:      -6.8      7.409     10.526
REMARK  Name = 
REMARK  14 active torsions:
REMARK  status: ('A' for Active; 'I' for Inactive)
REMARK    1  A    between atoms: C_1  and  C_2
REMARK    2  A    between atoms: C_2  and  C_3
REMARK    3  A    between atoms: C_3  and  C_4
REMARK    4  A    between atoms: C_4  and  C_5
REMARK    5  A    between atoms: C_4  and  N_8
REMARK    6  A    between atoms: C_5  and  C_6
REMARK    7  A    between atoms: C_6  and  C_7
REMARK    8  A    between atoms: C_9  and  C_10
REMARK    9  A    between atoms: C_10  and  C_11
REMARK   10  A    between atoms: N_17  and  C_18
REMARK   11  A    between atoms: N_20  and  C_21
REMARK   12  A    between atoms: C_24  and  C_25
REMARK   13  A    between atoms: C_25  and  C_26
REMARK   14  A    between atoms: C_25  and  C_27
REMARK                            x       y       z     vdW  Elec       q    Type
REMARK                         _______ _______ _______ _____ _____    ______ ____
ROOT
ATOM      1  N   UNL     1      -4.981  11.681  18.523  0.00  0.00    +0.000 N 
ATOM      2  C   UNL     1      -4.023  11.405  17.544  0.00  0.00    +0.000 A 
ATOM      3  N   UNL     1      -2.810  11.699  17.965  0.00  0.00    +0.000 NA
ATOM      4  C   UNL     1      -2.968  12.202  19.209  0.00  0.00    +0.000 A 
ATOM      5  C   UNL     1      -4.292  12.262  19.577  0.00  0.00    +0.000 A 
ATOM      6  C   UNL     1      -4.703  12.948  20.773  0.00  0.00    +0.000 C 
ATOM      7  O   UNL     1      -5.861  13.214  21.075  0.00  0.00    +0.000 OA
ATOM      8  N   UNL     1      -3.640  13.423  21.525  0.00  0.00    +0.000 N 
ATOM      9  C   UNL     1      -3.839  14.452  22.521  0.00  0.00    +0.000 C 
ATOM     10  C   UNL     1      -2.317  12.838  21.404  0.00  0.00    +0.000 C 
ATOM     11  N   UNL     1      -1.963  12.643  20.003  0.00  0.00    +0.000 N 
ENDROOT
BRANCH  11  12
ATOM     12  C   UNL     1      -0.652  13.000  19.596  0.00  0.00    +0.000 A 
ATOM     13  C   UNL     1      -0.340  14.359  19.427  0.00  0.00    +0.000 A 
ATOM     14  C   UNL     1       0.951  14.801  19.094  0.00  0.00    +0.000 A 
ATOM     15  C   UNL     1       1.996  13.892  18.931  0.00  0.00    +0.000 A 
ATOM     16  C   UNL     1       1.704  12.529  19.058  0.00  0.00    +0.000 A 
ATOM     17  C   UNL     1       0.405  12.086  19.366  0.00  0.00    +0.000 A 
ATOM     18 CL   UNL     1       0.202  10.359  19.353  0.00  0.00    +0.000 Cl
BRANCH  15  19
ATOM     19  C   UNL     1       3.391  14.384  18.599  0.00  0.00    +0.000 C 
ATOM     20  C   UNL     1       3.354  15.492  17.544  0.00  0.00    +0.000 C 
ATOM     21  C   UNL     1       4.137  14.845  19.855  0.00  0.00    +0.000 C 
ENDBRANCH  15  19
ENDBRANCH  11  12
BRANCH   2  22
ATOM     22  C   UNL     1      -4.273  10.853  16.178  0.00  0.00    +0.000 C 
ATOM     23  C   UNL     1      -3.102  10.008  15.707  0.00  0.00    +0.000 C 
ENDBRANCH   2  22
BRANCH   1  24
ATOM     24  C   UNL     1      -6.417  11.375  18.392  0.00  0.00    +0.000 C 
BRANCH  24  25
ATOM     25  C   UNL     1      -7.031  10.601  19.583  0.00  0.00    +0.000 C 
BRANCH  25  27
ATOM     26  C   UNL     1      -7.691   8.459  20.706  0.00  0.00    +0.000 C 
ATOM     27  C   UNL     1      -6.957   9.072  19.515  0.00  0.00    +0.000 C 
ENDBRANCH  25  27
ENDBRANCH  24  25
BRANCH  24  28
ATOM     28  C   UNL     1      -7.245  12.589  17.904  0.00  0.00    +0.000 C 
BRANCH  28  29
ATOM     29  C   UNL     1      -6.455  13.836  17.514  0.00  0.00    +0.000 C 
ATOM     30  C   UNL     1      -7.203  14.649  16.465  0.00  0.00    +0.000 C 
ENDBRANCH  28  29
ENDBRANCH  24  28
ENDBRANCH   1  24
TORSDOF 8
ENDMDL
MODEL 3
REMARK VINA RESULT:      -6.7      1.436      2.022
REMARK  Name = 
REMARK  14 active torsions:
REMARK  status: ('A' for Active; 'I' for Inactive)
REMARK    1  A    between atoms: C_1  and  C_2
REMARK    2  A    between atoms: C_2  and  C_3
REMARK    3  A    between atoms: C_3  and  C_4
REMARK    4  A    between atoms: C_4  and  C_5
REMARK    5  A    between atoms: C_4  and  N_8
REMARK    6  A    between atoms: C_5  and  C_6
REMARK    7  A    between atoms: C_6  and  C_7
REMARK    8  A    between atoms: C_9  and  C_10
REMARK    9  A    between atoms: C_10  and  C_11
REMARK   10  A    between atoms: N_17  and  C_18
REMARK   11  A    between atoms: N_20  and  C_21
REMARK   12  A    between atoms: C_24  and  C_25
REMARK   13  A    between atoms: C_25  and  C_26
REMARK   14  A    between atoms: C_25  and  C_27
REMARK                            x       y       z     vdW  Elec       q    Type
REMARK                         _______ _______ _______ _____ _____    ______ ____
ROOT
ATOM      1  N   UNL     1       4.731   5.365  17.496  0.00  0.00    +0.000 N 
ATOM      2  C   UNL     1       4.884   6.753  17.449  0.00  0.00    +0.000 A 
ATOM      3  N   UNL     1       4.076   7.353  18.300  0.00  0.00    +0.000 NA
ATOM      4  C   UNL     1       3.366   6.364  18.886  0.00  0.00    +0.000 A 
ATOM      5  C   UNL     1       3.694   5.126  18.385  0.00  0.00    +0.000 A 
ATOM      6  C   UNL     1       2.922   3.958  18.718  0.00  0.00    +0.000 C 
ATOM      7  O   UNL     1       3.022   2.864  18.174  0.00  0.00    +0.000 OA
ATOM      8  N   UNL     1       1.923   4.208  19.644  0.00  0.00    +0.000 N 
ATOM      9  C   UNL     1       0.817   3.291  19.807  0.00  0.00    +0.000 C 
ATOM     10  C   UNL     1       2.003   5.345  20.545  0.00  0.00    +0.000 C 
ATOM     11  N   UNL     1       2.407   6.548  19.825  0.00  0.00    +0.000 N 
ENDROOT
BRANCH  11  12
ATOM     12  C   UNL     1       1.719   7.753  20.114  0.00  0.00    +0.000 A 
ATOM     13  C   UNL     1       1.357   8.027  21.443  0.00  0.00    +0.000 A 
ATOM     14  C   UNL     1       0.736   9.228  21.823  0.00  0.00    +0.000 A 
ATOM     15  C   UNL     1       0.463  10.219  20.881  0.00  0.00    +0.000 A 
ATOM     16  C   UNL     1       0.780   9.957  19.544  0.00  0.00    +0.000 A 
ATOM     17  C   UNL     1       1.379   8.744  19.159  0.00  0.00    +0.000 A 
ATOM     18 CL   UNL     1       1.579   8.540  17.444  0.00  0.00    +0.000 Cl
BRANCH  15  19
ATOM     19  C   UNL     1      -0.182  11.523  21.310  0.00  0.00    +0.000 C 
ATOM     20  C   UNL     1      -1.180  12.020  20.262  0.00  0.00    +0.000 C 
ATOM     21  C   UNL     1      -0.846  11.396  22.684  0.00  0.00    +0.000 C 
ENDBRANCH  15  19
ENDBRANCH  11  12
BRANCH   2  22
ATOM     22  C   UNL     1       5.816   7.521  16.569  0.00  0.00    +0.000 C 
ATOM     23  C   UNL     1       6.948   8.135  17.376  0.00  0.00    +0.000 C 
ENDBRANCH   2  22
BRANCH   1  24
ATOM     24  C   UNL     1       5.555   4.411  16.732  0.00  0.00    +0.000 C 
BRANCH  24  25
ATOM     25  C   UNL     1       5.289   4.393  15.207  0.00  0.00    +0.000 C 
BRANCH  25  27
ATOM     26  C   UNL     1       6.159   3.636  12.981  0.00  0.00    +0.000 C 
ATOM     27  C   UNL     1       6.521   4.319  14.300  0.00  0.00    +0.000 C 
ENDBRANCH  25  27
ENDBRANCH  24  25
BRANCH  24  28
ATOM     28  C   UNL     1       7.049   4.455  17.135  0.00  0.00    +0.000 C 
BRANCH  28  29
ATOM     29  C   UNL     1       7.348   4.445  18.633  0.00  0.00    +0.000 C 
ATOM     30  C   UNL     1       8.076   5.717  19.051  0.00  0.00    +0.000 C 
ENDBRANCH  28  29
ENDBRANCH  24  28
ENDBRANCH   1  24
TORSDOF 8
ENDMDL
MODEL 4
REMARK VINA RESULT:      -6.6      1.209      1.505
REMARK  Name = 
REMARK  14 active torsions:
REMARK  status: ('A' for Active; 'I' for Inactive)
REMARK    1  A    between atoms: C_1  and  C_2
REMARK    2  A    between atoms: C_2  and  C_3
REMARK    3  A    between atoms: C_3  and  C_4
REMARK    4  A    between atoms: C_4  and  C_5
REMARK    5  A    between atoms: C_4  and  N_8
REMARK    6  A    between atoms: C_5  and  C_6
REMARK    7  A    between atoms: C_6  and  C_7
REMARK    8  A    between atoms: C_9  and  C_10
REMARK    9  A    between atoms: C_10  and  C_11
REMARK   10  A    between atoms: N_17  and  C_18
REMARK   11  A    between atoms: N_20  and  C_21
REMARK   12  A    between atoms: C_24  and  C_25
REMARK   13  A    between atoms: C_25  and  C_26
REMARK   14  A    between atoms: C_25  and  C_27
REMARK                            x       y       z     vdW  Elec       q    Type
REMARK                         _______ _______ _______ _____ _____    ______ ____
ROOT
ATOM      1  N   UNL     1       5.529   5.497  17.220  0.00  0.00    +0.000 N 
ATOM      2  C   UNL     1       5.693   6.885  17.201  0.00  0.00    +0.000 A 
ATOM      3  N   UNL     1       4.688   7.494  17.798  0.00  0.00    +0.000 NA
ATOM      4  C   UNL     1       3.843   6.512  18.182  0.00  0.00    +0.000 A 
ATOM      5  C   UNL     1       4.291   5.268  17.801  0.00  0.00    +0.000 A 
ATOM      6  C   UNL     1       3.454   4.104  17.926  0.00  0.00    +0.000 C 
ATOM      7  O   UNL     1       3.694   3.004  17.441  0.00  0.00    +0.000 OA
ATOM      8  N   UNL     1       2.243   4.364  18.547  0.00  0.00    +0.000 N 
ATOM      9  C   UNL     1       1.132   3.448  18.416  0.00  0.00    +0.000 C 
ATOM     10  C   UNL     1       2.082   5.510  19.424  0.00  0.00    +0.000 C 
ATOM     11  N   UNL     1       2.668   6.706  18.827  0.00  0.00    +0.000 N 
ENDROOT
BRANCH  11  12
ATOM     12  C   UNL     1       1.931   7.914  18.907  0.00  0.00    +0.000 A 
ATOM     13  C   UNL     1       1.636   8.609  17.723  0.00  0.00    +0.000 A 
ATOM     14  C   UNL     1       0.853   9.775  17.708  0.00  0.00    +0.000 A 
ATOM     15  C   UNL     1       0.315  10.288  18.888  0.00  0.00    +0.000 A 
ATOM     16  C   UNL     1       0.623   9.635  20.087  0.00  0.00    +0.000 A 
ATOM     17  C   UNL     1       1.429   8.482  20.104  0.00  0.00    +0.000 A 
ATOM     18 CL   UNL     1       1.814   7.884  21.691  0.00  0.00    +0.000 Cl
BRANCH  15  19
ATOM     19  C   UNL     1      -0.552  11.532  18.856  0.00  0.00    +0.000 C 
ATOM     20  C   UNL     1      -1.706  11.379  17.862  0.00  0.00    +0.000 C 
ATOM     21  C   UNL     1      -1.073  11.890  20.250  0.00  0.00    +0.000 C 
ENDBRANCH  15  19
ENDBRANCH  11  12
BRANCH   2  22
ATOM     22  C   UNL     1       6.829   7.644  16.596  0.00  0.00    +0.000 C 
ATOM     23  C   UNL     1       7.603   8.407  17.658  0.00  0.00    +0.000 C 
ENDBRANCH   2  22
BRANCH   1  24
ATOM     24  C   UNL     1       6.525   4.535  16.716  0.00  0.00    +0.000 C 
BRANCH  24  25
ATOM     25  C   UNL     1       6.782   4.600  15.190  0.00  0.00    +0.000 C 
BRANCH  25  27
ATOM     26  C   UNL     1       6.189   3.706  12.925  0.00  0.00    +0.000 C 
ATOM     27  C   UNL     1       5.638   4.131  14.286  0.00  0.00    +0.000 C 
ENDBRANCH  25  27
ENDBRANCH  24  25
BRANCH  24  28
ATOM     28  C   UNL     1       7.800   4.481  17.592  0.00  0.00    +0.000 C 
BRANCH  28  29
ATOM     29  C   UNL     1       7.591   4.578  19.102  0.00  0.00    +0.000 C 
ATOM     30  C   UNL     1       8.262   5.824  19.665  0.00  0.00    +0.000 C 
ENDBRANCH  28  29
ENDBRANCH  24  28
ENDBRANCH   1  24
TORSDOF 8
ENDMDL
MODEL 5
REMARK VINA RESULT:      -6.6      4.394      9.308
REMARK  Name = 
REMARK  14 active torsions:
REMARK  status: ('A' for Active; 'I' for Inactive)
REMARK    1  A    between atoms: C_1  and  C_2
REMARK    2  A    between atoms: C_2  and  C_3
REMARK    3  A    between atoms: C_3  and  C_4
REMARK    4  A    between atoms: C_4  and  C_5
REMARK    5  A    between atoms: C_4  and  N_8
REMARK    6  A    between atoms: C_5  and  C_6
REMARK    7  A    between atoms: C_6  and  C_7
REMARK    8  A    between atoms: C_9  and  C_10
REMARK    9  A    between atoms: C_10  and  C_11
REMARK   10  A    between atoms: N_17  and  C_18
REMARK   11  A    between atoms: N_20  and  C_21
REMARK   12  A    between atoms: C_24  and  C_25
REMARK   13  A    between atoms: C_25  and  C_26
REMARK   14  A    between atoms: C_25  and  C_27
REMARK                            x       y       z     vdW  Elec       q    Type
REMARK                         _______ _______ _______ _____ _____    ______ ____
ROOT
ATOM      1  N   UNL     1       0.908  14.782  19.087  0.00  0.00    +0.000 N 
ATOM      2  C   UNL     1       2.021  14.162  18.511  0.00  0.00    +0.000 A 
ATOM      3  N   UNL     1       1.860  12.856  18.445  0.00  0.00    +0.000 NA
ATOM      4  C   UNL     1       0.657  12.608  19.007  0.00  0.00    +0.000 A 
ATOM      5  C   UNL     1       0.056  13.756  19.467  0.00  0.00    +0.000 A 
ATOM      6  C   UNL     1      -1.132  13.703  20.277  0.00  0.00    +0.000 C 
ATOM      7  O   UNL     1      -1.620  14.651  20.884  0.00  0.00    +0.000 OA
ATOM      8  N   UNL     1      -1.629  12.419  20.437  0.00  0.00    +0.000 N 
ATOM      9  C   UNL     1      -2.551  12.110  21.507  0.00  0.00    +0.000 C 
ATOM     10  C   UNL     1      -1.316  11.371  19.482  0.00  0.00    +0.000 C 
ATOM     11  N   UNL     1       0.105  11.379  19.152  0.00  0.00    +0.000 N 
ENDROOT
BRANCH  11  12
ATOM     12  C   UNL     1       0.778  10.133  19.093  0.00  0.00    +0.000 A 
ATOM     13  C   UNL     1       1.191   9.643  17.843  0.00  0.00    +0.000 A 
ATOM     14  C   UNL     1       1.923   8.452  17.705  0.00  0.00    +0.000 A 
ATOM     15  C   UNL     1       2.287   7.704  18.824  0.00  0.00    +0.000 A 
ATOM     16  C   UNL     1       1.857   8.151  20.079  0.00  0.00    +0.000 A 
ATOM     17  C   UNL     1       1.102   9.330  20.215  0.00  0.00    +0.000 A 
ATOM     18 CL   UNL     1       0.544   9.658  21.829  0.00  0.00    +0.000 Cl
BRANCH  15  19
ATOM     19  C   UNL     1       3.102   6.435  18.664  0.00  0.00    +0.000 C 
ATOM     20  C   UNL     1       2.216   5.253  18.263  0.00  0.00    +0.000 C 
ATOM     21  C   UNL     1       4.248   6.626  17.666  0.00  0.00    +0.000 C 
ENDBRANCH  15  19
ENDBRANCH  11  12
BRANCH   2  22
ATOM     22  C   UNL     1       3.263  14.831  18.020  0.00  0.00    +0.000 C 
ATOM     23  C   UNL     1       4.361  14.783  19.069  0.00  0.00    +0.000 C 
ENDBRANCH   2  22
BRANCH   1  24
ATOM     24  C   UNL     1       0.743  16.241  19.217  0.00  0.00    +0.000 C 
BRANCH  24  25
ATOM     25  C   UNL     1      -0.342  16.859  18.303  0.00  0.00    +0.000 C 
BRANCH  25  27
ATOM     26  C   UNL     1       0.323  18.421  16.459  0.00  0.00    +0.000 C 
ATOM     27  C   UNL     1      -0.148  18.327  17.909  0.00  0.00    +0.000 C 
ENDBRANCH  25  27
ENDBRANCH  24  25
BRANCH  24  28
ATOM     28  C   UNL     1       0.701  16.709  20.692  0.00  0.00    +0.000 C 
BRANCH  28  29
ATOM     29  C   UNL     1       1.608  17.882  21.058  0.00  0.00    +0.000 C 
ATOM     30  C   UNL     1       2.945  17.782  20.336  0.00  0.00    +0.000 C 
ENDBRANCH  28  29
ENDBRANCH  24  28
ENDBRANCH   1  24
TORSDOF 8
ENDMDL
MODEL 6
REMARK VINA RESULT:      -6.6      7.460     10.397
REMARK  Name = 
REMARK  14 active torsions:
REMARK  status: ('A' for Active; 'I' for Inactive)
REMARK    1  A    between atoms: C_1  and  C_2
REMARK    2  A    between atoms: C_2  and  C_3
REMARK    3  A    between atoms: C_3  and  C_4
REMARK    4  A    between atoms: C_4  and  C_5
REMARK    5  A    between atoms: C_4  and  N_8
REMARK    6  A    between atoms: C_5  and  C_6
REMARK    7  A    between atoms: C_6  and  C_7
REMARK    8  A    between atoms: C_9  and  C_10
REMARK    9  A    between atoms: C_10  and  C_11
REMARK   10  A    between atoms: N_17  and  C_18
REMARK   11  A    between atoms: N_20  and  C_21
REMARK   12  A    between atoms: C_24  and  C_25
REMARK   13  A    between atoms: C_25  and  C_26
REMARK   14  A    between atoms: C_25  and  C_27
REMARK                            x       y       z     vdW  Elec       q    Type
REMARK                         _______ _______ _______ _____ _____    ______ ____
ROOT
ATOM      1  N   UNL     1      -4.408  11.560  18.287  0.00  0.00    +0.000 N 
ATOM      2  C   UNL     1      -3.425  11.490  17.296  0.00  0.00    +0.000 A 
ATOM      3  N   UNL     1      -2.251  11.869  17.757  0.00  0.00    +0.000 NA
ATOM      4  C   UNL     1      -2.463  12.222  19.044  0.00  0.00    +0.000 A 
ATOM      5  C   UNL     1      -3.785  12.101  19.402  0.00  0.00    +0.000 A 
ATOM      6  C   UNL     1      -4.268  12.612  20.657  0.00  0.00    +0.000 C 
ATOM      7  O   UNL     1      -5.449  12.720  20.971  0.00  0.00    +0.000 OA
ATOM      8  N   UNL     1      -3.264  13.120  21.464  0.00  0.00    +0.000 N 
ATOM      9  C   UNL     1      -3.573  14.014  22.558  0.00  0.00    +0.000 C 
ATOM     10  C   UNL     1      -1.884  12.696  21.300  0.00  0.00    +0.000 C 
ATOM     11  N   UNL     1      -1.511  12.685  19.890  0.00  0.00    +0.000 N 
ENDROOT
BRANCH  11  12
ATOM     12  C   UNL     1      -0.247  13.221  19.536  0.00  0.00    +0.000 A 
ATOM     13  C   UNL     1       0.827  12.342  19.322  0.00  0.00    +0.000 A 
ATOM     14  C   UNL     1       2.092  12.786  18.902  0.00  0.00    +0.000 A 
ATOM     15  C   UNL     1       2.330  14.140  18.663  0.00  0.00    +0.000 A 
ATOM     16  C   UNL     1       1.287  15.041  18.903  0.00  0.00    +0.000 A 
ATOM     17  C   UNL     1       0.028  14.599  19.349  0.00  0.00    +0.000 A 
ATOM     18 CL   UNL     1      -1.101  15.867  19.720  0.00  0.00    +0.000 Cl
BRANCH  15  19
ATOM     19  C   UNL     1       3.692  14.602  18.182  0.00  0.00    +0.000 C 
ATOM     20  C   UNL     1       3.572  15.811  17.251  0.00  0.00    +0.000 C 
ATOM     21  C   UNL     1       4.628  14.904  19.356  0.00  0.00    +0.000 C 
ENDBRANCH  15  19
ENDBRANCH  11  12
BRANCH   2  22
ATOM     22  C   UNL     1      -3.614  11.057  15.878  0.00  0.00    +0.000 C 
ATOM     23  C   UNL     1      -2.839   9.783  15.587  0.00  0.00    +0.000 C 
ENDBRANCH   2  22
BRANCH   1  24
ATOM     24  C   UNL     1      -5.802  11.116  18.109  0.00  0.00    +0.000 C 
BRANCH  24  25
ATOM     25  C   UNL     1      -6.216   9.902  18.976  0.00  0.00    +0.000 C 
BRANCH  25  27
ATOM     26  C   UNL     1      -7.748   8.819  20.638  0.00  0.00    +0.000 C 
ATOM     27  C   UNL     1      -7.326  10.143  20.003  0.00  0.00    +0.000 C 
ENDBRANCH  25  27
ENDBRANCH  24  25
BRANCH  24  28
ATOM     28  C   UNL     1      -6.809  12.292  18.107  0.00  0.00    +0.000 C 
BRANCH  28  29
ATOM     29  C   UNL     1      -6.588  13.373  17.050  0.00  0.00    +0.000 C 
ATOM     30  C   UNL     1      -7.587  14.510  17.218  0.00  0.00    +0.000 C 
ENDBRANCH  28  29
ENDBRANCH  24  28
ENDBRANCH   1  24
TORSDOF 8
ENDMDL
MODEL 7
REMARK VINA RESULT:      -6.5      4.268      9.074
REMARK  Name = 
REMARK  14 active torsions:
REMARK  status: ('A' for Active; 'I' for Inactive)
REMARK    1  A    between atoms: C_1  and  C_2
REMARK    2  A    between atoms: C_2  and  C_3
REMARK    3  A    between atoms: C_3  and  C_4
REMARK    4  A    between atoms: C_4  and  C_5
REMARK    5  A    between atoms: C_4  and  N_8
REMARK    6  A    between atoms: C_5  and  C_6
REMARK    7  A    between atoms: C_6  and  C_7
REMARK    8  A    between atoms: C_9  and  C_10
REMARK    9  A    between atoms: C_10  and  C_11
REMARK   10  A    between atoms: N_17  and  C_18
REMARK   11  A    between atoms: N_20  and  C_21
REMARK   12  A    between atoms: C_24  and  C_25
REMARK   13  A    between atoms: C_25  and  C_26
REMARK   14  A    between atoms: C_25  and  C_27
REMARK                            x       y       z     vdW  Elec       q    Type
REMARK                         _______ _______ _______ _____ _____    ______ ____
ROOT
ATOM      1  N   UNL     1       0.972  14.448  19.623  0.00  0.00    +0.000 N 
ATOM      2  C   UNL     1       1.866  13.882  18.709  0.00  0.00    +0.000 A 
ATOM      3  N   UNL     1       1.724  12.574  18.647  0.00  0.00    +0.000 NA
ATOM      4  C   UNL     1       0.761  12.270  19.544  0.00  0.00    +0.000 A 
ATOM      5  C   UNL     1       0.305  13.384  20.209  0.00  0.00    +0.000 A 
ATOM      6  C   UNL     1      -0.571  13.268  21.345  0.00  0.00    +0.000 C 
ATOM      7  O   UNL     1      -0.869  14.181  22.107  0.00  0.00    +0.000 OA
ATOM      8  N   UNL     1      -0.962  11.964  21.604  0.00  0.00    +0.000 N 
ATOM      9  C   UNL     1      -1.500  11.594  22.894  0.00  0.00    +0.000 C 
ATOM     10  C   UNL     1      -0.936  10.953  20.562  0.00  0.00    +0.000 C 
ATOM     11  N   UNL     1       0.311  11.019  19.808  0.00  0.00    +0.000 N 
ENDROOT
BRANCH  11  12
ATOM     12  C   UNL     1       0.962   9.798  19.498  0.00  0.00    +0.000 A 
ATOM     13  C   UNL     1       1.325   9.541  18.166  0.00  0.00    +0.000 A 
ATOM     14  C   UNL     1       2.033   8.389  17.787  0.00  0.00    +0.000 A 
ATOM     15  C   UNL     1       2.424   7.447  18.737  0.00  0.00    +0.000 A 
ATOM     16  C   UNL     1       2.044   7.661  20.067  0.00  0.00    +0.000 A 
ATOM     17  C   UNL     1       1.312   8.802  20.443  0.00  0.00    +0.000 A 
ATOM     18 CL   UNL     1       0.816   8.834  22.109  0.00  0.00    +0.000 Cl
BRANCH  15  19
ATOM     19  C   UNL     1       3.213   6.221  18.318  0.00  0.00    +0.000 C 
ATOM     20  C   UNL     1       2.286   5.087  17.876  0.00  0.00    +0.000 C 
ATOM     21  C   UNL     1       4.232   6.556  17.225  0.00  0.00    +0.000 C 
ENDBRANCH  15  19
ENDBRANCH  11  12
BRANCH   2  22
ATOM     22  C   UNL     1       2.878  14.607  17.882  0.00  0.00    +0.000 C 
ATOM     23  C   UNL     1       4.258  14.524  18.511  0.00  0.00    +0.000 C 
ENDBRANCH   2  22
BRANCH   1  24
ATOM     24  C   UNL     1       0.821  15.896  19.850  0.00  0.00    +0.000 C 
BRANCH  24  25
ATOM     25  C   UNL     1       2.051  16.590  20.484  0.00  0.00    +0.000 C 
BRANCH  25  27
ATOM     26  C   UNL     1       3.723  15.820  22.186  0.00  0.00    +0.000 C 
ATOM     27  C   UNL     1       2.295  16.321  21.972  0.00  0.00    +0.000 C 
ENDBRANCH  25  27
ENDBRANCH  24  25
BRANCH  24  28
ATOM     28  C   UNL     1       0.210  16.632  18.633  0.00  0.00    +0.000 C 
BRANCH  28  29
ATOM     29  C   UNL     1       0.766  18.022  18.331  0.00  0.00    +0.000 C 
ATOM     30  C   UNL     1       1.370  18.075  16.934  0.00  0.00    +0.000 C 
ENDBRANCH  28  29
ENDBRANCH  24  28
ENDBRANCH   1  24
TORSDOF 8
ENDMDL
MODEL 8
REMARK VINA RESULT:      -6.5      4.587      9.533
REMARK  Name = 
REMARK  14 active torsions:
REMARK  status: ('A' for Active; 'I' for Inactive)
REMARK    1  A    between atoms: C_1  and  C_2
REMARK    2  A    between atoms: C_2  and  C_3
REMARK    3  A    between atoms: C_3  and  C_4
REMARK    4  A    between atoms: C_4  and  C_5
REMARK    5  A    between atoms: C_4  and  N_8
REMARK    6  A    between atoms: C_5  and  C_6
REMARK    7  A    between atoms: C_6  and  C_7
REMARK    8  A    between atoms: C_9  and  C_10
REMARK    9  A    between atoms: C_10  and  C_11
REMARK   10  A    between atoms: N_17  and  C_18
REMARK   11  A    between atoms: N_20  and  C_21
REMARK   12  A    between atoms: C_24  and  C_25
REMARK   13  A    between atoms: C_25  and  C_26
REMARK   14  A    between atoms: C_25  and  C_27
REMARK                            x       y       z     vdW  Elec       q    Type
REMARK                         _______ _______ _______ _____ _____    ______ ____
ROOT
ATOM      1  N   UNL     1       1.458  14.854  19.334  0.00  0.00    +0.000 N 
ATOM      2  C   UNL     1       2.638  14.117  19.204  0.00  0.00    +0.000 A 
ATOM      3  N   UNL     1       2.385  12.834  19.041  0.00  0.00    +0.000 NA
ATOM      4  C   UNL     1       1.040  12.718  19.098  0.00  0.00    +0.000 A 
ATOM      5  C   UNL     1       0.428  13.927  19.331  0.00  0.00    +0.000 A 
ATOM      6  C   UNL     1      -0.978  14.005  19.629  0.00  0.00    +0.000 C 
ATOM      7  O   UNL     1      -1.562  15.004  20.034  0.00  0.00    +0.000 OA
ATOM      8  N   UNL     1      -1.624  12.782  19.550  0.00  0.00    +0.000 N 
ATOM      9  C   UNL     1      -2.909  12.581  20.180  0.00  0.00    +0.000 C 
ATOM     10  C   UNL     1      -1.078  11.697  18.754  0.00  0.00    +0.000 C 
ATOM     11  N   UNL     1       0.355  11.554  18.986  0.00  0.00    +0.000 N 
ENDROOT
BRANCH  11  12
ATOM     12  C   UNL     1       0.872  10.244  19.148  0.00  0.00    +0.000 A 
ATOM     13  C   UNL     1       1.422   9.588  18.035  0.00  0.00    +0.000 A 
ATOM     14  C   UNL     1       2.016   8.319  18.125  0.00  0.00    +0.000 A 
ATOM     15  C   UNL     1       2.098   7.655  19.348  0.00  0.00    +0.000 A 
ATOM     16  C   UNL     1       1.525   8.270  20.467  0.00  0.00    +0.000 A 
ATOM     17  C   UNL     1       0.907   9.530  20.372  0.00  0.00    +0.000 A 
ATOM     18 CL   UNL     1       0.136  10.077  21.831  0.00  0.00    +0.000 Cl
BRANCH  15  19
ATOM     19  C   UNL     1       2.767   6.297  19.437  0.00  0.00    +0.000 C 
ATOM     20  C   UNL     1       2.064   5.396  20.454  0.00  0.00    +0.000 C 
ATOM     21  C   UNL     1       2.848   5.620  18.066  0.00  0.00    +0.000 C 
ENDBRANCH  15  19
ENDBRANCH  11  12
BRANCH   2  22
ATOM     22  C   UNL     1       4.034  14.648  19.240  0.00  0.00    +0.000 C 
ATOM     23  C   UNL     1       4.562  14.895  17.837  0.00  0.00    +0.000 C 
ENDBRANCH   2  22
BRANCH   1  24
ATOM     24  C   UNL     1       1.403  16.324  19.436  0.00  0.00    +0.000 C 
BRANCH  24  25
ATOM     25  C   UNL     1       2.156  16.923  20.648  0.00  0.00    +0.000 C 
BRANCH  25  27
ATOM     26  C   UNL     1       2.309  18.577  22.525  0.00  0.00    +0.000 C 
ATOM     27  C   UNL     1       1.372  17.911  21.518  0.00  0.00    +0.000 C 
ENDBRANCH  25  27
ENDBRANCH  24  25
BRANCH  24  28
ATOM     28  C   UNL     1       1.675  17.027  18.084  0.00  0.00    +0.000 C 
BRANCH  28  29
ATOM     29  C   UNL     1       1.015  18.390  17.884  0.00  0.00    +0.000 C 
ATOM     30  C   UNL     1       0.008  18.345  16.741  0.00  0.00    +0.000 C 
ENDBRANCH  28  29
ENDBRANCH  24  28
ENDBRANCH   1  24
TORSDOF 8
ENDMDL
MODEL 9
REMARK VINA RESULT:      -6.5      4.154      8.931
REMARK  Name = 
REMARK  14 active torsions:
REMARK  status: ('A' for Active; 'I' for Inactive)
REMARK    1  A    between atoms: C_1  and  C_2
REMARK    2  A    between atoms: C_2  and  C_3
REMARK    3  A    between atoms: C_3  and  C_4
REMARK    4  A    between atoms: C_4  and  C_5
REMARK    5  A    between atoms: C_4  and  N_8
REMARK    6  A    between atoms: C_5  and  C_6
REMARK    7  A    between atoms: C_6  and  C_7
REMARK    8  A    between atoms: C_9  and  C_10
REMARK    9  A    between atoms: C_10  and  C_11
REMARK   10  A    between atoms: N_17  and  C_18
REMARK   11  A    between atoms: N_20  and  C_21
REMARK   12  A    between atoms: C_24  and  C_25
REMARK   13  A    between atoms: C_25  and  C_26
REMARK   14  A    between atoms: C_25  and  C_27
REMARK                            x       y       z     vdW  Elec       q    Type
REMARK                         _______ _______ _______ _____ _____    ______ ____
ROOT
ATOM      1  N   UNL     1       1.244  14.209  19.699  0.00  0.00    +0.000 N 
ATOM      2  C   UNL     1       2.084  13.668  18.721  0.00  0.00    +0.000 A 
ATOM      3  N   UNL     1       1.906  12.367  18.604  0.00  0.00    +0.000 NA
ATOM      4  C   UNL     1       0.974  12.043  19.527  0.00  0.00    +0.000 A 
ATOM      5  C   UNL     1       0.575  13.134  20.262  0.00  0.00    +0.000 A 
ATOM      6  C   UNL     1      -0.256  12.984  21.428  0.00  0.00    +0.000 C 
ATOM      7  O   UNL     1      -0.498  13.866  22.244  0.00  0.00    +0.000 OA
ATOM      8  N   UNL     1      -0.668  11.678  21.642  0.00  0.00    +0.000 N 
ATOM      9  C   UNL     1      -1.161  11.260  22.935  0.00  0.00    +0.000 C 
ATOM     10  C   UNL     1      -0.711  10.719  20.553  0.00  0.00    +0.000 C 
ATOM     11  N   UNL     1       0.505  10.792  19.750  0.00  0.00    +0.000 N 
ENDROOT
BRANCH  11  12
ATOM     12  C   UNL     1       1.111   9.573  19.355  0.00  0.00    +0.000 A 
ATOM     13  C   UNL     1       1.334   9.337  17.989  0.00  0.00    +0.000 A 
ATOM     14  C   UNL     1       1.990   8.187  17.520  0.00  0.00    +0.000 A 
ATOM     15  C   UNL     1       2.468   7.225  18.410  0.00  0.00    +0.000 A 
ATOM     16  C   UNL     1       2.228   7.419  19.775  0.00  0.00    +0.000 A 
ATOM     17  C   UNL     1       1.547   8.557  20.242  0.00  0.00    +0.000 A 
ATOM     18 CL   UNL     1       1.224   8.564  21.951  0.00  0.00    +0.000 Cl
BRANCH  15  19
ATOM     19  C   UNL     1       3.201   6.002  17.892  0.00  0.00    +0.000 C 
ATOM     20  C   UNL     1       4.707   6.112  18.135  0.00  0.00    +0.000 C 
ATOM     21  C   UNL     1       2.638   4.713  18.498  0.00  0.00    +0.000 C 
ENDBRANCH  15  19
ENDBRANCH  11  12
BRANCH   2  22
ATOM     22  C   UNL     1       3.078  14.408  17.887  0.00  0.00    +0.000 C 
ATOM     23  C   UNL     1       4.332  14.726  18.684  0.00  0.00    +0.000 C 
ENDBRANCH   2  22
BRANCH   1  24
ATOM     24  C   UNL     1       1.139  15.648  20.001  0.00  0.00    +0.000 C 
BRANCH  24  25
ATOM     25  C   UNL     1      -0.269  16.258  19.792  0.00  0.00    +0.000 C 
BRANCH  25  27
ATOM     26  C   UNL     1       0.880  17.488  17.934  0.00  0.00    +0.000 C 
ATOM     27  C   UNL     1      -0.473  17.081  18.516  0.00  0.00    +0.000 C 
ENDBRANCH  25  27
ENDBRANCH  24  25
BRANCH  24  28
ATOM     28  C   UNL     1       1.827  16.031  21.333  0.00  0.00    +0.000 C 
BRANCH  28  29
ATOM     29  C   UNL     1       1.917  17.524  21.646  0.00  0.00    +0.000 C 
ATOM     30  C   UNL     1       3.094  18.162  20.921  0.00  0.00    +0.000 C 
ENDBRANCH  28  29
ENDBRANCH  24  28
ENDBRANCH   1  24
TORSDOF 8
ENDMDL
