MODEL 1
REMARK VINA RESULT:      -8.2      0.000      0.000
REMARK  Name = 
REMARK  8 active torsions:
REMARK  status: ('A' for Active; 'I' for Inactive)
REMARK    1  A    between atoms: C_1  and  C_2
REMARK    2  A    between atoms: C_2  and  C_3
REMARK    3  A    between atoms: C_2  and  O_4
REMARK    4  A    between atoms: O_4  and  C_5
REMARK    5  A    between atoms: C_5  and  C_6
REMARK    6  A    between atoms: N_8  and  C_9
REMARK    7  A    between atoms: C_9  and  C_10
REMARK    8  A    between atoms: C_16  and  C_17
REMARK                            x       y       z     vdW  Elec       q    Type
REMARK                         _______ _______ _______ _____ _____    ______ ____
ROOT
ATOM      1  C   UNL     1       4.550   5.427  18.413  0.00  0.00    +0.000 C 
ATOM      2  C   UNL     1       5.218   4.032  18.233  0.00  0.00    +0.000 C 
ATOM      3  N   UNL     1       5.177   3.233  19.468  0.00  0.00    +0.000 NA
ATOM      4  C   UNL     1       3.960   2.447  19.708  0.00  0.00    +0.000 C 
ATOM      5  C   UNL     1       2.680   3.119  19.213  0.00  0.00    +0.000 C 
ATOM      6  O   UNL     1       2.630   4.469  19.643  0.00  0.00    +0.000 OA
ATOM      7  C   UNL     1       3.000   5.351  18.591  0.00  0.00    +0.000 C 
ATOM      8  H   UNL     1       5.391   3.842  20.294  0.00  0.00    +0.000 HD
ENDROOT
BRANCH   7   9
ATOM      9  C   UNL     1       2.432   6.724  18.908  0.00  0.00    +0.000 A 
ATOM     10  C   UNL     1       2.269   7.685  17.891  0.00  0.00    +0.000 A 
ATOM     11  C   UNL     1       1.715   8.936  18.177  0.00  0.00    +0.000 A 
ATOM     12  C   UNL     1       1.317   9.245  19.483  0.00  0.00    +0.000 A 
ATOM     13 CL   UNL     1       0.603  10.811  19.826  0.00  0.00    +0.000 Cl
ATOM     14  C   UNL     1       1.486   8.305  20.504  0.00  0.00    +0.000 A 
ATOM     15  F   UNL     1       1.105   8.595  21.773  0.00  0.00    +0.000 F 
ATOM     16  C   UNL     1       2.042   7.053  20.219  0.00  0.00    +0.000 A 
ENDBRANCH   7   9
BRANCH   1  17
ATOM     17  C   UNL     1       4.914   6.346  17.206  0.00  0.00    +0.000 C 
BRANCH  17  20
ATOM     18  C   UNL     1       6.520   5.452  15.548  0.00  0.00    +0.000 C 
ATOM     19  O   UNL     1       7.442   6.043  16.093  0.00  0.00    +0.000 OA
ATOM     20  N   UNL     1       5.247   5.571  16.019  0.00  0.00    +0.000 N 
ATOM     21  H   UNL     1       4.484   5.079  15.530  0.00  0.00    +0.000 HD
BRANCH  18  22
ATOM     22  C   UNL     1       6.826   4.573  14.368  0.00  0.00    +0.000 C 
BRANCH  22  23
ATOM     23  O   UNL     1       5.626   4.085  13.805  0.00  0.00    +0.000 OA
BRANCH  23  25
ATOM     24  C   UNL     1       4.613   3.422  11.751  0.00  0.00    +0.000 C 
ATOM     25  C   UNL     1       5.871   3.339  12.619  0.00  0.00    +0.000 C 
ATOM     26  C   UNL     1       7.065   3.883  11.807  0.00  0.00    +0.000 C 
ENDBRANCH  23  25
ENDBRANCH  22  23
ENDBRANCH  18  22
ENDBRANCH  17  20
ENDBRANCH   1  17
TORSDOF 6
ENDMDL
MODEL 2
REMARK VINA RESULT:      -8.1      0.954      1.374
REMARK  Name = 
REMARK  8 active torsions:
REMARK  status: ('A' for Active; 'I' for Inactive)
REMARK    1  A    between atoms: C_1  and  C_2
REMARK    2  A    between atoms: C_2  and  C_3
REMARK    3  A    between atoms: C_2  and  O_4
REMARK    4  A    between atoms: O_4  and  C_5
REMARK    5  A    between atoms: C_5  and  C_6
REMARK    6  A    between atoms: N_8  and  C_9
REMARK    7  A    between atoms: C_9  and  C_10
REMARK    8  A    between atoms: C_16  and  C_17
REMARK                            x       y       z     vdW  Elec       q    Type
REMARK                         _______ _______ _______ _____ _____    ______ ____
ROOT
ATOM      1  C   UNL     1       4.539   5.275  18.565  0.00  0.00    +0.000 C 
ATOM      2  C   UNL     1       5.215   3.885  18.373  0.00  0.00    +0.000 C 
ATOM      3  N   UNL     1       5.163   3.069  19.597  0.00  0.00    +0.000 NA
ATOM      4  C   UNL     1       3.947   2.275  19.811  0.00  0.00    +0.000 C 
ATOM      5  C   UNL     1       2.669   2.947  19.311  0.00  0.00    +0.000 C 
ATOM      6  O   UNL     1       2.608   4.291  19.759  0.00  0.00    +0.000 OA
ATOM      7  C   UNL     1       2.987   5.190  18.724  0.00  0.00    +0.000 C 
ATOM      8  H   UNL     1       5.364   3.668  20.433  0.00  0.00    +0.000 HD
ENDROOT
BRANCH   7   9
ATOM      9  C   UNL     1       2.408   6.556  19.053  0.00  0.00    +0.000 A 
ATOM     10  C   UNL     1       2.011   6.868  20.368  0.00  0.00    +0.000 A 
ATOM     11  C   UNL     1       1.511   8.135  20.676  0.00  0.00    +0.000 A 
ATOM     12  C   UNL     1       1.397   9.108  19.676  0.00  0.00    +0.000 A 
ATOM     13 CL   UNL     1       0.787  10.703  20.080  0.00  0.00    +0.000 Cl
ATOM     14  C   UNL     1       1.775   8.806  18.364  0.00  0.00    +0.000 A 
ATOM     15  F   UNL     1       1.667   9.740  17.387  0.00  0.00    +0.000 F 
ATOM     16  C   UNL     1       2.275   7.536  18.054  0.00  0.00    +0.000 A 
ENDBRANCH   7   9
BRANCH   1  17
ATOM     17  C   UNL     1       4.912   6.212  17.376  0.00  0.00    +0.000 C 
BRANCH  17  20
ATOM     18  C   UNL     1       6.526   5.500  15.638  0.00  0.00    +0.000 C 
ATOM     19  O   UNL     1       7.387   6.230  16.111  0.00  0.00    +0.000 OA
ATOM     20  N   UNL     1       5.279   5.455  16.187  0.00  0.00    +0.000 N 
ATOM     21  H   UNL     1       4.565   4.847  15.758  0.00  0.00    +0.000 HD
BRANCH  18  22
ATOM     22  C   UNL     1       6.882   4.637  14.461  0.00  0.00    +0.000 C 
BRANCH  22  23
ATOM     23  O   UNL     1       5.713   4.067  13.910  0.00  0.00    +0.000 OA
BRANCH  23  25
ATOM     24  C   UNL     1       4.712   3.441  11.838  0.00  0.00    +0.000 C 
ATOM     25  C   UNL     1       5.986   3.398  12.685  0.00  0.00    +0.000 C 
ATOM     26  C   UNL     1       7.129   4.058  11.886  0.00  0.00    +0.000 C 
ENDBRANCH  23  25
ENDBRANCH  22  23
ENDBRANCH  18  22
ENDBRANCH  17  20
ENDBRANCH   1  17
TORSDOF 6
ENDMDL
MODEL 3
REMARK VINA RESULT:      -8.1      4.079      7.761
REMARK  Name = 
REMARK  8 active torsions:
REMARK  status: ('A' for Active; 'I' for Inactive)
REMARK    1  A    between atoms: C_1  and  C_2
REMARK    2  A    between atoms: C_2  and  C_3
REMARK    3  A    between atoms: C_2  and  O_4
REMARK    4  A    between atoms: O_4  and  C_5
REMARK    5  A    between atoms: C_5  and  C_6
REMARK    6  A    between atoms: N_8  and  C_9
REMARK    7  A    between atoms: C_9  and  C_10
REMARK    8  A    between atoms: C_16  and  C_17
REMARK                            x       y       z     vdW  Elec       q    Type
REMARK                         _______ _______ _______ _____ _____    ______ ____
ROOT
ATOM      1  C   UNL     1       2.239   5.012  19.363  0.00  0.00    +0.000 C 
ATOM      2  C   UNL     1       1.182   4.812  20.489  0.00  0.00    +0.000 C 
ATOM      3  N   UNL     1       0.685   3.427  20.542  0.00  0.00    +0.000 NA
ATOM      4  C   UNL     1       1.475   2.471  21.328  0.00  0.00    +0.000 C 
ATOM      5  C   UNL     1       2.981   2.718  21.275  0.00  0.00    +0.000 C 
ATOM      6  O   UNL     1       3.406   2.907  19.936  0.00  0.00    +0.000 OA
ATOM      7  C   UNL     1       3.593   4.289  19.652  0.00  0.00    +0.000 C 
ATOM      8  H   UNL     1       0.529   3.067  19.571  0.00  0.00    +0.000 HD
ENDROOT
BRANCH   7   9
ATOM      9  C   UNL     1       4.524   4.400  18.456  0.00  0.00    +0.000 A 
ATOM     10  C   UNL     1       4.111   3.962  17.183  0.00  0.00    +0.000 A 
ATOM     11  C   UNL     1       4.955   4.095  16.078  0.00  0.00    +0.000 A 
ATOM     12  C   UNL     1       6.224   4.667  16.228  0.00  0.00    +0.000 A 
ATOM     13 CL   UNL     1       7.267   4.849  14.828  0.00  0.00    +0.000 Cl
ATOM     14  C   UNL     1       6.651   5.094  17.489  0.00  0.00    +0.000 A 
ATOM     15  F   UNL     1       7.879   5.647  17.646  0.00  0.00    +0.000 F 
ATOM     16  C   UNL     1       5.807   4.959  18.597  0.00  0.00    +0.000 A 
ENDBRANCH   7   9
BRANCH   1  17
ATOM     17  C   UNL     1       2.478   6.536  19.128  0.00  0.00    +0.000 C 
BRANCH  17  20
ATOM     18  C   UNL     1       1.572   8.552  20.243  0.00  0.00    +0.000 C 
ATOM     19  O   UNL     1       1.340   9.071  19.159  0.00  0.00    +0.000 OA
ATOM     20  N   UNL     1       2.153   7.322  20.311  0.00  0.00    +0.000 N 
ATOM     21  H   UNL     1       2.357   6.914  21.237  0.00  0.00    +0.000 HD
BRANCH  18  22
ATOM     22  C   UNL     1       1.178   9.289  21.492  0.00  0.00    +0.000 C 
BRANCH  22  23
ATOM     23  O   UNL     1       0.128  10.191  21.209  0.00  0.00    +0.000 OA
BRANCH  23  25
ATOM     24  C   UNL     1      -0.155   9.552  23.488  0.00  0.00    +0.000 C 
ATOM     25  C   UNL     1      -0.760  10.321  22.313  0.00  0.00    +0.000 C 
ATOM     26  C   UNL     1      -0.969  11.789  22.741  0.00  0.00    +0.000 C 
ENDBRANCH  23  25
ENDBRANCH  22  23
ENDBRANCH  18  22
ENDBRANCH  17  20
ENDBRANCH   1  17
TORSDOF 6
ENDMDL
MODEL 4
REMARK VINA RESULT:      -8.0      4.114      7.492
REMARK  Name = 
REMARK  8 active torsions:
REMARK  status: ('A' for Active; 'I' for Inactive)
REMARK    1  A    between atoms: C_1  and  C_2
REMARK    2  A    between atoms: C_2  and  C_3
REMARK    3  A    between atoms: C_2  and  O_4
REMARK    4  A    between atoms: O_4  and  C_5
REMARK    5  A    between atoms: C_5  and  C_6
REMARK    6  A    between atoms: N_8  and  C_9
REMARK    7  A    between atoms: C_9  and  C_10
REMARK    8  A    between atoms: C_16  and  C_17
REMARK                            x       y       z     vdW  Elec       q    Type
REMARK                         _______ _______ _______ _____ _____    ______ ____
ROOT
ATOM      1  C   UNL     1       2.461   5.198  19.440  0.00  0.00    +0.000 C 
ATOM      2  C   UNL     1       1.431   5.103  20.605  0.00  0.00    +0.000 C 
ATOM      3  N   UNL     1       0.675   3.841  20.574  0.00  0.00    +0.000 NA
ATOM      4  C   UNL     1       1.293   2.682  21.231  0.00  0.00    +0.000 C 
ATOM      5  C   UNL     1       2.815   2.639  21.111  0.00  0.00    +0.000 C 
ATOM      6  O   UNL     1       3.214   2.865  19.770  0.00  0.00    +0.000 OA
ATOM      7  C   UNL     1       3.657   4.204  19.589  0.00  0.00    +0.000 C 
ATOM      8  H   UNL     1       0.411   3.607  19.587  0.00  0.00    +0.000 HD
ENDROOT
BRANCH   7   9
ATOM      9  C   UNL     1       4.542   4.244  18.355  0.00  0.00    +0.000 A 
ATOM     10  C   UNL     1       3.994   4.040  17.073  0.00  0.00    +0.000 A 
ATOM     11  C   UNL     1       4.802   4.110  15.936  0.00  0.00    +0.000 A 
ATOM     12  C   UNL     1       6.169   4.383  16.061  0.00  0.00    +0.000 A 
ATOM     13 CL   UNL     1       7.170   4.489  14.624  0.00  0.00    +0.000 Cl
ATOM     14  C   UNL     1       6.727   4.574  17.329  0.00  0.00    +0.000 A 
ATOM     15  F   UNL     1       8.051   4.838  17.462  0.00  0.00    +0.000 F 
ATOM     16  C   UNL     1       5.919   4.503  18.469  0.00  0.00    +0.000 A 
ENDBRANCH   7   9
BRANCH   1  17
ATOM     17  C   UNL     1       2.984   6.662  19.317  0.00  0.00    +0.000 C 
BRANCH  17  20
ATOM     18  C   UNL     1       1.626   8.721  19.096  0.00  0.00    +0.000 C 
ATOM     19  O   UNL     1       2.131   8.960  18.007  0.00  0.00    +0.000 OA
ATOM     20  N   UNL     1       2.011   7.627  19.812  0.00  0.00    +0.000 N 
ATOM     21  H   UNL     1       1.585   7.458  20.736  0.00  0.00    +0.000 HD
BRANCH  18  22
ATOM     22  C   UNL     1       0.557   9.642  19.611  0.00  0.00    +0.000 C 
BRANCH  22  23
ATOM     23  O   UNL     1       0.067   9.168  20.849  0.00  0.00    +0.000 OA
BRANCH  23  25
ATOM     24  C   UNL     1      -0.500  11.358  21.604  0.00  0.00    +0.000 C 
ATOM     25  C   UNL     1       0.315  10.097  21.898  0.00  0.00    +0.000 C 
ATOM     26  C   UNL     1      -0.098   9.556  23.283  0.00  0.00    +0.000 C 
ENDBRANCH  23  25
ENDBRANCH  22  23
ENDBRANCH  18  22
ENDBRANCH  17  20
ENDBRANCH   1  17
TORSDOF 6
ENDMDL
MODEL 5
REMARK VINA RESULT:      -8.0      4.117      7.199
REMARK  Name = 
REMARK  8 active torsions:
REMARK  status: ('A' for Active; 'I' for Inactive)
REMARK    1  A    between atoms: C_1  and  C_2
REMARK    2  A    between atoms: C_2  and  C_3
REMARK    3  A    between atoms: C_2  and  O_4
REMARK    4  A    between atoms: O_4  and  C_5
REMARK    5  A    between atoms: C_5  and  C_6
REMARK    6  A    between atoms: N_8  and  C_9
REMARK    7  A    between atoms: C_9  and  C_10
REMARK    8  A    between atoms: C_16  and  C_17
REMARK                            x       y       z     vdW  Elec       q    Type
REMARK                         _______ _______ _______ _____ _____    ______ ____
ROOT
ATOM      1  C   UNL     1       2.409   5.234  19.442  0.00  0.00    +0.000 C 
ATOM      2  C   UNL     1       1.368   5.122  20.595  0.00  0.00    +0.000 C 
ATOM      3  N   UNL     1       0.671   3.826  20.590  0.00  0.00    +0.000 NA
ATOM      4  C   UNL     1       1.332   2.717  21.288  0.00  0.00    +0.000 C 
ATOM      5  C   UNL     1       2.856   2.741  21.190  0.00  0.00    +0.000 C 
ATOM      6  O   UNL     1       3.264   2.948  19.848  0.00  0.00    +0.000 OA
ATOM      7  C   UNL     1       3.647   4.301  19.636  0.00  0.00    +0.000 C 
ATOM      8  H   UNL     1       0.433   3.554  19.606  0.00  0.00    +0.000 HD
ENDROOT
BRANCH   7   9
ATOM      9  C   UNL     1       4.548   4.347  18.413  0.00  0.00    +0.000 A 
ATOM     10  C   UNL     1       4.020   4.126  17.125  0.00  0.00    +0.000 A 
ATOM     11  C   UNL     1       4.842   4.202  15.998  0.00  0.00    +0.000 A 
ATOM     12  C   UNL     1       6.203   4.498  16.140  0.00  0.00    +0.000 A 
ATOM     13 CL   UNL     1       7.221   4.612  14.715  0.00  0.00    +0.000 Cl
ATOM     14  C   UNL     1       6.741   4.706  17.414  0.00  0.00    +0.000 A 
ATOM     15  F   UNL     1       8.059   4.993  17.562  0.00  0.00    +0.000 F 
ATOM     16  C   UNL     1       5.919   4.629  18.543  0.00  0.00    +0.000 A 
ENDBRANCH   7   9
BRANCH   1  17
ATOM     17  C   UNL     1       2.866   6.716  19.285  0.00  0.00    +0.000 C 
BRANCH  17  20
ATOM     18  C   UNL     1       1.530   8.798  19.399  0.00  0.00    +0.000 C 
ATOM     19  O   UNL     1       1.934   9.140  18.295  0.00  0.00    +0.000 OA
ATOM     20  N   UNL     1       1.961   7.635  19.963  0.00  0.00    +0.000 N 
ATOM     21  H   UNL     1       1.622   7.378  20.902  0.00  0.00    +0.000 HD
BRANCH  18  22
ATOM     22  C   UNL     1       0.531   9.672  20.102  0.00  0.00    +0.000 C 
BRANCH  22  23
ATOM     23  O   UNL     1       0.086  10.693  19.233  0.00  0.00    +0.000 OA
BRANCH  23  25
ATOM     24  C   UNL     1      -1.947  11.926  19.068  0.00  0.00    +0.000 C 
ATOM     25  C   UNL     1      -1.295  10.550  18.923  0.00  0.00    +0.000 C 
ATOM     26  C   UNL     1      -1.535  10.042  17.486  0.00  0.00    +0.000 C 
ENDBRANCH  23  25
ENDBRANCH  22  23
ENDBRANCH  18  22
ENDBRANCH  17  20
ENDBRANCH   1  17
TORSDOF 6
ENDMDL
MODEL 6
REMARK VINA RESULT:      -8.0      4.160      7.774
REMARK  Name = 
REMARK  8 active torsions:
REMARK  status: ('A' for Active; 'I' for Inactive)
REMARK    1  A    between atoms: C_1  and  C_2
REMARK    2  A    between atoms: C_2  and  C_3
REMARK    3  A    between atoms: C_2  and  O_4
REMARK    4  A    between atoms: O_4  and  C_5
REMARK    5  A    between atoms: C_5  and  C_6
REMARK    6  A    between atoms: N_8  and  C_9
REMARK    7  A    between atoms: C_9  and  C_10
REMARK    8  A    between atoms: C_16  and  C_17
REMARK                            x       y       z     vdW  Elec       q    Type
REMARK                         _______ _______ _______ _____ _____    ______ ____
ROOT
ATOM      1  C   UNL     1       2.264   5.163  19.442  0.00  0.00    +0.000 C 
ATOM      2  C   UNL     1       1.168   4.912  20.520  0.00  0.00    +0.000 C 
ATOM      3  N   UNL     1       0.638   3.540  20.463  0.00  0.00    +0.000 NA
ATOM      4  C   UNL     1       1.381   2.512  21.202  0.00  0.00    +0.000 C 
ATOM      5  C   UNL     1       2.894   2.724  21.209  0.00  0.00    +0.000 C 
ATOM      6  O   UNL     1       3.363   2.994  19.899  0.00  0.00    +0.000 OA
ATOM      7  C   UNL     1       3.591   4.387  19.718  0.00  0.00    +0.000 C 
ATOM      8  H   UNL     1       0.503   3.252  19.465  0.00  0.00    +0.000 HD
ENDROOT
BRANCH   7   9
ATOM      9  C   UNL     1       4.560   4.557  18.559  0.00  0.00    +0.000 A 
ATOM     10  C   UNL     1       5.878   4.999  18.786  0.00  0.00    +0.000 A 
ATOM     11  C   UNL     1       6.777   5.123  17.724  0.00  0.00    +0.000 A 
ATOM     12  C   UNL     1       6.374   4.810  16.421  0.00  0.00    +0.000 A 
ATOM     13 CL   UNL     1       7.519   4.949  15.099  0.00  0.00    +0.000 Cl
ATOM     14  C   UNL     1       5.063   4.383  16.181  0.00  0.00    +0.000 A 
ATOM     15  F   UNL     1       4.661   4.079  14.922  0.00  0.00    +0.000 F 
ATOM     16  C   UNL     1       4.161   4.260  17.243  0.00  0.00    +0.000 A 
ENDBRANCH   7   9
BRANCH   1  17
ATOM     17  C   UNL     1       2.544   6.692  19.321  0.00  0.00    +0.000 C 
BRANCH  17  20
ATOM     18  C   UNL     1       1.485   8.587  20.512  0.00  0.00    +0.000 C 
ATOM     19  O   UNL     1       1.198   9.120  19.449  0.00  0.00    +0.000 OA
ATOM     20  N   UNL     1       2.168   7.408  20.533  0.00  0.00    +0.000 N 
ATOM     21  H   UNL     1       2.416   6.988  21.442  0.00  0.00    +0.000 HD
BRANCH  18  22
ATOM     22  C   UNL     1       1.045   9.245  21.789  0.00  0.00    +0.000 C 
BRANCH  22  23
ATOM     23  O   UNL     1       1.026  10.648  21.626  0.00  0.00    +0.000 OA
BRANCH  23  25
ATOM     24  C   UNL     1      -1.071  11.575  20.973  0.00  0.00    +0.000 C 
ATOM     25  C   UNL     1      -0.165  11.220  22.153  0.00  0.00    +0.000 C 
ATOM     26  C   UNL     1      -0.928  10.255  23.085  0.00  0.00    +0.000 C 
ENDBRANCH  23  25
ENDBRANCH  22  23
ENDBRANCH  18  22
ENDBRANCH  17  20
ENDBRANCH   1  17
TORSDOF 6
ENDMDL
MODEL 7
REMARK VINA RESULT:      -7.9      1.720      2.308
REMARK  Name = 
REMARK  8 active torsions:
REMARK  status: ('A' for Active; 'I' for Inactive)
REMARK    1  A    between atoms: C_1  and  C_2
REMARK    2  A    between atoms: C_2  and  C_3
REMARK    3  A    between atoms: C_2  and  O_4
REMARK    4  A    between atoms: O_4  and  C_5
REMARK    5  A    between atoms: C_5  and  C_6
REMARK    6  A    between atoms: N_8  and  C_9
REMARK    7  A    between atoms: C_9  and  C_10
REMARK    8  A    between atoms: C_16  and  C_17
REMARK                            x       y       z     vdW  Elec       q    Type
REMARK                         _______ _______ _______ _____ _____    ______ ____
ROOT
ATOM      1  C   UNL     1       3.842   4.632  19.557  0.00  0.00    +0.000 C 
ATOM      2  C   UNL     1       4.217   3.129  19.399  0.00  0.00    +0.000 C 
ATOM      3  N   UNL     1       3.235   2.241  20.042  0.00  0.00    +0.000 NA
ATOM      4  C   UNL     1       2.058   1.871  19.246  0.00  0.00    +0.000 C 
ATOM      5  C   UNL     1       1.563   2.978  18.316  0.00  0.00    +0.000 C 
ATOM      6  O   UNL     1       1.466   4.207  19.016  0.00  0.00    +0.000 OA
ATOM      7  C   UNL     1       2.580   5.044  18.733  0.00  0.00    +0.000 C 
ATOM      8  H   UNL     1       2.944   2.641  20.966  0.00  0.00    +0.000 HD
ENDROOT
BRANCH   7   9
ATOM      9  C   UNL     1       2.183   6.477  19.044  0.00  0.00    +0.000 A 
ATOM     10  C   UNL     1       1.779   6.842  20.343  0.00  0.00    +0.000 A 
ATOM     11  C   UNL     1       1.446   8.167  20.636  0.00  0.00    +0.000 A 
ATOM     12  C   UNL     1       1.510   9.145  19.637  0.00  0.00    +0.000 A 
ATOM     13 CL   UNL     1       1.110  10.810  20.023  0.00  0.00    +0.000 Cl
ATOM     14  C   UNL     1       1.896   8.792  18.341  0.00  0.00    +0.000 A 
ATOM     15  F   UNL     1       1.960   9.732  17.365  0.00  0.00    +0.000 F 
ATOM     16  C   UNL     1       2.229   7.466  18.045  0.00  0.00    +0.000 A 
ENDBRANCH   7   9
BRANCH   1  17
ATOM     17  C   UNL     1       5.060   5.524  19.167  0.00  0.00    +0.000 C 
BRANCH  17  20
ATOM     18  C   UNL     1       6.912   4.818  17.683  0.00  0.00    +0.000 C 
ATOM     19  O   UNL     1       7.702   4.859  18.617  0.00  0.00    +0.000 OA
ATOM     20  N   UNL     1       5.605   5.155  17.867  0.00  0.00    +0.000 N 
ATOM     21  H   UNL     1       4.963   5.132  17.060  0.00  0.00    +0.000 HD
BRANCH  18  22
ATOM     22  C   UNL     1       7.410   4.363  16.341  0.00  0.00    +0.000 C 
BRANCH  22  23
ATOM     23  O   UNL     1       7.500   5.465  15.461  0.00  0.00    +0.000 OA
BRANCH  23  25
ATOM     24  C   UNL     1       7.866   5.251  13.114  0.00  0.00    +0.000 C 
ATOM     25  C   UNL     1       6.825   5.211  14.235  0.00  0.00    +0.000 C 
ATOM     26  C   UNL     1       6.130   3.833  14.210  0.00  0.00    +0.000 C 
ENDBRANCH  23  25
ENDBRANCH  22  23
ENDBRANCH  18  22
ENDBRANCH  17  20
ENDBRANCH   1  17
TORSDOF 6
ENDMDL
MODEL 8
REMARK VINA RESULT:      -7.9      1.344      1.757
REMARK  Name = 
REMARK  8 active torsions:
REMARK  status: ('A' for Active; 'I' for Inactive)
REMARK    1  A    between atoms: C_1  and  C_2
REMARK    2  A    between atoms: C_2  and  C_3
REMARK    3  A    between atoms: C_2  and  O_4
REMARK    4  A    between atoms: O_4  and  C_5
REMARK    5  A    between atoms: C_5  and  C_6
REMARK    6  A    between atoms: N_8  and  C_9
REMARK    7  A    between atoms: C_9  and  C_10
REMARK    8  A    between atoms: C_16  and  C_17
REMARK                            x       y       z     vdW  Elec       q    Type
REMARK                         _______ _______ _______ _____ _____    ______ ____
ROOT
ATOM      1  C   UNL     1       3.832   4.606  19.577  0.00  0.00    +0.000 C 
ATOM      2  C   UNL     1       4.151   3.084  19.498  0.00  0.00    +0.000 C 
ATOM      3  N   UNL     1       3.089   2.262  20.101  0.00  0.00    +0.000 NA
ATOM      4  C   UNL     1       1.954   1.912  19.238  0.00  0.00    +0.000 C 
ATOM      5  C   UNL     1       1.573   3.003  18.238  0.00  0.00    +0.000 C 
ATOM      6  O   UNL     1       1.482   4.260  18.887  0.00  0.00    +0.000 OA
ATOM      7  C   UNL     1       2.649   5.038  18.653  0.00  0.00    +0.000 C 
ATOM      8  H   UNL     1       2.754   2.709  20.988  0.00  0.00    +0.000 HD
ENDROOT
BRANCH   7   9
ATOM      9  C   UNL     1       2.295   6.497  18.886  0.00  0.00    +0.000 A 
ATOM     10  C   UNL     1       2.368   7.430  17.833  0.00  0.00    +0.000 A 
ATOM     11  C   UNL     1       2.010   8.764  18.040  0.00  0.00    +0.000 A 
ATOM     12  C   UNL     1       1.576   9.187  19.302  0.00  0.00    +0.000 A 
ATOM     13 CL   UNL     1       1.108  10.862  19.545  0.00  0.00    +0.000 Cl
ATOM     14  C   UNL     1       1.512   8.274  20.359  0.00  0.00    +0.000 A 
ATOM     15  F   UNL     1       1.094   8.674  21.586  0.00  0.00    +0.000 F 
ATOM     16  C   UNL     1       1.872   6.938  20.153  0.00  0.00    +0.000 A 
ENDBRANCH   7   9
BRANCH   1  17
ATOM     17  C   UNL     1       5.113   5.431  19.242  0.00  0.00    +0.000 C 
BRANCH  17  20
ATOM     18  C   UNL     1       6.874   4.753  17.640  0.00  0.00    +0.000 C 
ATOM     19  O   UNL     1       7.689   4.655  18.548  0.00  0.00    +0.000 OA
ATOM     20  N   UNL     1       5.597   5.153  17.897  0.00  0.00    +0.000 N 
ATOM     21  H   UNL     1       4.935   5.247  17.112  0.00  0.00    +0.000 HD
BRANCH  18  22
ATOM     22  C   UNL     1       7.305   4.397  16.246  0.00  0.00    +0.000 C 
BRANCH  22  23
ATOM     23  O   UNL     1       6.200   3.919  15.507  0.00  0.00    +0.000 OA
BRANCH  23  25
ATOM     24  C   UNL     1       7.474   5.165  13.924  0.00  0.00    +0.000 C 
ATOM     25  C   UNL     1       6.108   4.551  14.236  0.00  0.00    +0.000 C 
ATOM     26  C   UNL     1       5.740   3.568  13.105  0.00  0.00    +0.000 C 
ENDBRANCH  23  25
ENDBRANCH  22  23
ENDBRANCH  18  22
ENDBRANCH  17  20
ENDBRANCH   1  17
TORSDOF 6
ENDMDL
MODEL 9
REMARK VINA RESULT:      -7.8      1.348      1.605
REMARK  Name = 
REMARK  8 active torsions:
REMARK  status: ('A' for Active; 'I' for Inactive)
REMARK    1  A    between atoms: C_1  and  C_2
REMARK    2  A    between atoms: C_2  and  C_3
REMARK    3  A    between atoms: C_2  and  O_4
REMARK    4  A    between atoms: O_4  and  C_5
REMARK    5  A    between atoms: C_5  and  C_6
REMARK    6  A    between atoms: N_8  and  C_9
REMARK    7  A    between atoms: C_9  and  C_10
REMARK    8  A    between atoms: C_16  and  C_17
REMARK                            x       y       z     vdW  Elec       q    Type
REMARK                         _______ _______ _______ _____ _____    ______ ____
ROOT
ATOM      1  C   UNL     1       3.847   4.673  19.605  0.00  0.00    +0.000 C 
ATOM      2  C   UNL     1       4.177   3.154  19.517  0.00  0.00    +0.000 C 
ATOM      3  N   UNL     1       3.102   2.319  20.077  0.00  0.00    +0.000 NA
ATOM      4  C   UNL     1       1.996   1.973  19.175  0.00  0.00    +0.000 C 
ATOM      5  C   UNL     1       1.640   3.074  18.178  0.00  0.00    +0.000 C 
ATOM      6  O   UNL     1       1.521   4.322  18.839  0.00  0.00    +0.000 OA
ATOM      7  C   UNL     1       2.690   5.111  18.651  0.00  0.00    +0.000 C 
ATOM      8  H   UNL     1       2.737   2.752  20.958  0.00  0.00    +0.000 HD
ENDROOT
BRANCH   7   9
ATOM      9  C   UNL     1       2.320   6.565  18.891  0.00  0.00    +0.000 A 
ATOM     10  C   UNL     1       2.427   7.512  17.855  0.00  0.00    +0.000 A 
ATOM     11  C   UNL     1       2.055   8.842  18.067  0.00  0.00    +0.000 A 
ATOM     12  C   UNL     1       1.573   9.245  19.318  0.00  0.00    +0.000 A 
ATOM     13 CL   UNL     1       1.088  10.914  19.567  0.00  0.00    +0.000 Cl
ATOM     14  C   UNL     1       1.476   8.316  20.359  0.00  0.00    +0.000 A 
ATOM     15  F   UNL     1       1.011   8.697  21.576  0.00  0.00    +0.000 F 
ATOM     16  C   UNL     1       1.849   6.985  20.148  0.00  0.00    +0.000 A 
ENDBRANCH   7   9
BRANCH   1  17
ATOM     17  C   UNL     1       5.132   5.510  19.320  0.00  0.00    +0.000 C 
BRANCH  17  20
ATOM     18  C   UNL     1       6.369   5.494  17.175  0.00  0.00    +0.000 C 
ATOM     19  O   UNL     1       5.970   6.621  16.915  0.00  0.00    +0.000 OA
ATOM     20  N   UNL     1       5.982   4.871  18.324  0.00  0.00    +0.000 N 
ATOM     21  H   UNL     1       6.316   3.914  18.512  0.00  0.00    +0.000 HD
BRANCH  18  22
ATOM     22  C   UNL     1       7.314   4.826  16.217  0.00  0.00    +0.000 C 
BRANCH  22  23
ATOM     23  O   UNL     1       7.296   5.497  14.974  0.00  0.00    +0.000 OA
BRANCH  23  25
ATOM     24  C   UNL     1       5.826   4.078  13.746  0.00  0.00    +0.000 C 
ATOM     25  C   UNL     1       7.264   4.581  13.887  0.00  0.00    +0.000 C 
ATOM     26  C   UNL     1       7.692   5.225  12.551  0.00  0.00    +0.000 C 
ENDBRANCH  23  25
ENDBRANCH  22  23
ENDBRANCH  18  22
ENDBRANCH  17  20
ENDBRANCH   1  17
TORSDOF 6
ENDMDL
