MODEL 1
REMARK VINA RESULT:      -7.4      0.000      0.000
REMARK  Name = 
REMARK  6 active torsions:
REMARK  status: ('A' for Active; 'I' for Inactive)
REMARK    1  A    between atoms: C_1  and  O_2
REMARK    2  A    between atoms: O_2  and  C_3
REMARK    3  A    between atoms: C_5  and  O_6
REMARK    4  A    between atoms: O_6  and  C_7
REMARK    5  A    between atoms: N_13  and  C_14
REMARK    6  A    between atoms: C_14  and  C_15
REMARK                            x       y       z     vdW  Elec       q    Type
REMARK                         _______ _______ _______ _____ _____    ______ ____
ROOT
ATOM      1  C   UNL     1       0.575   9.797  21.927  0.00  0.00    +0.000 A 
ATOM      2  C   UNL     1       0.615  10.728  20.870  0.00  0.00    +0.000 A 
ATOM      3  C   UNL     1       1.097  10.405  19.581  0.00  0.00    +0.000 A 
ATOM      4  C   UNL     1       1.546   9.108  19.385  0.00  0.00    +0.000 A 
ATOM      5  C   UNL     1       1.502   8.202  20.444  0.00  0.00    +0.000 A 
ATOM      6  C   UNL     1       1.024   8.502  21.708  0.00  0.00    +0.000 A 
ATOM      7  C   UNL     1       2.068   6.929  20.012  0.00  0.00    +0.000 C 
ATOM      8  O   UNL     1       2.198   5.958  20.731  0.00  0.00    +0.000 OA
ATOM      9  N   UNL     1       2.419   7.093  18.711  0.00  0.00    +0.000 N 
ATOM     10  C   UNL     1       2.136   8.352  18.258  0.00  0.00    +0.000 C 
ATOM     11  O   UNL     1       2.354   8.762  17.132  0.00  0.00    +0.000 OA
ENDROOT
BRANCH   1  13
ATOM     12  C   UNL     1      -1.214  10.851  23.071  0.00  0.00    +0.000 C 
ATOM     13  O   UNL     1       0.089  10.273  23.113  0.00  0.00    +0.000 OA
ENDBRANCH   1  13
BRANCH   3  14
ATOM     14  O   UNL     1       1.042  11.472  18.734  0.00  0.00    +0.000 OA
ATOM     15  C   UNL     1       2.225  12.196  18.444  0.00  0.00    +0.000 C 
ENDBRANCH   3  14
BRANCH   9  16
ATOM     16  C   UNL     1       3.035   6.066  17.899  0.00  0.00    +0.000 C 
BRANCH  16  17
ATOM     17  C   UNL     1       4.532   6.029  18.094  0.00  0.00    +0.000 A 
ATOM     18  C   UNL     1       5.102   5.230  19.099  0.00  0.00    +0.000 A 
ATOM     19  C   UNL     1       6.479   5.258  19.336  0.00  0.00    +0.000 A 
ATOM     20  C   UNL     1       7.298   6.085  18.570  0.00  0.00    +0.000 A 
ATOM     21  C   UNL     1       6.738   6.862  17.563  0.00  0.00    +0.000 A 
ATOM     22  F   UNL     1       7.529   7.652  16.824  0.00  0.00    +0.000 F 
ATOM     23  C   UNL     1       5.369   6.843  17.319  0.00  0.00    +0.000 A 
ENDBRANCH  16  17
ENDBRANCH   9  16
TORSDOF 4
ENDMDL
MODEL 2
REMARK VINA RESULT:      -7.3      0.901      1.325
REMARK  Name = 
REMARK  6 active torsions:
REMARK  status: ('A' for Active; 'I' for Inactive)
REMARK    1  A    between atoms: C_1  and  O_2
REMARK    2  A    between atoms: O_2  and  C_3
REMARK    3  A    between atoms: C_5  and  O_6
REMARK    4  A    between atoms: O_6  and  C_7
REMARK    5  A    between atoms: N_13  and  C_14
REMARK    6  A    between atoms: C_14  and  C_15
REMARK                            x       y       z     vdW  Elec       q    Type
REMARK                         _______ _______ _______ _____ _____    ______ ____
ROOT
ATOM      1  C   UNL     1       0.546   9.718  21.974  0.00  0.00    +0.000 A 
ATOM      2  C   UNL     1       0.584  10.635  20.904  0.00  0.00    +0.000 A 
ATOM      3  C   UNL     1       1.071  10.296  19.620  0.00  0.00    +0.000 A 
ATOM      4  C   UNL     1       1.526   8.998  19.444  0.00  0.00    +0.000 A 
ATOM      5  C   UNL     1       1.484   8.108  20.515  0.00  0.00    +0.000 A 
ATOM      6  C   UNL     1       1.002   8.423  21.774  0.00  0.00    +0.000 A 
ATOM      7  C   UNL     1       2.057   6.831  20.102  0.00  0.00    +0.000 C 
ATOM      8  O   UNL     1       2.190   5.871  20.835  0.00  0.00    +0.000 OA
ATOM      9  N   UNL     1       2.410   6.979  18.799  0.00  0.00    +0.000 N 
ATOM     10  C   UNL     1       2.122   8.230  18.328  0.00  0.00    +0.000 C 
ATOM     11  O   UNL     1       2.341   8.625  17.198  0.00  0.00    +0.000 OA
ENDROOT
BRANCH   1  13
ATOM     12  C   UNL     1      -1.177  10.922  23.070  0.00  0.00    +0.000 C 
ATOM     13  O   UNL     1       0.055  10.208  23.152  0.00  0.00    +0.000 OA
ENDBRANCH   1  13
BRANCH   3  14
ATOM     14  O   UNL     1       1.013  11.351  18.759  0.00  0.00    +0.000 OA
ATOM     15  C   UNL     1       2.006  12.359  18.820  0.00  0.00    +0.000 C 
ENDBRANCH   3  14
BRANCH   9  16
ATOM     16  C   UNL     1       3.033   5.943  18.003  0.00  0.00    +0.000 C 
BRANCH  16  17
ATOM     17  C   UNL     1       4.537   6.081  17.993  0.00  0.00    +0.000 A 
ATOM     18  C   UNL     1       5.200   6.585  16.862  0.00  0.00    +0.000 A 
ATOM     19  C   UNL     1       6.596   6.635  16.818  0.00  0.00    +0.000 A 
ATOM     20  C   UNL     1       7.341   6.182  17.906  0.00  0.00    +0.000 A 
ATOM     21  C   UNL     1       6.686   5.700  19.032  0.00  0.00    +0.000 A 
ATOM     22  F   UNL     1       7.404   5.270  20.078  0.00  0.00    +0.000 F 
ATOM     23  C   UNL     1       5.297   5.645  19.086  0.00  0.00    +0.000 A 
ENDBRANCH  16  17
ENDBRANCH   9  16
TORSDOF 4
ENDMDL
MODEL 3
REMARK VINA RESULT:      -7.2      3.619      5.621
REMARK  Name = 
REMARK  6 active torsions:
REMARK  status: ('A' for Active; 'I' for Inactive)
REMARK    1  A    between atoms: C_1  and  O_2
REMARK    2  A    between atoms: O_2  and  C_3
REMARK    3  A    between atoms: C_5  and  O_6
REMARK    4  A    between atoms: O_6  and  C_7
REMARK    5  A    between atoms: N_13  and  C_14
REMARK    6  A    between atoms: C_14  and  C_15
REMARK                            x       y       z     vdW  Elec       q    Type
REMARK                         _______ _______ _______ _____ _____    ______ ____
ROOT
ATOM      1  C   UNL     1       2.387   7.595  18.342  0.00  0.00    +0.000 A 
ATOM      2  C   UNL     1       1.718   6.359  18.437  0.00  0.00    +0.000 A 
ATOM      3  C   UNL     1       2.314   5.132  18.062  0.00  0.00    +0.000 A 
ATOM      4  C   UNL     1       3.614   5.188  17.582  0.00  0.00    +0.000 A 
ATOM      5  C   UNL     1       4.257   6.421  17.492  0.00  0.00    +0.000 A 
ATOM      6  C   UNL     1       3.689   7.627  17.864  0.00  0.00    +0.000 A 
ATOM      7  C   UNL     1       5.585   6.230  16.917  0.00  0.00    +0.000 C 
ATOM      8  O   UNL     1       6.366   7.131  16.682  0.00  0.00    +0.000 OA
ATOM      9  N   UNL     1       5.712   4.897  16.694  0.00  0.00    +0.000 N 
ATOM     10  C   UNL     1       4.594   4.205  17.067  0.00  0.00    +0.000 C 
ATOM     11  O   UNL     1       4.444   3.001  16.969  0.00  0.00    +0.000 OA
ENDROOT
BRANCH   1  13
ATOM     12  C   UNL     1       1.787   9.850  17.920  0.00  0.00    +0.000 C 
ATOM     13  O   UNL     1       1.665   8.687  18.737  0.00  0.00    +0.000 OA
ENDBRANCH   1  13
BRANCH   3  14
ATOM     14  O   UNL     1       1.468   4.079  18.238  0.00  0.00    +0.000 OA
ATOM     15  C   UNL     1       1.625   3.236  19.366  0.00  0.00    +0.000 C 
ENDBRANCH   3  14
BRANCH   9  16
ATOM     16  C   UNL     1       6.884   4.278  16.113  0.00  0.00    +0.000 C 
BRANCH  16  17
ATOM     17  C   UNL     1       6.878   4.382  14.607  0.00  0.00    +0.000 A 
ATOM     18  C   UNL     1       6.132   3.480  13.831  0.00  0.00    +0.000 A 
ATOM     19  C   UNL     1       6.191   3.522  12.435  0.00  0.00    +0.000 A 
ATOM     20  C   UNL     1       6.997   4.467  11.803  0.00  0.00    +0.000 A 
ATOM     21  C   UNL     1       7.722   5.373  12.569  0.00  0.00    +0.000 A 
ATOM     22  F   UNL     1       8.492   6.283  11.959  0.00  0.00    +0.000 F 
ATOM     23  C   UNL     1       7.671   5.339  13.959  0.00  0.00    +0.000 A 
ENDBRANCH  16  17
ENDBRANCH   9  16
TORSDOF 4
ENDMDL
MODEL 4
REMARK VINA RESULT:      -7.2      3.231      5.330
REMARK  Name = 
REMARK  6 active torsions:
REMARK  status: ('A' for Active; 'I' for Inactive)
REMARK    1  A    between atoms: C_1  and  O_2
REMARK    2  A    between atoms: O_2  and  C_3
REMARK    3  A    between atoms: C_5  and  O_6
REMARK    4  A    between atoms: O_6  and  C_7
REMARK    5  A    between atoms: N_13  and  C_14
REMARK    6  A    between atoms: C_14  and  C_15
REMARK                            x       y       z     vdW  Elec       q    Type
REMARK                         _______ _______ _______ _____ _____    ______ ____
ROOT
ATOM      1  C   UNL     1       2.328   7.778  18.714  0.00  0.00    +0.000 A 
ATOM      2  C   UNL     1       2.214   6.732  19.652  0.00  0.00    +0.000 A 
ATOM      3  C   UNL     1       3.110   5.639  19.695  0.00  0.00    +0.000 A 
ATOM      4  C   UNL     1       4.130   5.627  18.756  0.00  0.00    +0.000 A 
ATOM      5  C   UNL     1       4.224   6.669  17.834  0.00  0.00    +0.000 A 
ATOM      6  C   UNL     1       3.360   7.749  17.787  0.00  0.00    +0.000 A 
ATOM      7  C   UNL     1       5.337   6.410  16.928  0.00  0.00    +0.000 C 
ATOM      8  O   UNL     1       5.641   7.127  15.994  0.00  0.00    +0.000 OA
ATOM      9  N   UNL     1       5.891   5.239  17.334  0.00  0.00    +0.000 N 
ATOM     10  C   UNL     1       5.243   4.713  18.416  0.00  0.00    +0.000 C 
ATOM     11  O   UNL     1       5.534   3.669  18.973  0.00  0.00    +0.000 OA
ENDROOT
BRANCH   1  13
ATOM     12  C   UNL     1       1.623   9.944  18.057  0.00  0.00    +0.000 C 
ATOM     13  O   UNL     1       1.374   8.754  18.803  0.00  0.00    +0.000 OA
ENDBRANCH   1  13
BRANCH   3  14
ATOM     14  O   UNL     1       2.789   4.755  20.682  0.00  0.00    +0.000 OA
ATOM     15  C   UNL     1       2.133   3.544  20.350  0.00  0.00    +0.000 C 
ENDBRANCH   3  14
BRANCH   9  16
ATOM     16  C   UNL     1       7.025   4.610  16.690  0.00  0.00    +0.000 C 
BRANCH  16  17
ATOM     17  C   UNL     1       6.824   4.500  15.198  0.00  0.00    +0.000 A 
ATOM     18  C   UNL     1       5.867   3.618  14.668  0.00  0.00    +0.000 A 
ATOM     19  C   UNL     1       5.738   3.453  13.287  0.00  0.00    +0.000 A 
ATOM     20  C   UNL     1       6.564   4.169  12.422  0.00  0.00    +0.000 A 
ATOM     21  C   UNL     1       7.499   5.055  12.944  0.00  0.00    +0.000 A 
ATOM     22  F   UNL     1       8.288   5.745  12.110  0.00  0.00    +0.000 F 
ATOM     23  C   UNL     1       7.637   5.226  14.317  0.00  0.00    +0.000 A 
ENDBRANCH  16  17
ENDBRANCH   9  16
TORSDOF 4
ENDMDL
MODEL 5
REMARK VINA RESULT:      -6.9      2.834      4.546
REMARK  Name = 
REMARK  6 active torsions:
REMARK  status: ('A' for Active; 'I' for Inactive)
REMARK    1  A    between atoms: C_1  and  O_2
REMARK    2  A    between atoms: O_2  and  C_3
REMARK    3  A    between atoms: C_5  and  O_6
REMARK    4  A    between atoms: O_6  and  C_7
REMARK    5  A    between atoms: N_13  and  C_14
REMARK    6  A    between atoms: C_14  and  C_15
REMARK                            x       y       z     vdW  Elec       q    Type
REMARK                         _______ _______ _______ _____ _____    ______ ____
ROOT
ATOM      1  C   UNL     1      -0.418  11.389  18.867  0.00  0.00    +0.000 A 
ATOM      2  C   UNL     1      -0.738  11.121  20.213  0.00  0.00    +0.000 A 
ATOM      3  C   UNL     1      -0.160  10.057  20.943  0.00  0.00    +0.000 A 
ATOM      4  C   UNL     1       0.756   9.261  20.271  0.00  0.00    +0.000 A 
ATOM      5  C   UNL     1       1.056   9.538  18.939  0.00  0.00    +0.000 A 
ATOM      6  C   UNL     1       0.505  10.582  18.215  0.00  0.00    +0.000 A 
ATOM      7  C   UNL     1       1.998   8.542  18.440  0.00  0.00    +0.000 C 
ATOM      8  O   UNL     1       2.415   8.504  17.299  0.00  0.00    +0.000 OA
ATOM      9  N   UNL     1       2.252   7.708  19.480  0.00  0.00    +0.000 N 
ATOM     10  C   UNL     1       1.564   8.067  20.606  0.00  0.00    +0.000 C 
ATOM     11  O   UNL     1       1.608   7.485  21.675  0.00  0.00    +0.000 OA
ENDROOT
BRANCH   1  13
ATOM     12  C   UNL     1      -0.447  13.722  18.448  0.00  0.00    +0.000 C 
ATOM     13  O   UNL     1      -1.074  12.449  18.305  0.00  0.00    +0.000 OA
ENDBRANCH   1  13
BRANCH   3  14
ATOM     14  O   UNL     1      -0.632   9.998  22.220  0.00  0.00    +0.000 OA
ATOM     15  C   UNL     1      -1.112  11.177  22.842  0.00  0.00    +0.000 C 
ENDBRANCH   3  14
BRANCH   9  16
ATOM     16  C   UNL     1       3.134   6.562  19.408  0.00  0.00    +0.000 C 
BRANCH  16  17
ATOM     17  C   UNL     1       2.358   5.272  19.294  0.00  0.00    +0.000 A 
ATOM     18  C   UNL     1       1.941   4.797  18.040  0.00  0.00    +0.000 A 
ATOM     19  C   UNL     1       1.152   3.648  17.939  0.00  0.00    +0.000 A 
ATOM     20  C   UNL     1       0.772   2.964  19.093  0.00  0.00    +0.000 A 
ATOM     21  C   UNL     1       1.198   3.423  20.333  0.00  0.00    +0.000 A 
ATOM     22  F   UNL     1       0.836   2.760  21.440  0.00  0.00    +0.000 F 
ATOM     23  C   UNL     1       1.984   4.565  20.445  0.00  0.00    +0.000 A 
ENDBRANCH  16  17
ENDBRANCH   9  16
TORSDOF 4
ENDMDL
MODEL 6
REMARK VINA RESULT:      -6.9      3.652      7.543
REMARK  Name = 
REMARK  6 active torsions:
REMARK  status: ('A' for Active; 'I' for Inactive)
REMARK    1  A    between atoms: C_1  and  O_2
REMARK    2  A    between atoms: O_2  and  C_3
REMARK    3  A    between atoms: C_5  and  O_6
REMARK    4  A    between atoms: O_6  and  C_7
REMARK    5  A    between atoms: N_13  and  C_14
REMARK    6  A    between atoms: C_14  and  C_15
REMARK                            x       y       z     vdW  Elec       q    Type
REMARK                         _______ _______ _______ _____ _____    ______ ____
ROOT
ATOM      1  C   UNL     1       6.164   4.039  14.814  0.00  0.00    +0.000 A 
ATOM      2  C   UNL     1       7.116   4.700  15.616  0.00  0.00    +0.000 A 
ATOM      3  C   UNL     1       6.839   5.137  16.933  0.00  0.00    +0.000 A 
ATOM      4  C   UNL     1       5.565   4.890  17.421  0.00  0.00    +0.000 A 
ATOM      5  C   UNL     1       4.636   4.238  16.611  0.00  0.00    +0.000 A 
ATOM      6  C   UNL     1       4.896   3.798  15.325  0.00  0.00    +0.000 A 
ATOM      7  C   UNL     1       3.366   4.139  17.320  0.00  0.00    +0.000 C 
ATOM      8  O   UNL     1       2.356   3.652  16.851  0.00  0.00    +0.000 OA
ATOM      9  N   UNL     1       3.564   4.711  18.535  0.00  0.00    +0.000 N 
ATOM     10  C   UNL     1       4.842   5.174  18.681  0.00  0.00    +0.000 C 
ATOM     11  O   UNL     1       5.281   5.734  19.670  0.00  0.00    +0.000 OA
ENDROOT
BRANCH   1  13
ATOM     12  C   UNL     1       5.569   3.501  12.583  0.00  0.00    +0.000 C 
ATOM     13  O   UNL     1       6.589   3.693  13.562  0.00  0.00    +0.000 OA
ENDBRANCH   1  13
BRANCH   3  14
ATOM     14  O   UNL     1       7.913   5.754  17.501  0.00  0.00    +0.000 OA
ATOM     15  C   UNL     1       7.840   7.134  17.816  0.00  0.00    +0.000 C 
ENDBRANCH   3  14
BRANCH   9  16
ATOM     16  C   UNL     1       2.543   4.835  19.553  0.00  0.00    +0.000 C 
BRANCH  16  17
ATOM     17  C   UNL     1       2.063   6.260  19.687  0.00  0.00    +0.000 A 
ATOM     18  C   UNL     1       2.179   7.157  18.612  0.00  0.00    +0.000 A 
ATOM     19  C   UNL     1       1.813   8.497  18.759  0.00  0.00    +0.000 A 
ATOM     20  C   UNL     1       1.327   8.953  19.984  0.00  0.00    +0.000 A 
ATOM     21  C   UNL     1       1.194   8.063  21.043  0.00  0.00    +0.000 A 
ATOM     22  F   UNL     1       0.723   8.503  22.217  0.00  0.00    +0.000 F 
ATOM     23  C   UNL     1       1.557   6.727  20.907  0.00  0.00    +0.000 A 
ENDBRANCH  16  17
ENDBRANCH   9  16
TORSDOF 4
ENDMDL
MODEL 7
REMARK VINA RESULT:      -6.9      3.260      6.668
REMARK  Name = 
REMARK  6 active torsions:
REMARK  status: ('A' for Active; 'I' for Inactive)
REMARK    1  A    between atoms: C_1  and  O_2
REMARK    2  A    between atoms: O_2  and  C_3
REMARK    3  A    between atoms: C_5  and  O_6
REMARK    4  A    between atoms: O_6  and  C_7
REMARK    5  A    between atoms: N_13  and  C_14
REMARK    6  A    between atoms: C_14  and  C_15
REMARK                            x       y       z     vdW  Elec       q    Type
REMARK                         _______ _______ _______ _____ _____    ______ ____
ROOT
ATOM      1  C   UNL     1       2.081   5.013  20.756  0.00  0.00    +0.000 A 
ATOM      2  C   UNL     1       2.720   4.854  19.510  0.00  0.00    +0.000 A 
ATOM      3  C   UNL     1       2.850   5.907  18.575  0.00  0.00    +0.000 A 
ATOM      4  C   UNL     1       2.310   7.133  18.932  0.00  0.00    +0.000 A 
ATOM      5  C   UNL     1       1.679   7.269  20.167  0.00  0.00    +0.000 A 
ATOM      6  C   UNL     1       1.553   6.250  21.095  0.00  0.00    +0.000 A 
ATOM      7  C   UNL     1       1.154   8.625  20.292  0.00  0.00    +0.000 C 
ATOM      8  O   UNL     1       0.519   9.028  21.247  0.00  0.00    +0.000 OA
ATOM      9  N   UNL     1       1.494   9.269  19.147  0.00  0.00    +0.000 N 
ATOM     10  C   UNL     1       2.189   8.462  18.290  0.00  0.00    +0.000 C 
ATOM     11  O   UNL     1       2.608   8.790  17.195  0.00  0.00    +0.000 OA
ENDROOT
BRANCH   1  13
ATOM     12  C   UNL     1       1.567   2.703  20.905  0.00  0.00    +0.000 C 
ATOM     13  O   UNL     1       2.033   3.893  21.539  0.00  0.00    +0.000 OA
ENDBRANCH   1  13
BRANCH   3  14
ATOM     14  O   UNL     1       3.498   5.507  17.444  0.00  0.00    +0.000 OA
ATOM     15  C   UNL     1       3.671   4.124  17.190  0.00  0.00    +0.000 C 
ENDBRANCH   3  14
BRANCH   9  16
ATOM     16  C   UNL     1       1.151  10.645  18.855  0.00  0.00    +0.000 C 
BRANCH  16  17
ATOM     17  C   UNL     1      -0.321  10.796  18.552  0.00  0.00    +0.000 A 
ATOM     18  C   UNL     1      -1.121  11.667  19.310  0.00  0.00    +0.000 A 
ATOM     19  C   UNL     1      -2.498  11.746  19.086  0.00  0.00    +0.000 A 
ATOM     20  C   UNL     1      -3.087  10.956  18.101  0.00  0.00    +0.000 A 
ATOM     21  C   UNL     1      -2.294  10.107  17.338  0.00  0.00    +0.000 A 
ATOM     22  F   UNL     1      -2.863   9.351  16.389  0.00  0.00    +0.000 F 
ATOM     23  C   UNL     1      -0.923  10.019  17.553  0.00  0.00    +0.000 A 
ENDBRANCH  16  17
ENDBRANCH   9  16
TORSDOF 4
ENDMDL
MODEL 8
REMARK VINA RESULT:      -6.8      3.620      6.861
REMARK  Name = 
REMARK  6 active torsions:
REMARK  status: ('A' for Active; 'I' for Inactive)
REMARK    1  A    between atoms: C_1  and  O_2
REMARK    2  A    between atoms: O_2  and  C_3
REMARK    3  A    between atoms: C_5  and  O_6
REMARK    4  A    between atoms: O_6  and  C_7
REMARK    5  A    between atoms: N_13  and  C_14
REMARK    6  A    between atoms: C_14  and  C_15
REMARK                            x       y       z     vdW  Elec       q    Type
REMARK                         _______ _______ _______ _____ _____    ______ ____
ROOT
ATOM      1  C   UNL     1       2.337   5.269  20.567  0.00  0.00    +0.000 A 
ATOM      2  C   UNL     1       3.005   5.285  19.326  0.00  0.00    +0.000 A 
ATOM      3  C   UNL     1       2.995   6.406  18.464  0.00  0.00    +0.000 A 
ATOM      4  C   UNL     1       2.283   7.518  18.889  0.00  0.00    +0.000 A 
ATOM      5  C   UNL     1       1.626   7.481  20.117  0.00  0.00    +0.000 A 
ATOM      6  C   UNL     1       1.636   6.395  20.975  0.00  0.00    +0.000 A 
ATOM      7  C   UNL     1       0.914   8.738  20.319  0.00  0.00    +0.000 C 
ATOM      8  O   UNL     1       0.219   8.984  21.286  0.00  0.00    +0.000 OA
ATOM      9  N   UNL     1       1.172   9.499  19.226  0.00  0.00    +0.000 N 
ATOM     10  C   UNL     1       1.983   8.856  18.332  0.00  0.00    +0.000 C 
ATOM     11  O   UNL     1       2.362   9.312  17.269  0.00  0.00    +0.000 OA
ENDROOT
BRANCH   1  13
ATOM     12  C   UNL     1       1.385   3.161  21.087  0.00  0.00    +0.000 C 
ATOM     13  O   UNL     1       2.439   4.104  21.275  0.00  0.00    +0.000 OA
ENDBRANCH   1  13
BRANCH   3  14
ATOM     14  O   UNL     1       3.704   6.178  17.323  0.00  0.00    +0.000 OA
ATOM     15  C   UNL     1       4.701   5.171  17.309  0.00  0.00    +0.000 C 
ENDBRANCH   3  14
BRANCH   9  16
ATOM     16  C   UNL     1       0.641  10.830  19.017  0.00  0.00    +0.000 C 
BRANCH  16  17
ATOM     17  C   UNL     1      -0.809  10.788  18.595  0.00  0.00    +0.000 A 
ATOM     18  C   UNL     1      -1.224   9.948  17.549  0.00  0.00    +0.000 A 
ATOM     19  C   UNL     1      -2.548   9.969  17.101  0.00  0.00    +0.000 A 
ATOM     20  C   UNL     1      -3.468  10.830  17.695  0.00  0.00    +0.000 A 
ATOM     21  C   UNL     1      -3.063  11.649  18.743  0.00  0.00    +0.000 A 
ATOM     22  F   UNL     1      -3.950  12.473  19.316  0.00  0.00    +0.000 F 
ATOM     23  C   UNL     1      -1.748  11.637  19.196  0.00  0.00    +0.000 A 
ENDBRANCH  16  17
ENDBRANCH   9  16
TORSDOF 4
ENDMDL
MODEL 9
REMARK VINA RESULT:      -6.8      3.178      7.231
REMARK  Name = 
REMARK  6 active torsions:
REMARK  status: ('A' for Active; 'I' for Inactive)
REMARK    1  A    between atoms: C_1  and  O_2
REMARK    2  A    between atoms: O_2  and  C_3
REMARK    3  A    between atoms: C_5  and  O_6
REMARK    4  A    between atoms: O_6  and  C_7
REMARK    5  A    between atoms: N_13  and  C_14
REMARK    6  A    between atoms: C_14  and  C_15
REMARK                            x       y       z     vdW  Elec       q    Type
REMARK                         _______ _______ _______ _____ _____    ______ ____
ROOT
ATOM      1  C   UNL     1       3.830   6.019  17.661  0.00  0.00    +0.000 A 
ATOM      2  C   UNL     1       3.375   5.373  18.828  0.00  0.00    +0.000 A 
ATOM      3  C   UNL     1       2.518   5.995  19.766  0.00  0.00    +0.000 A 
ATOM      4  C   UNL     1       2.131   7.298  19.493  0.00  0.00    +0.000 A 
ATOM      5  C   UNL     1       2.594   7.922  18.336  0.00  0.00    +0.000 A 
ATOM      6  C   UNL     1       3.426   7.322  17.406  0.00  0.00    +0.000 A 
ATOM      7  C   UNL     1       2.095   9.292  18.295  0.00  0.00    +0.000 C 
ATOM      8  O   UNL     1       2.364  10.093  17.421  0.00  0.00    +0.000 OA
ATOM      9  N   UNL     1       1.337   9.452  19.409  0.00  0.00    +0.000 N 
ATOM     10  C   UNL     1       1.297   8.317  20.170  0.00  0.00    +0.000 C 
ATOM     11  O   UNL     1       0.694   8.193  21.221  0.00  0.00    +0.000 OA
ENDROOT
BRANCH   1  13
ATOM     12  C   UNL     1       4.609   3.867  17.045  0.00  0.00    +0.000 C 
ATOM     13  O   UNL     1       4.661   5.281  16.866  0.00  0.00    +0.000 OA
ENDBRANCH   1  13
BRANCH   3  14
ATOM     14  O   UNL     1       2.225   5.173  20.812  0.00  0.00    +0.000 OA
ATOM     15  C   UNL     1       1.228   4.177  20.661  0.00  0.00    +0.000 C 
ENDBRANCH   3  14
BRANCH   9  16
ATOM     16  C   UNL     1       0.661  10.682  19.764  0.00  0.00    +0.000 C 
BRANCH  16  17
ATOM     17  C   UNL     1      -0.656  10.820  19.038  0.00  0.00    +0.000 A 
ATOM     18  C   UNL     1      -1.659  11.670  19.532  0.00  0.00    +0.000 A 
ATOM     19  C   UNL     1      -2.908  11.736  18.909  0.00  0.00    +0.000 A 
ATOM     20  C   UNL     1      -3.165  10.952  17.786  0.00  0.00    +0.000 A 
ATOM     21  C   UNL     1      -2.168  10.124  17.285  0.00  0.00    +0.000 A 
ATOM     22  F   UNL     1      -2.416   9.375  16.202  0.00  0.00    +0.000 F 
ATOM     23  C   UNL     1      -0.921  10.050  17.897  0.00  0.00    +0.000 A 
ENDBRANCH  16  17
ENDBRANCH   9  16
TORSDOF 4
ENDMDL
