MODEL 1
REMARK VINA RESULT:      -9.1      0.000      0.000
REMARK  Name = 
REMARK  6 active torsions:
REMARK  status: ('A' for Active; 'I' for Inactive)
REMARK    1  A    between atoms: C_1  and  C_2
REMARK    2  A    between atoms: C_2  and  C_3
REMARK    3  A    between atoms: C_8  and  C_9
REMARK    4  A    between atoms: N_11  and  C_12
REMARK    5  A    between atoms: C_16  and  C_17
REMARK    6  A    between atoms: N_19  and  C_20
REMARK                            x       y       z     vdW  Elec       q    Type
REMARK                         _______ _______ _______ _____ _____    ______ ____
ROOT
ATOM      1  C   UNL     1       1.462   8.602  19.164  0.00  0.00    +0.000 C 
ATOM      2  O   UNL     1       1.539   9.002  18.008  0.00  0.00    +0.000 OA
ATOM      3  N   UNL     1       2.107   7.489  19.679  0.00  0.00    +0.000 N 
ATOM      4  H   UNL     1       2.294   7.487  20.676  0.00  0.00    +0.000 HD
ENDROOT
BRANCH   1  10
ATOM      5  C   UNL     1      -2.338  12.556  22.603  0.00  0.00    +0.000 A 
ATOM      6  C   UNL     1      -2.489  12.775  21.226  0.00  0.00    +0.000 A 
ATOM      7  C   UNL     1      -1.738  12.048  20.302  0.00  0.00    +0.000 A 
ATOM      8  C   UNL     1      -0.832  11.083  20.749  0.00  0.00    +0.000 A 
ATOM      9  O   UNL     1      -0.134  10.389  19.793  0.00  0.00    +0.000 OA
ATOM     10  C   UNL     1       0.735   9.393  20.216  0.00  0.00    +0.000 A 
ATOM     11  C   UNL     1       0.965   9.075  21.498  0.00  0.00    +0.000 A 
ATOM     12  C   UNL     1       0.267   9.822  22.559  0.00  0.00    +0.000 A 
ATOM     13  O   UNL     1       0.464   9.573  23.738  0.00  0.00    +0.000 OA
ATOM     14  C   UNL     1      -0.675  10.861  22.115  0.00  0.00    +0.000 A 
ATOM     15  C   UNL     1      -1.421  11.593  23.046  0.00  0.00    +0.000 A 
BRANCH   5  17
ATOM     16  C   UNL     1      -4.096  12.362  24.373  0.00  0.00    +0.000 C 
ATOM     17  C   UNL     1      -3.196  13.308  23.592  0.00  0.00    +0.000 C 
ENDBRANCH   5  17
ENDBRANCH   1  10
BRANCH   3  18
ATOM     18  C   UNL     1       2.916   6.711  18.869  0.00  0.00    +0.000 A 
ATOM     19  S   UNL     1       3.985   7.553  17.851  0.00  0.00    +0.000 S 
ATOM     20  C   UNL     1       4.410   6.130  17.031  0.00  0.00    +0.000 A 
ATOM     21  C   UNL     1       3.793   5.005  17.555  0.00  0.00    +0.000 A 
ATOM     22  C   UNL     1       2.897   5.341  18.646  0.00  0.00    +0.000 A 
ATOM     23  C   UNL     1       4.075   3.636  16.991  0.00  0.00    +0.000 C 
ATOM     24  C   UNL     1       5.347   3.619  16.121  0.00  0.00    +0.000 C 
ATOM     25  C   UNL     1       5.393   4.809  15.154  0.00  0.00    +0.000 C 
ATOM     26  C   UNL     1       5.397   6.147  15.905  0.00  0.00    +0.000 C 
BRANCH  22  27
ATOM     27  C   UNL     1       2.107   4.383  19.432  0.00  0.00    +0.000 C 
ATOM     28  O   UNL     1       1.092   3.852  18.993  0.00  0.00    +0.000 OA
ATOM     29  N   UNL     1       2.620   4.114  20.686  0.00  0.00    +0.000 N 
ATOM     30  C   UNL     1       2.017   3.189  21.614  0.00  0.00    +0.000 C 
ATOM     31  H   UNL     1       3.553   4.449  20.895  0.00  0.00    +0.000 HD
ENDBRANCH  22  27
ENDBRANCH   3  18
TORSDOF 4
ENDMDL
MODEL 2
REMARK VINA RESULT:      -8.7      1.296      2.081
REMARK  Name = 
REMARK  6 active torsions:
REMARK  status: ('A' for Active; 'I' for Inactive)
REMARK    1  A    between atoms: C_1  and  C_2
REMARK    2  A    between atoms: C_2  and  C_3
REMARK    3  A    between atoms: C_8  and  C_9
REMARK    4  A    between atoms: N_11  and  C_12
REMARK    5  A    between atoms: C_16  and  C_17
REMARK    6  A    between atoms: N_19  and  C_20
REMARK                            x       y       z     vdW  Elec       q    Type
REMARK                         _______ _______ _______ _____ _____    ______ ____
ROOT
ATOM      1  C   UNL     1       1.862   8.689  18.135  0.00  0.00    +0.000 C 
ATOM      2  O   UNL     1       2.236   9.055  17.027  0.00  0.00    +0.000 OA
ATOM      3  N   UNL     1       2.295   7.553  18.800  0.00  0.00    +0.000 N 
ATOM      4  H   UNL     1       2.238   7.563  19.812  0.00  0.00    +0.000 HD
ENDROOT
BRANCH   1  10
ATOM      5  C   UNL     1      -1.625  11.549  22.778  0.00  0.00    +0.000 A 
ATOM      6  C   UNL     1      -0.986  10.396  23.258  0.00  0.00    +0.000 A 
ATOM      7  C   UNL     1      -0.206   9.609  22.411  0.00  0.00    +0.000 A 
ATOM      8  C   UNL     1      -0.047   9.976  21.072  0.00  0.00    +0.000 A 
ATOM      9  O   UNL     1       0.746   9.171  20.293  0.00  0.00    +0.000 OA
ATOM     10  C   UNL     1       0.955   9.545  18.973  0.00  0.00    +0.000 A 
ATOM     11  C   UNL     1       0.414  10.626  18.392  0.00  0.00    +0.000 A 
ATOM     12  C   UNL     1      -0.476  11.496  19.181  0.00  0.00    +0.000 A 
ATOM     13  O   UNL     1      -1.000  12.479  18.682  0.00  0.00    +0.000 OA
ATOM     14  C   UNL     1      -0.679  11.118  20.588  0.00  0.00    +0.000 A 
ATOM     15  C   UNL     1      -1.470  11.906  21.432  0.00  0.00    +0.000 A 
BRANCH   5  17
ATOM     16  C   UNL     1      -3.802  12.724  23.153  0.00  0.00    +0.000 C 
ATOM     17  C   UNL     1      -2.421  12.424  23.716  0.00  0.00    +0.000 C 
ENDBRANCH   5  17
ENDBRANCH   1  10
BRANCH   3  18
ATOM     18  C   UNL     1       3.225   6.710  18.214  0.00  0.00    +0.000 A 
ATOM     19  S   UNL     1       4.703   7.422  17.770  0.00  0.00    +0.000 S 
ATOM     20  C   UNL     1       5.189   6.021  16.945  0.00  0.00    +0.000 A 
ATOM     21  C   UNL     1       4.269   4.992  17.046  0.00  0.00    +0.000 A 
ATOM     22  C   UNL     1       3.091   5.394  17.795  0.00  0.00    +0.000 A 
ATOM     23  C   UNL     1       4.538   3.649  16.417  0.00  0.00    +0.000 C 
ATOM     24  C   UNL     1       6.024   3.469  16.051  0.00  0.00    +0.000 C 
ATOM     25  C   UNL     1       6.594   4.709  15.351  0.00  0.00    +0.000 C 
ATOM     26  C   UNL     1       6.513   5.951  16.249  0.00  0.00    +0.000 C 
BRANCH  22  27
ATOM     27  C   UNL     1       1.938   4.536  18.104  0.00  0.00    +0.000 C 
ATOM     28  O   UNL     1       1.092   4.247  17.266  0.00  0.00    +0.000 OA
ATOM     29  N   UNL     1       1.909   4.066  19.403  0.00  0.00    +0.000 N 
ATOM     30  C   UNL     1       0.880   3.194  19.913  0.00  0.00    +0.000 C 
ATOM     31  H   UNL     1       2.737   4.200  19.971  0.00  0.00    +0.000 HD
ENDBRANCH  22  27
ENDBRANCH   3  18
TORSDOF 4
ENDMDL
MODEL 3
REMARK VINA RESULT:      -8.3      2.402      9.249
REMARK  Name = 
REMARK  6 active torsions:
REMARK  status: ('A' for Active; 'I' for Inactive)
REMARK    1  A    between atoms: C_1  and  C_2
REMARK    2  A    between atoms: C_2  and  C_3
REMARK    3  A    between atoms: C_8  and  C_9
REMARK    4  A    between atoms: N_11  and  C_12
REMARK    5  A    between atoms: C_16  and  C_17
REMARK    6  A    between atoms: N_19  and  C_20
REMARK                            x       y       z     vdW  Elec       q    Type
REMARK                         _______ _______ _______ _____ _____    ______ ____
ROOT
ATOM      1  C   UNL     1       1.327   8.565  19.972  0.00  0.00    +0.000 C 
ATOM      2  O   UNL     1       1.052   8.541  21.167  0.00  0.00    +0.000 OA
ATOM      3  N   UNL     1       1.027   9.594  19.094  0.00  0.00    +0.000 N 
ATOM      4  H   UNL     1       1.623   9.692  18.279  0.00  0.00    +0.000 HD
ENDROOT
BRANCH   1  10
ATOM      5  C   UNL     1       5.368   4.964  16.423  0.00  0.00    +0.000 A 
ATOM      6  C   UNL     1       5.235   6.255  15.891  0.00  0.00    +0.000 A 
ATOM      7  C   UNL     1       4.386   7.187  16.486  0.00  0.00    +0.000 A 
ATOM      8  C   UNL     1       3.665   6.838  17.631  0.00  0.00    +0.000 A 
ATOM      9  O   UNL     1       2.859   7.804  18.181  0.00  0.00    +0.000 OA
ATOM     10  C   UNL     1       2.172   7.492  19.346  0.00  0.00    +0.000 A 
ATOM     11  C   UNL     1       2.218   6.302  19.963  0.00  0.00    +0.000 A 
ATOM     12  C   UNL     1       3.040   5.224  19.384  0.00  0.00    +0.000 A 
ATOM     13  O   UNL     1       3.092   4.123  19.908  0.00  0.00    +0.000 OA
ATOM     14  C   UNL     1       3.790   5.559  18.165  0.00  0.00    +0.000 A 
ATOM     15  C   UNL     1       4.635   4.617  17.566  0.00  0.00    +0.000 A 
BRANCH   5  17
ATOM     16  C   UNL     1       6.197   3.954  14.289  0.00  0.00    +0.000 C 
ATOM     17  C   UNL     1       6.332   3.981  15.804  0.00  0.00    +0.000 C 
ENDBRANCH   5  17
ENDBRANCH   1  10
BRANCH   3  18
ATOM     18  C   UNL     1       0.350  10.719  19.538  0.00  0.00    +0.000 A 
ATOM     19  S   UNL     1       1.098  11.596  20.787  0.00  0.00    +0.000 S 
ATOM     20  C   UNL     1      -0.277  12.568  20.998  0.00  0.00    +0.000 A 
ATOM     21  C   UNL     1      -1.285  12.276  20.093  0.00  0.00    +0.000 A 
ATOM     22  C   UNL     1      -0.923  11.171  19.222  0.00  0.00    +0.000 A 
ATOM     23  C   UNL     1      -2.572  13.060  20.089  0.00  0.00    +0.000 C 
ATOM     24  C   UNL     1      -2.446  14.381  20.872  0.00  0.00    +0.000 C 
ATOM     25  C   UNL     1      -1.739  14.182  22.219  0.00  0.00    +0.000 C 
ATOM     26  C   UNL     1      -0.312  13.648  22.034  0.00  0.00    +0.000 C 
BRANCH  22  27
ATOM     27  C   UNL     1      -1.755  10.626  18.141  0.00  0.00    +0.000 C 
ATOM     28  O   UNL     1      -2.280   9.520  18.210  0.00  0.00    +0.000 OA
ATOM     29  N   UNL     1      -1.914  11.474  17.061  0.00  0.00    +0.000 N 
ATOM     30  C   UNL     1      -2.706  11.148  15.900  0.00  0.00    +0.000 C 
ATOM     31  H   UNL     1      -1.602  12.432  17.165  0.00  0.00    +0.000 HD
ENDBRANCH  22  27
ENDBRANCH   3  18
TORSDOF 4
ENDMDL
MODEL 4
REMARK VINA RESULT:      -8.3      3.146      9.912
REMARK  Name = 
REMARK  6 active torsions:
REMARK  status: ('A' for Active; 'I' for Inactive)
REMARK    1  A    between atoms: C_1  and  C_2
REMARK    2  A    between atoms: C_2  and  C_3
REMARK    3  A    between atoms: C_8  and  C_9
REMARK    4  A    between atoms: N_11  and  C_12
REMARK    5  A    between atoms: C_16  and  C_17
REMARK    6  A    between atoms: N_19  and  C_20
REMARK                            x       y       z     vdW  Elec       q    Type
REMARK                         _______ _______ _______ _____ _____    ______ ____
ROOT
ATOM      1  C   UNL     1       0.337  10.238  21.914  0.00  0.00    +0.000 C 
ATOM      2  O   UNL     1       0.489  10.018  23.111  0.00  0.00    +0.000 OA
ATOM      3  N   UNL     1      -0.277  11.354  21.369  0.00  0.00    +0.000 N 
ATOM      4  H   UNL     1       0.001  11.618  20.430  0.00  0.00    +0.000 HD
ENDROOT
BRANCH   1  10
ATOM      5  C   UNL     1       2.796   5.391  18.398  0.00  0.00    +0.000 A 
ATOM      6  C   UNL     1       2.516   4.979  19.709  0.00  0.00    +0.000 A 
ATOM      7  C   UNL     1       2.006   5.877  20.646  0.00  0.00    +0.000 A 
ATOM      8  C   UNL     1       1.761   7.202  20.275  0.00  0.00    +0.000 A 
ATOM      9  O   UNL     1       1.244   8.034  21.236  0.00  0.00    +0.000 OA
ATOM     10  C   UNL     1       0.948   9.341  20.874  0.00  0.00    +0.000 A 
ATOM     11  C   UNL     1       1.155   9.861  19.656  0.00  0.00    +0.000 A 
ATOM     12  C   UNL     1       1.746   9.013  18.605  0.00  0.00    +0.000 A 
ATOM     13  O   UNL     1       1.966   9.456  17.489  0.00  0.00    +0.000 OA
ATOM     14  C   UNL     1       2.037   7.620  18.977  0.00  0.00    +0.000 A 
ATOM     15  C   UNL     1       2.557   6.724  18.035  0.00  0.00    +0.000 A 
BRANCH   5  17
ATOM     16  C   UNL     1       2.495   3.104  17.430  0.00  0.00    +0.000 C 
ATOM     17  C   UNL     1       3.294   4.397  17.377  0.00  0.00    +0.000 C 
ENDBRANCH   5  17
ENDBRANCH   1  10
BRANCH   3  18
ATOM     18  C   UNL     1      -0.793  12.342  22.191  0.00  0.00    +0.000 A 
ATOM     19  S   UNL     1      -2.172  11.920  23.090  0.00  0.00    +0.000 S 
ATOM     20  C   UNL     1      -2.397  13.525  23.595  0.00  0.00    +0.000 A 
ATOM     21  C   UNL     1      -1.405  14.376  23.137  0.00  0.00    +0.000 A 
ATOM     22  C   UNL     1      -0.447  13.682  22.295  0.00  0.00    +0.000 A 
ATOM     23  C   UNL     1      -1.403  15.835  23.514  0.00  0.00    +0.000 C 
ATOM     24  C   UNL     1      -2.327  16.124  24.713  0.00  0.00    +0.000 C 
ATOM     25  C   UNL     1      -3.687  15.430  24.566  0.00  0.00    +0.000 C 
ATOM     26  C   UNL     1      -3.537  13.904  24.489  0.00  0.00    +0.000 C 
BRANCH  22  27
ATOM     27  C   UNL     1       0.737  14.286  21.667  0.00  0.00    +0.000 C 
ATOM     28  O   UNL     1       1.786  14.462  22.277  0.00  0.00    +0.000 OA
ATOM     29  N   UNL     1       0.573  14.608  20.334  0.00  0.00    +0.000 N 
ATOM     30  C   UNL     1       1.611  15.190  19.520  0.00  0.00    +0.000 C 
ATOM     31  H   UNL     1      -0.255  14.262  19.864  0.00  0.00    +0.000 HD
ENDBRANCH  22  27
ENDBRANCH   3  18
TORSDOF 4
ENDMDL
MODEL 5
REMARK VINA RESULT:      -8.3      2.924      9.524
REMARK  Name = 
REMARK  6 active torsions:
REMARK  status: ('A' for Active; 'I' for Inactive)
REMARK    1  A    between atoms: C_1  and  C_2
REMARK    2  A    between atoms: C_2  and  C_3
REMARK    3  A    between atoms: C_8  and  C_9
REMARK    4  A    between atoms: N_11  and  C_12
REMARK    5  A    between atoms: C_16  and  C_17
REMARK    6  A    between atoms: N_19  and  C_20
REMARK                            x       y       z     vdW  Elec       q    Type
REMARK                         _______ _______ _______ _____ _____    ______ ____
ROOT
ATOM      1  C   UNL     1       1.074   9.444  21.573  0.00  0.00    +0.000 C 
ATOM      2  O   UNL     1       1.511   9.490  22.717  0.00  0.00    +0.000 OA
ATOM      3  N   UNL     1       0.284  10.410  20.970  0.00  0.00    +0.000 N 
ATOM      4  H   UNL     1       0.321  10.466  19.957  0.00  0.00    +0.000 HD
ENDROOT
BRANCH   1  10
ATOM      5  C   UNL     1       2.314   3.892  18.486  0.00  0.00    +0.000 A 
ATOM      6  C   UNL     1       1.834   3.657  19.782  0.00  0.00    +0.000 A 
ATOM      7  C   UNL     1       1.532   4.720  20.633  0.00  0.00    +0.000 A 
ATOM      8  C   UNL     1       1.698   6.035  20.190  0.00  0.00    +0.000 A 
ATOM      9  O   UNL     1       1.368   7.037  21.067  0.00  0.00    +0.000 OA
ATOM     10  C   UNL     1       1.480   8.349  20.627  0.00  0.00    +0.000 A 
ATOM     11  C   UNL     1       1.915   8.712  19.412  0.00  0.00    +0.000 A 
ATOM     12  C   UNL     1       2.318   7.668  18.453  0.00  0.00    +0.000 A 
ATOM     13  O   UNL     1       2.735   7.961  17.343  0.00  0.00    +0.000 OA
ATOM     14  C   UNL     1       2.176   6.276  18.904  0.00  0.00    +0.000 A 
ATOM     15  C   UNL     1       2.488   5.213  18.049  0.00  0.00    +0.000 A 
BRANCH   5  17
ATOM     16  C   UNL     1       3.424   1.664  18.232  0.00  0.00    +0.000 C 
ATOM     17  C   UNL     1       2.585   2.736  17.553  0.00  0.00    +0.000 C 
ENDBRANCH   5  17
ENDBRANCH   1  10
BRANCH   3  18
ATOM     18  C   UNL     1      -0.087  11.547  21.667  0.00  0.00    +0.000 A 
ATOM     19  S   UNL     1      -1.419  11.384  22.709  0.00  0.00    +0.000 S 
ATOM     20  C   UNL     1      -1.478  13.057  22.981  0.00  0.00    +0.000 A 
ATOM     21  C   UNL     1      -0.462  13.743  22.335  0.00  0.00    +0.000 A 
ATOM     22  C   UNL     1       0.369  12.852  21.544  0.00  0.00    +0.000 A 
ATOM     23  C   UNL     1      -0.318  15.235  22.487  0.00  0.00    +0.000 C 
ATOM     24  C   UNL     1      -1.118  15.774  23.688  0.00  0.00    +0.000 C 
ATOM     25  C   UNL     1      -2.535  15.189  23.739  0.00  0.00    +0.000 C 
ATOM     26  C   UNL     1      -2.511  13.661  23.882  0.00  0.00    +0.000 C 
BRANCH  22  27
ATOM     27  C   UNL     1       1.542  13.252  20.754  0.00  0.00    +0.000 C 
ATOM     28  O   UNL     1       2.666  13.324  21.238  0.00  0.00    +0.000 OA
ATOM     29  N   UNL     1       1.272  13.511  19.424  0.00  0.00    +0.000 N 
ATOM     30  C   UNL     1       2.279  13.898  18.466  0.00  0.00    +0.000 C 
ATOM     31  H   UNL     1       0.360  13.250  19.069  0.00  0.00    +0.000 HD
ENDBRANCH  22  27
ENDBRANCH   3  18
TORSDOF 4
ENDMDL
MODEL 6
REMARK VINA RESULT:      -8.2      2.722      9.359
REMARK  Name = 
REMARK  6 active torsions:
REMARK  status: ('A' for Active; 'I' for Inactive)
REMARK    1  A    between atoms: C_1  and  C_2
REMARK    2  A    between atoms: C_2  and  C_3
REMARK    3  A    between atoms: C_8  and  C_9
REMARK    4  A    between atoms: N_11  and  C_12
REMARK    5  A    between atoms: C_16  and  C_17
REMARK    6  A    between atoms: N_19  and  C_20
REMARK                            x       y       z     vdW  Elec       q    Type
REMARK                         _______ _______ _______ _____ _____    ______ ____
ROOT
ATOM      1  C   UNL     1       0.866   9.472  19.962  0.00  0.00    +0.000 C 
ATOM      2  O   UNL     1       0.103   9.973  19.144  0.00  0.00    +0.000 OA
ATOM      3  N   UNL     1       1.031   9.887  21.274  0.00  0.00    +0.000 N 
ATOM      4  H   UNL     1       1.356   9.193  21.938  0.00  0.00    +0.000 HD
ENDROOT
BRANCH   1  10
ATOM      5  C   UNL     1       3.446   3.543  19.662  0.00  0.00    +0.000 A 
ATOM      6  C   UNL     1       2.606   3.677  20.777  0.00  0.00    +0.000 A 
ATOM      7  C   UNL     1       1.969   4.888  21.049  0.00  0.00    +0.000 A 
ATOM      8  C   UNL     1       2.160   5.980  20.197  0.00  0.00    +0.000 A 
ATOM      9  O   UNL     1       1.495   7.138  20.507  0.00  0.00    +0.000 OA
ATOM     10  C   UNL     1       1.633   8.218  19.647  0.00  0.00    +0.000 A 
ATOM     11  C   UNL     1       2.395   8.222  18.543  0.00  0.00    +0.000 A 
ATOM     12  C   UNL     1       3.159   7.011  18.194  0.00  0.00    +0.000 A 
ATOM     13  O   UNL     1       3.876   6.982  17.207  0.00  0.00    +0.000 OA
ATOM     14  C   UNL     1       2.994   5.855  19.089  0.00  0.00    +0.000 A 
ATOM     15  C   UNL     1       3.641   4.644  18.817  0.00  0.00    +0.000 A 
BRANCH   5  17
ATOM     16  C   UNL     1       3.453   1.574  18.118  0.00  0.00    +0.000 C 
ATOM     17  C   UNL     1       4.085   2.212  19.346  0.00  0.00    +0.000 C 
ENDBRANCH   5  17
ENDBRANCH   1  10
BRANCH   3  18
ATOM     18  C   UNL     1       0.307  10.962  21.765  0.00  0.00    +0.000 A 
ATOM     19  S   UNL     1      -0.993  10.581  22.790  0.00  0.00    +0.000 S 
ATOM     20  C   UNL     1      -1.540  12.187  22.780  0.00  0.00    +0.000 A 
ATOM     21  C   UNL     1      -0.717  13.029  22.051  0.00  0.00    +0.000 A 
ATOM     22  C   UNL     1       0.384  12.308  21.437  0.00  0.00    +0.000 A 
ATOM     23  C   UNL     1      -1.009  14.505  21.957  0.00  0.00    +0.000 C 
ATOM     24  C   UNL     1      -2.010  14.966  23.034  0.00  0.00    +0.000 C 
ATOM     25  C   UNL     1      -3.205  14.011  23.150  0.00  0.00    +0.000 C 
ATOM     26  C   UNL     1      -2.760  12.596  23.545  0.00  0.00    +0.000 C 
BRANCH  22  27
ATOM     27  C   UNL     1       1.448  12.905  20.618  0.00  0.00    +0.000 C 
ATOM     28  O   UNL     1       2.494  13.323  21.103  0.00  0.00    +0.000 OA
ATOM     29  N   UNL     1       1.180  12.927  19.263  0.00  0.00    +0.000 N 
ATOM     30  C   UNL     1       2.094  13.448  18.276  0.00  0.00    +0.000 C 
ATOM     31  H   UNL     1       0.382  12.398  18.932  0.00  0.00    +0.000 HD
ENDBRANCH  22  27
ENDBRANCH   3  18
TORSDOF 4
ENDMDL
MODEL 7
REMARK VINA RESULT:      -8.2      1.349      2.070
REMARK  Name = 
REMARK  6 active torsions:
REMARK  status: ('A' for Active; 'I' for Inactive)
REMARK    1  A    between atoms: C_1  and  C_2
REMARK    2  A    between atoms: C_2  and  C_3
REMARK    3  A    between atoms: C_8  and  C_9
REMARK    4  A    between atoms: N_11  and  C_12
REMARK    5  A    between atoms: C_16  and  C_17
REMARK    6  A    between atoms: N_19  and  C_20
REMARK                            x       y       z     vdW  Elec       q    Type
REMARK                         _______ _______ _______ _____ _____    ______ ____
ROOT
ATOM      1  C   UNL     1       2.159   7.826  19.644  0.00  0.00    +0.000 C 
ATOM      2  O   UNL     1       2.504   7.002  20.483  0.00  0.00    +0.000 OA
ATOM      3  N   UNL     1       2.537   7.829  18.311  0.00  0.00    +0.000 N 
ATOM      4  H   UNL     1       1.908   8.281  17.656  0.00  0.00    +0.000 HD
ENDROOT
BRANCH   1  10
ATOM      5  C   UNL     1      -2.012  11.983  22.331  0.00  0.00    +0.000 A 
ATOM      6  C   UNL     1      -1.487  11.099  23.286  0.00  0.00    +0.000 A 
ATOM      7  C   UNL     1      -0.589  10.099  22.913  0.00  0.00    +0.000 A 
ATOM      8  C   UNL     1      -0.197   9.979  21.577  0.00  0.00    +0.000 A 
ATOM      9  O   UNL     1       0.701   8.987  21.276  0.00  0.00    +0.000 OA
ATOM     10  C   UNL     1       1.139   8.883  19.963  0.00  0.00    +0.000 A 
ATOM     11  C   UNL     1       0.727   9.667  18.957  0.00  0.00    +0.000 A 
ATOM     12  C   UNL     1      -0.268  10.720  19.229  0.00  0.00    +0.000 A 
ATOM     13  O   UNL     1      -0.680  11.443  18.335  0.00  0.00    +0.000 OA
ATOM     14  C   UNL     1      -0.715  10.851  20.624  0.00  0.00    +0.000 A 
ATOM     15  C   UNL     1      -1.623  11.851  20.991  0.00  0.00    +0.000 A 
BRANCH   5  17
ATOM     16  C   UNL     1      -3.809  12.676  23.929  0.00  0.00    +0.000 C 
ATOM     17  C   UNL     1      -2.939  13.097  22.754  0.00  0.00    +0.000 C 
ENDBRANCH   5  17
ENDBRANCH   1  10
BRANCH   3  18
ATOM     18  C   UNL     1       3.385   6.849  17.821  0.00  0.00    +0.000 A 
ATOM     19  S   UNL     1       4.886   7.386  17.232  0.00  0.00    +0.000 S 
ATOM     20  C   UNL     1       5.245   5.853  16.599  0.00  0.00    +0.000 A 
ATOM     21  C   UNL     1       4.264   4.915  16.876  0.00  0.00    +0.000 A 
ATOM     22  C   UNL     1       3.148   5.500  17.598  0.00  0.00    +0.000 A 
ATOM     23  C   UNL     1       4.418   3.482  16.435  0.00  0.00    +0.000 C 
ATOM     24  C   UNL     1       5.872   3.148  16.050  0.00  0.00    +0.000 C 
ATOM     25  C   UNL     1       6.491   4.235  15.163  0.00  0.00    +0.000 C 
ATOM     26  C   UNL     1       6.530   5.593  15.877  0.00  0.00    +0.000 C 
BRANCH  22  27
ATOM     27  C   UNL     1       1.956   4.777  18.063  0.00  0.00    +0.000 C 
ATOM     28  O   UNL     1       1.016   4.515  17.321  0.00  0.00    +0.000 OA
ATOM     29  N   UNL     1       2.000   4.399  19.391  0.00  0.00    +0.000 N 
ATOM     30  C   UNL     1       0.947   3.664  20.048  0.00  0.00    +0.000 C 
ATOM     31  H   UNL     1       2.884   4.492  19.878  0.00  0.00    +0.000 HD
ENDBRANCH  22  27
ENDBRANCH   3  18
TORSDOF 4
ENDMDL
MODEL 8
REMARK VINA RESULT:      -8.2      2.428      9.429
REMARK  Name = 
REMARK  6 active torsions:
REMARK  status: ('A' for Active; 'I' for Inactive)
REMARK    1  A    between atoms: C_1  and  C_2
REMARK    2  A    between atoms: C_2  and  C_3
REMARK    3  A    between atoms: C_8  and  C_9
REMARK    4  A    between atoms: N_11  and  C_12
REMARK    5  A    between atoms: C_16  and  C_17
REMARK    6  A    between atoms: N_19  and  C_20
REMARK                            x       y       z     vdW  Elec       q    Type
REMARK                         _______ _______ _______ _____ _____    ______ ____
ROOT
ATOM      1  C   UNL     1       1.201   9.229  19.580  0.00  0.00    +0.000 C 
ATOM      2  O   UNL     1       0.340   9.698  18.845  0.00  0.00    +0.000 OA
ATOM      3  N   UNL     1       1.420   9.587  20.900  0.00  0.00    +0.000 N 
ATOM      4  H   UNL     1       1.854   8.892  21.499  0.00  0.00    +0.000 HD
ENDROOT
BRANCH   1  10
ATOM      5  C   UNL     1       5.289   5.128  16.686  0.00  0.00    +0.000 A 
ATOM      6  C   UNL     1       5.159   6.318  15.956  0.00  0.00    +0.000 A 
ATOM      7  C   UNL     1       4.301   7.330  16.387  0.00  0.00    +0.000 A 
ATOM      8  C   UNL     1       3.568   7.163  17.566  0.00  0.00    +0.000 A 
ATOM      9  O   UNL     1       2.754   8.200  17.947  0.00  0.00    +0.000 OA
ATOM     10  C   UNL     1       2.056   8.073  19.140  0.00  0.00    +0.000 A 
ATOM     11  C   UNL     1       2.097   6.996  19.937  0.00  0.00    +0.000 A 
ATOM     12  C   UNL     1       2.928   5.844  19.545  0.00  0.00    +0.000 A 
ATOM     13  O   UNL     1       2.977   4.839  20.237  0.00  0.00    +0.000 OA
ATOM     14  C   UNL     1       3.690   5.984  18.296  0.00  0.00    +0.000 A 
ATOM     15  C   UNL     1       4.544   4.963  17.862  0.00  0.00    +0.000 A 
BRANCH   5  17
ATOM     16  C   UNL     1       6.338   3.985  14.723  0.00  0.00    +0.000 C 
ATOM     17  C   UNL     1       6.262   4.064  16.240  0.00  0.00    +0.000 C 
ENDBRANCH   5  17
ENDBRANCH   1  10
BRANCH   3  18
ATOM     18  C   UNL     1       0.638  10.559  21.502  0.00  0.00    +0.000 A 
ATOM     19  S   UNL     1      -0.632   9.996  22.481  0.00  0.00    +0.000 S 
ATOM     20  C   UNL     1      -1.272  11.559  22.640  0.00  0.00    +0.000 A 
ATOM     21  C   UNL     1      -0.504  12.521  22.005  0.00  0.00    +0.000 A 
ATOM     22  C   UNL     1       0.633  11.934  21.318  0.00  0.00    +0.000 A 
ATOM     23  C   UNL     1      -0.883  13.979  22.067  0.00  0.00    +0.000 C 
ATOM     24  C   UNL     1      -1.902  14.264  23.186  0.00  0.00    +0.000 C 
ATOM     25  C   UNL     1      -3.038  13.234  23.200  0.00  0.00    +0.000 C 
ATOM     26  C   UNL     1      -2.510  11.813  23.444  0.00  0.00    +0.000 C 
BRANCH  22  27
ATOM     27  C   UNL     1       1.656  12.676  20.567  0.00  0.00    +0.000 C 
ATOM     28  O   UNL     1       2.603  13.229  21.116  0.00  0.00    +0.000 OA
ATOM     29  N   UNL     1       1.473  12.671  19.197  0.00  0.00    +0.000 N 
ATOM     30  C   UNL     1       2.368  13.318  18.270  0.00  0.00    +0.000 C 
ATOM     31  H   UNL     1       0.777  12.041  18.818  0.00  0.00    +0.000 HD
ENDBRANCH  22  27
ENDBRANCH   3  18
TORSDOF 4
ENDMDL
MODEL 9
REMARK VINA RESULT:      -8.2      3.489      8.939
REMARK  Name = 
REMARK  6 active torsions:
REMARK  status: ('A' for Active; 'I' for Inactive)
REMARK    1  A    between atoms: C_1  and  C_2
REMARK    2  A    between atoms: C_2  and  C_3
REMARK    3  A    between atoms: C_8  and  C_9
REMARK    4  A    between atoms: N_11  and  C_12
REMARK    5  A    between atoms: C_16  and  C_17
REMARK    6  A    between atoms: N_19  and  C_20
REMARK                            x       y       z     vdW  Elec       q    Type
REMARK                         _______ _______ _______ _____ _____    ______ ____
ROOT
ATOM      1  C   UNL     1       1.423  10.104  19.409  0.00  0.00    +0.000 C 
ATOM      2  O   UNL     1       0.981  10.458  20.496  0.00  0.00    +0.000 OA
ATOM      3  N   UNL     1       1.632  10.927  18.314  0.00  0.00    +0.000 N 
ATOM      4  H   UNL     1       2.340  10.636  17.649  0.00  0.00    +0.000 HD
ENDROOT
BRANCH   1  10
ATOM      5  C   UNL     1       2.799   3.781  19.566  0.00  0.00    +0.000 A 
ATOM      6  C   UNL     1       2.013   4.158  20.664  0.00  0.00    +0.000 A 
ATOM      7  C   UNL     1       1.627   5.487  20.841  0.00  0.00    +0.000 A 
ATOM      8  C   UNL     1       2.017   6.454  19.911  0.00  0.00    +0.000 A 
ATOM      9  O   UNL     1       1.592   7.740  20.130  0.00  0.00    +0.000 OA
ATOM     10  C   UNL     1       1.929   8.705  19.192  0.00  0.00    +0.000 A 
ATOM     11  C   UNL     1       2.665   8.478  18.094  0.00  0.00    +0.000 A 
ATOM     12  C   UNL     1       3.176   7.119  17.840  0.00  0.00    +0.000 A 
ATOM     13  O   UNL     1       3.863   6.878  16.861  0.00  0.00    +0.000 OA
ATOM     14  C   UNL     1       2.799   6.087  18.819  0.00  0.00    +0.000 A 
ATOM     15  C   UNL     1       3.196   4.757  18.641  0.00  0.00    +0.000 A 
BRANCH   5  17
ATOM     16  C   UNL     1       3.447   2.043  17.887  0.00  0.00    +0.000 C 
ATOM     17  C   UNL     1       3.164   2.331  19.353  0.00  0.00    +0.000 C 
ENDBRANCH   5  17
ENDBRANCH   1  10
BRANCH   3  18
ATOM     18  C   UNL     1       1.328  12.276  18.385  0.00  0.00    +0.000 A 
ATOM     19  S   UNL     1       2.652  13.337  18.474  0.00  0.00    +0.000 S 
ATOM     20  C   UNL     1       1.638  14.660  18.791  0.00  0.00    +0.000 A 
ATOM     21  C   UNL     1       0.295  14.323  18.775  0.00  0.00    +0.000 A 
ATOM     22  C   UNL     1       0.099  12.903  18.540  0.00  0.00    +0.000 A 
ATOM     23  C   UNL     1      -0.768  15.369  18.991  0.00  0.00    +0.000 C 
ATOM     24  C   UNL     1      -0.217  16.798  18.820  0.00  0.00    +0.000 C 
ATOM     25  C   UNL     1       1.122  16.984  19.545  0.00  0.00    +0.000 C 
ATOM     26  C   UNL     1       2.197  16.034  19.000  0.00  0.00    +0.000 C 
BRANCH  22  27
ATOM     27  C   UNL     1      -1.199  12.222  18.442  0.00  0.00    +0.000 C 
ATOM     28  O   UNL     1      -1.882  11.965  19.427  0.00  0.00    +0.000 OA
ATOM     29  N   UNL     1      -1.591  11.926  17.150  0.00  0.00    +0.000 N 
ATOM     30  C   UNL     1      -2.838  11.279  16.823  0.00  0.00    +0.000 C 
ATOM     31  H   UNL     1      -1.061  12.336  16.391  0.00  0.00    +0.000 HD
ENDBRANCH  22  27
ENDBRANCH   3  18
TORSDOF 4
ENDMDL
