MODEL 1
REMARK VINA RESULT:      -7.8      0.000      0.000
REMARK  Name = 
REMARK  6 active torsions:
REMARK  status: ('A' for Active; 'I' for Inactive)
REMARK    1  A    between atoms: C_1  and  C_2
REMARK    2  A    between atoms: C_9  and  C_10
REMARK    3  A    between atoms: C_10  and  C_11
REMARK    4  A    between atoms: C_11  and  C_12
REMARK    5  A    between atoms: C_18  and  C_19
REMARK    6  A    between atoms: C_21  and  N_22
REMARK                            x       y       z     vdW  Elec       q    Type
REMARK                         _______ _______ _______ _____ _____    ______ ____
ROOT
ATOM      1  C   UNL     1       6.526   5.023  15.088  0.00  0.00    +0.000 C 
ATOM      2  C   UNL     1       5.647   5.574  16.159  0.00  0.00    +0.000 A 
ATOM      3  C   UNL     1       4.918   6.695  16.059  0.00  0.00    +0.000 A 
ATOM      4  C   UNL     1       4.064   7.068  17.151  0.00  0.00    +0.000 A 
ATOM      5  C   UNL     1       3.988   6.316  18.256  0.00  0.00    +0.000 A 
ATOM      6  C   UNL     1       4.882   5.151  18.420  0.00  0.00    +0.000 A 
ATOM      7  O   UNL     1       4.920   4.524  19.470  0.00  0.00    +0.000 OA
ATOM      8  O   UNL     1       5.639   4.797  17.339  0.00  0.00    +0.000 OA
ATOM      9  C   UNL     1       2.953   6.580  19.311  0.00  0.00    +0.000 C 
ATOM     10  C   UNL     1       2.280   7.934  19.094  0.00  0.00    +0.000 C 
ATOM     11  C   UNL     1       2.406   8.628  17.947  0.00  0.00    +0.000 C 
ATOM     12  O   UNL     1       3.259   8.179  16.932  0.00  0.00    +0.000 OA
ENDROOT
BRANCH  11  13
ATOM     13  N   UNL     1       1.714   9.767  17.626  0.00  0.00    +0.000 N 
ATOM     14  H   UNL     1       1.181  10.207  18.371  0.00  0.00    +0.000 HD
ATOM     15  H   UNL     1       2.237  10.414  17.045  0.00  0.00    +0.000 HD
ENDBRANCH  11  13
BRANCH  10  16
ATOM     16  C   UNL     1       1.355   8.365  20.221  0.00  0.00    +0.000 C 
ATOM     17  N   UNL     1       0.589   8.723  21.156  0.00  0.00    +0.000 NA
ENDBRANCH  10  16
BRANCH   9  18
ATOM     18  C   UNL     1       1.877   5.443  19.315  0.00  0.00    +0.000 C 
BRANCH  18  19
ATOM     19  C   UNL     1       1.722   4.816  20.709  0.00  0.00    +0.000 C 
BRANCH  19  20
ATOM     20  C   UNL     1       1.149   3.395  20.791  0.00  0.00    +0.000 C 
ATOM     21  C   UNL     1       0.751   2.797  19.436  0.00  0.00    +0.000 C 
ATOM     22  C   UNL     1       1.954   2.575  18.523  0.00  0.00    +0.000 C 
ATOM     23  C   UNL     1       3.009   1.699  19.195  0.00  0.00    +0.000 C 
ATOM     24  C   UNL     1       3.417   2.222  20.570  0.00  0.00    +0.000 C 
ATOM     25  C   UNL     1       2.203   2.488  21.466  0.00  0.00    +0.000 C 
ENDBRANCH  19  20
ENDBRANCH  18  19
ENDBRANCH   9  18
TORSDOF 5
ENDMDL
MODEL 2
REMARK VINA RESULT:      -7.6      0.651      1.077
REMARK  Name = 
REMARK  6 active torsions:
REMARK  status: ('A' for Active; 'I' for Inactive)
REMARK    1  A    between atoms: C_1  and  C_2
REMARK    2  A    between atoms: C_9  and  C_10
REMARK    3  A    between atoms: C_10  and  C_11
REMARK    4  A    between atoms: C_11  and  C_12
REMARK    5  A    between atoms: C_18  and  C_19
REMARK    6  A    between atoms: C_21  and  N_22
REMARK                            x       y       z     vdW  Elec       q    Type
REMARK                         _______ _______ _______ _____ _____    ______ ____
ROOT
ATOM      1  C   UNL     1       6.647   5.069  15.272  0.00  0.00    +0.000 C 
ATOM      2  C   UNL     1       5.763   5.626  16.336  0.00  0.00    +0.000 A 
ATOM      3  C   UNL     1       4.875   6.616  16.161  0.00  0.00    +0.000 A 
ATOM      4  C   UNL     1       4.042   7.005  17.264  0.00  0.00    +0.000 A 
ATOM      5  C   UNL     1       4.143   6.396  18.453  0.00  0.00    +0.000 A 
ATOM      6  C   UNL     1       5.204   5.395  18.683  0.00  0.00    +0.000 A 
ATOM      7  O   UNL     1       5.395   4.917  19.794  0.00  0.00    +0.000 OA
ATOM      8  O   UNL     1       5.939   5.012  17.596  0.00  0.00    +0.000 OA
ATOM      9  C   UNL     1       3.145   6.648  19.546  0.00  0.00    +0.000 C 
ATOM     10  C   UNL     1       2.271   7.858  19.224  0.00  0.00    +0.000 C 
ATOM     11  C   UNL     1       2.226   8.411  17.996  0.00  0.00    +0.000 C 
ATOM     12  O   UNL     1       3.073   7.958  16.979  0.00  0.00    +0.000 OA
ENDROOT
BRANCH  11  13
ATOM     13  N   UNL     1       1.358   9.395  17.598  0.00  0.00    +0.000 N 
ATOM     14  H   UNL     1       1.753  10.317  17.429  0.00  0.00    +0.000 HD
ATOM     15  H   UNL     1       0.688   9.091  16.899  0.00  0.00    +0.000 HD
ENDBRANCH  11  13
BRANCH  10  16
ATOM     16  C   UNL     1       1.363   8.299  20.361  0.00  0.00    +0.000 C 
ATOM     17  N   UNL     1       0.609   8.665  21.303  0.00  0.00    +0.000 NA
ENDBRANCH  10  16
BRANCH   9  18
ATOM     18  C   UNL     1       2.248   5.384  19.767  0.00  0.00    +0.000 C 
BRANCH  18  19
ATOM     19  C   UNL     1       1.778   4.785  18.434  0.00  0.00    +0.000 C 
BRANCH  19  20
ATOM     20  C   UNL     1       1.376   3.304  18.420  0.00  0.00    +0.000 C 
ATOM     21  C   UNL     1       2.206   2.436  17.465  0.00  0.00    +0.000 C 
ATOM     22  C   UNL     1       3.669   2.339  17.891  0.00  0.00    +0.000 C 
ATOM     23  C   UNL     1       3.800   1.821  19.321  0.00  0.00    +0.000 C 
ATOM     24  C   UNL     1       2.962   2.621  20.315  0.00  0.00    +0.000 C 
ATOM     25  C   UNL     1       1.505   2.756  19.860  0.00  0.00    +0.000 C 
ENDBRANCH  19  20
ENDBRANCH  18  19
ENDBRANCH   9  18
TORSDOF 5
ENDMDL
MODEL 3
REMARK VINA RESULT:      -7.1      1.678      5.062
REMARK  Name = 
REMARK  6 active torsions:
REMARK  status: ('A' for Active; 'I' for Inactive)
REMARK    1  A    between atoms: C_1  and  C_2
REMARK    2  A    between atoms: C_9  and  C_10
REMARK    3  A    between atoms: C_10  and  C_11
REMARK    4  A    between atoms: C_11  and  C_12
REMARK    5  A    between atoms: C_18  and  C_19
REMARK    6  A    between atoms: C_21  and  N_22
REMARK                            x       y       z     vdW  Elec       q    Type
REMARK                         _______ _______ _______ _____ _____    ______ ____
ROOT
ATOM      1  C   UNL     1       2.230   1.834  21.506  0.00  0.00    +0.000 C 
ATOM      2  C   UNL     1       2.206   3.107  20.729  0.00  0.00    +0.000 A 
ATOM      3  C   UNL     1       1.830   4.299  21.214  0.00  0.00    +0.000 A 
ATOM      4  C   UNL     1       1.921   5.454  20.366  0.00  0.00    +0.000 A 
ATOM      5  C   UNL     1       2.374   5.353  19.109  0.00  0.00    +0.000 A 
ATOM      6  C   UNL     1       2.668   4.024  18.534  0.00  0.00    +0.000 A 
ATOM      7  O   UNL     1       2.962   3.895  17.353  0.00  0.00    +0.000 OA
ATOM      8  O   UNL     1       2.622   2.958  19.387  0.00  0.00    +0.000 OA
ATOM      9  C   UNL     1       2.668   6.572  18.284  0.00  0.00    +0.000 C 
ATOM     10  C   UNL     1       2.098   7.829  18.939  0.00  0.00    +0.000 C 
ATOM     11  C   UNL     1       1.665   7.847  20.214  0.00  0.00    +0.000 C 
ATOM     12  O   UNL     1       1.619   6.669  20.968  0.00  0.00    +0.000 OA
ENDROOT
BRANCH  11  13
ATOM     13  N   UNL     1       1.286   8.965  20.911  0.00  0.00    +0.000 N 
ATOM     14  H   UNL     1       1.764   9.833  20.682  0.00  0.00    +0.000 HD
ATOM     15  H   UNL     1       0.281   9.056  21.024  0.00  0.00    +0.000 HD
ENDBRANCH  11  13
BRANCH  10  16
ATOM     16  C   UNL     1       2.185   9.080  18.080  0.00  0.00    +0.000 C 
ATOM     17  N   UNL     1       2.257  10.119  17.368  0.00  0.00    +0.000 NA
ENDBRANCH  10  16
BRANCH   9  18
ATOM     18  C   UNL     1       4.212   6.730  18.077  0.00  0.00    +0.000 C 
BRANCH  18  19
ATOM     19  C   UNL     1       4.618   6.461  16.621  0.00  0.00    +0.000 C 
BRANCH  19  20
ATOM     20  C   UNL     1       6.081   6.711  16.231  0.00  0.00    +0.000 C 
ATOM     21  C   UNL     1       7.006   7.011  17.418  0.00  0.00    +0.000 C 
ATOM     22  C   UNL     1       7.152   5.817  18.357  0.00  0.00    +0.000 C 
ATOM     23  C   UNL     1       7.640   4.578  17.611  0.00  0.00    +0.000 C 
ATOM     24  C   UNL     1       6.781   4.250  16.392  0.00  0.00    +0.000 C 
ATOM     25  C   UNL     1       6.597   5.465  15.476  0.00  0.00    +0.000 C 
ENDBRANCH  19  20
ENDBRANCH  18  19
ENDBRANCH   9  18
TORSDOF 5
ENDMDL
MODEL 4
REMARK VINA RESULT:      -7.1      0.598      1.486
REMARK  Name = 
REMARK  6 active torsions:
REMARK  status: ('A' for Active; 'I' for Inactive)
REMARK    1  A    between atoms: C_1  and  C_2
REMARK    2  A    between atoms: C_9  and  C_10
REMARK    3  A    between atoms: C_10  and  C_11
REMARK    4  A    between atoms: C_11  and  C_12
REMARK    5  A    between atoms: C_18  and  C_19
REMARK    6  A    between atoms: C_21  and  N_22
REMARK                            x       y       z     vdW  Elec       q    Type
REMARK                         _______ _______ _______ _____ _____    ______ ____
ROOT
ATOM      1  C   UNL     1       6.828   4.864  14.953  0.00  0.00    +0.000 C 
ATOM      2  C   UNL     1       5.981   5.424  16.045  0.00  0.00    +0.000 A 
ATOM      3  C   UNL     1       5.106   6.430  15.903  0.00  0.00    +0.000 A 
ATOM      4  C   UNL     1       4.307   6.821  17.031  0.00  0.00    +0.000 A 
ATOM      5  C   UNL     1       4.427   6.196  18.210  0.00  0.00    +0.000 A 
ATOM      6  C   UNL     1       5.476   5.175  18.403  0.00  0.00    +0.000 A 
ATOM      7  O   UNL     1       5.687   4.682  19.503  0.00  0.00    +0.000 OA
ATOM      8  O   UNL     1       6.177   4.792  17.293  0.00  0.00    +0.000 OA
ATOM      9  C   UNL     1       3.461   6.453  19.331  0.00  0.00    +0.000 C 
ATOM     10  C   UNL     1       2.600   7.682  19.044  0.00  0.00    +0.000 C 
ATOM     11  C   UNL     1       2.534   8.249  17.824  0.00  0.00    +0.000 C 
ATOM     12  O   UNL     1       3.348   7.794  16.780  0.00  0.00    +0.000 OA
ENDROOT
BRANCH  11  13
ATOM     13  N   UNL     1       1.674   9.252  17.459  0.00  0.00    +0.000 N 
ATOM     14  H   UNL     1       0.993   9.550  18.153  0.00  0.00    +0.000 HD
ATOM     15  H   UNL     1       2.121  10.012  16.956  0.00  0.00    +0.000 HD
ENDBRANCH  11  13
BRANCH  10  16
ATOM     16  C   UNL     1       1.729   8.125  20.208  0.00  0.00    +0.000 C 
ATOM     17  N   UNL     1       1.005   8.492  21.173  0.00  0.00    +0.000 NA
ENDBRANCH  10  16
BRANCH   9  18
ATOM     18  C   UNL     1       2.548   5.202  19.560  0.00  0.00    +0.000 C 
BRANCH  18  19
ATOM     19  C   UNL     1       2.172   4.526  18.233  0.00  0.00    +0.000 C 
BRANCH  19  20
ATOM     20  C   UNL     1       2.048   2.996  18.223  0.00  0.00    +0.000 C 
ATOM     21  C   UNL     1       3.224   2.265  18.885  0.00  0.00    +0.000 C 
ATOM     22  C   UNL     1       3.311   2.543  20.383  0.00  0.00    +0.000 C 
ATOM     23  C   UNL     1       2.005   2.188  21.091  0.00  0.00    +0.000 C 
ATOM     24  C   UNL     1       0.790   2.855  20.451  0.00  0.00    +0.000 C 
ATOM     25  C   UNL     1       0.733   2.615  18.939  0.00  0.00    +0.000 C 
ENDBRANCH  19  20
ENDBRANCH  18  19
ENDBRANCH   9  18
TORSDOF 5
ENDMDL
MODEL 5
REMARK VINA RESULT:      -6.9      2.685      5.730
REMARK  Name = 
REMARK  6 active torsions:
REMARK  status: ('A' for Active; 'I' for Inactive)
REMARK    1  A    between atoms: C_1  and  C_2
REMARK    2  A    between atoms: C_9  and  C_10
REMARK    3  A    between atoms: C_10  and  C_11
REMARK    4  A    between atoms: C_11  and  C_12
REMARK    5  A    between atoms: C_18  and  C_19
REMARK    6  A    between atoms: C_21  and  N_22
REMARK                            x       y       z     vdW  Elec       q    Type
REMARK                         _______ _______ _______ _____ _____    ______ ____
ROOT
ATOM      1  C   UNL     1       0.422   9.804  19.913  0.00  0.00    +0.000 C 
ATOM      2  C   UNL     1       1.234   8.555  19.846  0.00  0.00    +0.000 A 
ATOM      3  C   UNL     1       1.116   7.513  20.682  0.00  0.00    +0.000 A 
ATOM      4  C   UNL     1       1.921   6.346  20.455  0.00  0.00    +0.000 A 
ATOM      5  C   UNL     1       2.780   6.289  19.428  0.00  0.00    +0.000 A 
ATOM      6  C   UNL     1       3.003   7.481  18.584  0.00  0.00    +0.000 A 
ATOM      7  O   UNL     1       3.871   7.494  17.722  0.00  0.00    +0.000 OA
ATOM      8  O   UNL     1       2.180   8.551  18.796  0.00  0.00    +0.000 OA
ATOM      9  C   UNL     1       3.472   5.009  19.059  0.00  0.00    +0.000 C 
ATOM     10  C   UNL     1       3.308   3.959  20.156  0.00  0.00    +0.000 C 
ATOM     11  C   UNL     1       2.415   4.093  21.156  0.00  0.00    +0.000 C 
ATOM     12  O   UNL     1       1.666   5.267  21.292  0.00  0.00    +0.000 OA
ENDROOT
BRANCH  11  13
ATOM     13  N   UNL     1       2.107   3.129  22.082  0.00  0.00    +0.000 N 
ATOM     14  H   UNL     1       2.722   2.320  22.126  0.00  0.00    +0.000 HD
ATOM     15  H   UNL     1       1.838   3.502  22.987  0.00  0.00    +0.000 HD
ENDBRANCH  11  13
BRANCH  10  16
ATOM     16  C   UNL     1       4.134   2.700  19.951  0.00  0.00    +0.000 C 
ATOM     17  N   UNL     1       4.820   1.655  19.782  0.00  0.00    +0.000 NA
ENDBRANCH  10  16
BRANCH   9  18
ATOM     18  C   UNL     1       2.914   4.459  17.704  0.00  0.00    +0.000 C 
BRANCH  18  19
ATOM     19  C   UNL     1       3.937   4.607  16.569  0.00  0.00    +0.000 C 
BRANCH  19  20
ATOM     20  C   UNL     1       5.216   3.762  16.648  0.00  0.00    +0.000 C 
ATOM     21  C   UNL     1       5.698   3.224  15.295  0.00  0.00    +0.000 C 
ATOM     22  C   UNL     1       6.140   4.338  14.349  0.00  0.00    +0.000 C 
ATOM     23  C   UNL     1       7.221   5.211  14.984  0.00  0.00    +0.000 C 
ATOM     24  C   UNL     1       6.814   5.745  16.355  0.00  0.00    +0.000 C 
ATOM     25  C   UNL     1       6.327   4.629  17.284  0.00  0.00    +0.000 C 
ENDBRANCH  19  20
ENDBRANCH  18  19
ENDBRANCH   9  18
TORSDOF 5
ENDMDL
MODEL 6
REMARK VINA RESULT:      -6.8      1.945      4.743
REMARK  Name = 
REMARK  6 active torsions:
REMARK  status: ('A' for Active; 'I' for Inactive)
REMARK    1  A    between atoms: C_1  and  C_2
REMARK    2  A    between atoms: C_9  and  C_10
REMARK    3  A    between atoms: C_10  and  C_11
REMARK    4  A    between atoms: C_11  and  C_12
REMARK    5  A    between atoms: C_18  and  C_19
REMARK    6  A    between atoms: C_21  and  N_22
REMARK                            x       y       z     vdW  Elec       q    Type
REMARK                         _______ _______ _______ _____ _____    ______ ____
ROOT
ATOM      1  C   UNL     1       4.668   1.376  19.835  0.00  0.00    +0.000 C 
ATOM      2  C   UNL     1       4.045   2.657  19.394  0.00  0.00    +0.000 A 
ATOM      3  C   UNL     1       3.599   3.620  20.214  0.00  0.00    +0.000 A 
ATOM      4  C   UNL     1       3.083   4.832  19.645  0.00  0.00    +0.000 A 
ATOM      5  C   UNL     1       3.042   5.009  18.317  0.00  0.00    +0.000 A 
ATOM      6  C   UNL     1       3.415   3.902  17.413  0.00  0.00    +0.000 A 
ATOM      7  O   UNL     1       3.267   3.996  16.201  0.00  0.00    +0.000 OA
ATOM      8  O   UNL     1       3.953   2.787  17.990  0.00  0.00    +0.000 OA
ATOM      9  C   UNL     1       2.700   6.342  17.717  0.00  0.00    +0.000 C 
ATOM     10  C   UNL     1       2.128   7.289  18.770  0.00  0.00    +0.000 C 
ATOM     11  C   UNL     1       2.213   7.037  20.091  0.00  0.00    +0.000 C 
ATOM     12  O   UNL     1       2.742   5.826  20.554  0.00  0.00    +0.000 OA
ENDROOT
BRANCH  11  13
ATOM     13  N   UNL     1       1.862   7.906  21.091  0.00  0.00    +0.000 N 
ATOM     14  H   UNL     1       1.948   7.568  22.046  0.00  0.00    +0.000 HD
ATOM     15  H   UNL     1       2.200   8.852  20.949  0.00  0.00    +0.000 HD
ENDBRANCH  11  13
BRANCH  10  16
ATOM     16  C   UNL     1       1.579   8.592  18.213  0.00  0.00    +0.000 C 
ATOM     17  N   UNL     1       1.124   9.674  17.751  0.00  0.00    +0.000 NA
ENDBRANCH  10  16
BRANCH   9  18
ATOM     18  C   UNL     1       3.965   6.982  17.054  0.00  0.00    +0.000 C 
BRANCH  18  19
ATOM     19  C   UNL     1       5.209   6.823  17.940  0.00  0.00    +0.000 C 
BRANCH  19  20
ATOM     20  C   UNL     1       6.584   6.940  17.267  0.00  0.00    +0.000 C 
ATOM     21  C   UNL     1       7.763   6.978  18.248  0.00  0.00    +0.000 C 
ATOM     22  C   UNL     1       7.923   5.670  19.017  0.00  0.00    +0.000 C 
ATOM     23  C   UNL     1       8.066   4.481  18.069  0.00  0.00    +0.000 C 
ATOM     24  C   UNL     1       6.940   4.412  17.040  0.00  0.00    +0.000 C 
ATOM     25  C   UNL     1       6.752   5.742  16.304  0.00  0.00    +0.000 C 
ENDBRANCH  19  20
ENDBRANCH  18  19
ENDBRANCH   9  18
TORSDOF 5
ENDMDL
MODEL 7
REMARK VINA RESULT:      -6.8      2.722      5.817
REMARK  Name = 
REMARK  6 active torsions:
REMARK  status: ('A' for Active; 'I' for Inactive)
REMARK    1  A    between atoms: C_1  and  C_2
REMARK    2  A    between atoms: C_9  and  C_10
REMARK    3  A    between atoms: C_10  and  C_11
REMARK    4  A    between atoms: C_11  and  C_12
REMARK    5  A    between atoms: C_18  and  C_19
REMARK    6  A    between atoms: C_21  and  N_22
REMARK                            x       y       z     vdW  Elec       q    Type
REMARK                         _______ _______ _______ _____ _____    ______ ____
ROOT
ATOM      1  C   UNL     1      -0.179   9.968  20.405  0.00  0.00    +0.000 C 
ATOM      2  C   UNL     1       0.735   8.803  20.222  0.00  0.00    +0.000 A 
ATOM      3  C   UNL     1       0.743   7.701  20.986  0.00  0.00    +0.000 A 
ATOM      4  C   UNL     1       1.636   6.629  20.650  0.00  0.00    +0.000 A 
ATOM      5  C   UNL     1       2.454   6.718  19.592  0.00  0.00    +0.000 A 
ATOM      6  C   UNL     1       2.537   7.978  18.827  0.00  0.00    +0.000 A 
ATOM      7  O   UNL     1       3.364   8.126  17.937  0.00  0.00    +0.000 OA
ATOM      8  O   UNL     1       1.633   8.954  19.142  0.00  0.00    +0.000 OA
ATOM      9  C   UNL     1       3.238   5.532  19.111  0.00  0.00    +0.000 C 
ATOM     10  C   UNL     1       3.211   4.401  20.136  0.00  0.00    +0.000 C 
ATOM     11  C   UNL     1       2.352   4.387  21.174  0.00  0.00    +0.000 C 
ATOM     12  O   UNL     1       1.511   5.479  21.419  0.00  0.00    +0.000 OA
ENDROOT
BRANCH  11  13
ATOM     13  N   UNL     1       2.168   3.341  22.041  0.00  0.00    +0.000 N 
ATOM     14  H   UNL     1       1.986   2.429  21.629  0.00  0.00    +0.000 HD
ATOM     15  H   UNL     1       2.825   3.329  22.814  0.00  0.00    +0.000 HD
ENDBRANCH  11  13
BRANCH  10  16
ATOM     16  C   UNL     1       4.134   3.237  19.815  0.00  0.00    +0.000 C 
ATOM     17  N   UNL     1       4.900   2.271  19.548  0.00  0.00    +0.000 NA
ENDBRANCH  10  16
BRANCH   9  18
ATOM     18  C   UNL     1       2.674   5.025  17.741  0.00  0.00    +0.000 C 
BRANCH  18  19
ATOM     19  C   UNL     1       3.799   4.583  16.795  0.00  0.00    +0.000 C 
BRANCH  19  20
ATOM     20  C   UNL     1       4.789   5.653  16.315  0.00  0.00    +0.000 C 
ATOM     21  C   UNL     1       5.812   6.083  17.374  0.00  0.00    +0.000 C 
ATOM     22  C   UNL     1       6.764   4.953  17.756  0.00  0.00    +0.000 C 
ATOM     23  C   UNL     1       7.481   4.390  16.531  0.00  0.00    +0.000 C 
ATOM     24  C   UNL     1       6.515   3.981  15.422  0.00  0.00    +0.000 C 
ATOM     25  C   UNL     1       5.530   5.102  15.075  0.00  0.00    +0.000 C 
ENDBRANCH  19  20
ENDBRANCH  18  19
ENDBRANCH   9  18
TORSDOF 5
ENDMDL
MODEL 8
REMARK VINA RESULT:      -6.8      2.643      5.004
REMARK  Name = 
REMARK  6 active torsions:
REMARK  status: ('A' for Active; 'I' for Inactive)
REMARK    1  A    between atoms: C_1  and  C_2
REMARK    2  A    between atoms: C_9  and  C_10
REMARK    3  A    between atoms: C_10  and  C_11
REMARK    4  A    between atoms: C_11  and  C_12
REMARK    5  A    between atoms: C_18  and  C_19
REMARK    6  A    between atoms: C_21  and  N_22
REMARK                            x       y       z     vdW  Elec       q    Type
REMARK                         _______ _______ _______ _____ _____    ______ ____
ROOT
ATOM      1  C   UNL     1       8.081   6.756  18.513  0.00  0.00    +0.000 C 
ATOM      2  C   UNL     1       6.841   5.936  18.388  0.00  0.00    +0.000 A 
ATOM      3  C   UNL     1       6.277   5.232  19.381  0.00  0.00    +0.000 A 
ATOM      4  C   UNL     1       5.044   4.542  19.129  0.00  0.00    +0.000 A 
ATOM      5  C   UNL     1       4.458   4.593  17.926  0.00  0.00    +0.000 A 
ATOM      6  C   UNL     1       5.140   5.261  16.799  0.00  0.00    +0.000 A 
ATOM      7  O   UNL     1       4.685   5.212  15.664  0.00  0.00    +0.000 OA
ATOM      8  O   UNL     1       6.282   5.952  17.090  0.00  0.00    +0.000 OA
ATOM      9  C   UNL     1       3.075   4.051  17.708  0.00  0.00    +0.000 C 
ATOM     10  C   UNL     1       2.621   3.207  18.897  0.00  0.00    +0.000 C 
ATOM     11  C   UNL     1       3.269   3.215  20.078  0.00  0.00    +0.000 C 
ATOM     12  O   UNL     1       4.464   3.927  20.231  0.00  0.00    +0.000 OA
ENDROOT
BRANCH  11  13
ATOM     13  N   UNL     1       2.836   2.605  21.228  0.00  0.00    +0.000 N 
ATOM     14  H   UNL     1       1.888   2.814  21.530  0.00  0.00    +0.000 HD
ATOM     15  H   UNL     1       3.092   1.625  21.293  0.00  0.00    +0.000 HD
ENDBRANCH  11  13
BRANCH  10  16
ATOM     16  C   UNL     1       1.312   2.466  18.680  0.00  0.00    +0.000 C 
ATOM     17  N   UNL     1       0.226   1.851  18.500  0.00  0.00    +0.000 NA
ENDBRANCH  10  16
BRANCH   9  18
ATOM     18  C   UNL     1       2.063   5.222  17.467  0.00  0.00    +0.000 C 
BRANCH  18  19
ATOM     19  C   UNL     1       1.766   5.987  18.765  0.00  0.00    +0.000 C 
BRANCH  19  20
ATOM     20  C   UNL     1       2.677   7.170  19.120  0.00  0.00    +0.000 C 
ATOM     21  C   UNL     1       2.840   8.199  17.994  0.00  0.00    +0.000 C 
ATOM     22  C   UNL     1       1.533   8.921  17.674  0.00  0.00    +0.000 C 
ATOM     23  C   UNL     1       0.947   9.588  18.916  0.00  0.00    +0.000 C 
ATOM     24  C   UNL     1       0.799   8.621  20.087  0.00  0.00    +0.000 C 
ATOM     25  C   UNL     1       2.100   7.864  20.374  0.00  0.00    +0.000 C 
ENDBRANCH  19  20
ENDBRANCH  18  19
ENDBRANCH   9  18
TORSDOF 5
ENDMDL
MODEL 9
REMARK VINA RESULT:      -6.7      2.835      5.978
REMARK  Name = 
REMARK  6 active torsions:
REMARK  status: ('A' for Active; 'I' for Inactive)
REMARK    1  A    between atoms: C_1  and  C_2
REMARK    2  A    between atoms: C_9  and  C_10
REMARK    3  A    between atoms: C_10  and  C_11
REMARK    4  A    between atoms: C_11  and  C_12
REMARK    5  A    between atoms: C_18  and  C_19
REMARK    6  A    between atoms: C_21  and  N_22
REMARK                            x       y       z     vdW  Elec       q    Type
REMARK                         _______ _______ _______ _____ _____    ______ ____
ROOT
ATOM      1  C   UNL     1       1.480   2.491  19.364  0.00  0.00    +0.000 C 
ATOM      2  C   UNL     1       2.485   3.552  19.064  0.00  0.00    +0.000 A 
ATOM      3  C   UNL     1       3.782   3.503  19.402  0.00  0.00    +0.000 A 
ATOM      4  C   UNL     1       4.648   4.569  18.987  0.00  0.00    +0.000 A 
ATOM      5  C   UNL     1       4.179   5.602  18.273  0.00  0.00    +0.000 A 
ATOM      6  C   UNL     1       2.730   5.720  18.010  0.00  0.00    +0.000 A 
ATOM      7  O   UNL     1       2.262   6.715  17.471  0.00  0.00    +0.000 OA
ATOM      8  O   UNL     1       1.947   4.660  18.372  0.00  0.00    +0.000 OA
ATOM      9  C   UNL     1       5.104   6.613  17.660  0.00  0.00    +0.000 C 
ATOM     10  C   UNL     1       6.519   6.471  18.216  0.00  0.00    +0.000 C 
ATOM     11  C   UNL     1       6.913   5.394  18.925  0.00  0.00    +0.000 C 
ATOM     12  O   UNL     1       5.995   4.397  19.276  0.00  0.00    +0.000 OA
ENDROOT
BRANCH  11  13
ATOM     13  N   UNL     1       8.198   5.129  19.322  0.00  0.00    +0.000 N 
ATOM     14  H   UNL     1       8.382   4.202  19.696  0.00  0.00    +0.000 HD
ATOM     15  H   UNL     1       8.904   5.470  18.677  0.00  0.00    +0.000 HD
ENDBRANCH  11  13
BRANCH  10  16
ATOM     16  C   UNL     1       7.476   7.573  17.793  0.00  0.00    +0.000 C 
ATOM     17  N   UNL     1       8.269   8.488  17.441  0.00  0.00    +0.000 NA
ENDBRANCH  10  16
BRANCH   9  18
ATOM     18  C   UNL     1       5.124   6.458  16.102  0.00  0.00    +0.000 C 
BRANCH  18  19
ATOM     19  C   UNL     1       4.807   5.018  15.673  0.00  0.00    +0.000 C 
BRANCH  19  20
ATOM     20  C   UNL     1       5.982   4.042  15.530  0.00  0.00    +0.000 C 
ATOM     21  C   UNL     1       5.796   2.991  14.428  0.00  0.00    +0.000 C 
ATOM     22  C   UNL     1       5.759   3.611  13.034  0.00  0.00    +0.000 C 
ATOM     23  C   UNL     1       7.010   4.444  12.762  0.00  0.00    +0.000 C 
ATOM     24  C   UNL     1       7.271   5.483  13.848  0.00  0.00    +0.000 C 
ATOM     25  C   UNL     1       7.260   4.864  15.250  0.00  0.00    +0.000 C 
ENDBRANCH  19  20
ENDBRANCH  18  19
ENDBRANCH   9  18
TORSDOF 5
ENDMDL
