MODEL 1
REMARK VINA RESULT:      -7.2      0.000      0.000
REMARK  Name = 
REMARK  3 active torsions:
REMARK  status: ('A' for Active; 'I' for Inactive)
REMARK    1  A    between atoms: C_1  and  O_2
REMARK    2  A    between atoms: O_2  and  C_3
REMARK    3  A    between atoms: C_6  and  C_7
REMARK                            x       y       z     vdW  Elec       q    Type
REMARK                         _______ _______ _______ _____ _____    ______ ____
ROOT
ATOM      1  C   UNL     1       3.783   4.084  18.291  0.00  0.00    +0.000 A 
ATOM      2  C   UNL     1       3.749   2.919  17.608  0.00  0.00    +0.000 A 
ATOM      3  C   UNL     1       2.685   1.963  17.870  0.00  0.00    +0.000 A 
ATOM      4  C   UNL     1       1.725   2.209  18.781  0.00  0.00    +0.000 A 
ATOM      5  C   UNL     1       1.748   3.429  19.512  0.00  0.00    +0.000 A 
ATOM      6  N   UNL     1       0.947   3.902  20.440  0.00  0.00    +0.000 NA
ATOM      7  C   UNL     1       1.508   5.107  20.733  0.00  0.00    +0.000 A 
ATOM      8  N   UNL     1       2.607   5.424  20.053  0.00  0.00    +0.000 NA
ATOM      9  N   UNL     1       2.781   4.339  19.247  0.00  0.00    +0.000 N 
ENDROOT
BRANCH   1  13
ATOM     10  C   UNL     1       6.903   6.883  17.411  0.00  0.00    +0.000 A 
ATOM     11  C   UNL     1       5.723   6.876  16.665  0.00  0.00    +0.000 A 
ATOM     12  C   UNL     1       4.696   5.978  16.965  0.00  0.00    +0.000 A 
ATOM     13  C   UNL     1       4.849   5.057  18.006  0.00  0.00    +0.000 A 
ATOM     14  C   UNL     1       6.039   5.054  18.745  0.00  0.00    +0.000 A 
ATOM     15  C   UNL     1       7.062   5.963  18.449  0.00  0.00    +0.000 A 
BRANCH  10  17
ATOM     16  C   UNL     1       8.149   8.820  17.948  0.00  0.00    +0.000 C 
ATOM     17  O   UNL     1       7.837   7.797  17.010  0.00  0.00    +0.000 OA
ENDBRANCH  10  17
ENDBRANCH   1  13
TORSDOF 2
ENDMDL
MODEL 2
REMARK VINA RESULT:      -7.1      3.408      5.891
REMARK  Name = 
REMARK  3 active torsions:
REMARK  status: ('A' for Active; 'I' for Inactive)
REMARK    1  A    between atoms: C_1  and  O_2
REMARK    2  A    between atoms: O_2  and  C_3
REMARK    3  A    between atoms: C_6  and  C_7
REMARK                            x       y       z     vdW  Elec       q    Type
REMARK                         _______ _______ _______ _____ _____    ______ ____
ROOT
ATOM      1  C   UNL     1       4.964   4.312  16.708  0.00  0.00    +0.000 A 
ATOM      2  C   UNL     1       5.048   3.619  15.552  0.00  0.00    +0.000 A 
ATOM      3  C   UNL     1       6.102   3.934  14.601  0.00  0.00    +0.000 A 
ATOM      4  C   UNL     1       7.004   4.904  14.843  0.00  0.00    +0.000 A 
ATOM      5  C   UNL     1       6.927   5.646  16.054  0.00  0.00    +0.000 A 
ATOM      6  N   UNL     1       7.668   6.625  16.522  0.00  0.00    +0.000 NA
ATOM      7  C   UNL     1       7.080   6.898  17.719  0.00  0.00    +0.000 A 
ATOM      8  N   UNL     1       6.021   6.156  18.036  0.00  0.00    +0.000 NA
ATOM      9  N   UNL     1       5.905   5.329  16.959  0.00  0.00    +0.000 N 
ENDROOT
BRANCH   1  13
ATOM     10  C   UNL     1       1.886   3.274  19.499  0.00  0.00    +0.000 A 
ATOM     11  C   UNL     1       3.157   2.705  19.599  0.00  0.00    +0.000 A 
ATOM     12  C   UNL     1       4.168   3.059  18.702  0.00  0.00    +0.000 A 
ATOM     13  C   UNL     1       3.910   3.974  17.677  0.00  0.00    +0.000 A 
ATOM     14  C   UNL     1       2.630   4.533  17.568  0.00  0.00    +0.000 A 
ATOM     15  C   UNL     1       1.622   4.185  18.476  0.00  0.00    +0.000 A 
BRANCH  10  17
ATOM     16  C   UNL     1       1.483   2.640  21.742  0.00  0.00    +0.000 C 
ATOM     17  O   UNL     1       0.981   2.834  20.425  0.00  0.00    +0.000 OA
ENDBRANCH  10  17
ENDBRANCH   1  13
TORSDOF 2
ENDMDL
MODEL 3
REMARK VINA RESULT:      -7.1      0.197      1.183
REMARK  Name = 
REMARK  3 active torsions:
REMARK  status: ('A' for Active; 'I' for Inactive)
REMARK    1  A    between atoms: C_1  and  O_2
REMARK    2  A    between atoms: O_2  and  C_3
REMARK    3  A    between atoms: C_6  and  C_7
REMARK                            x       y       z     vdW  Elec       q    Type
REMARK                         _______ _______ _______ _____ _____    ______ ____
ROOT
ATOM      1  C   UNL     1       3.798   3.974  18.324  0.00  0.00    +0.000 A 
ATOM      2  C   UNL     1       3.769   2.751  17.753  0.00  0.00    +0.000 A 
ATOM      3  C   UNL     1       2.729   1.806  18.130  0.00  0.00    +0.000 A 
ATOM      4  C   UNL     1       1.787   2.121  19.039  0.00  0.00    +0.000 A 
ATOM      5  C   UNL     1       1.805   3.403  19.653  0.00  0.00    +0.000 A 
ATOM      6  N   UNL     1       1.018   3.949  20.553  0.00  0.00    +0.000 NA
ATOM      7  C   UNL     1       1.564   5.184  20.718  0.00  0.00    +0.000 A 
ATOM      8  N   UNL     1       2.641   5.453  19.984  0.00  0.00    +0.000 NA
ATOM      9  N   UNL     1       2.815   4.301  19.278  0.00  0.00    +0.000 N 
ENDROOT
BRANCH   1  13
ATOM     10  C   UNL     1       6.818   6.799  17.212  0.00  0.00    +0.000 A 
ATOM     11  C   UNL     1       7.070   5.839  18.192  0.00  0.00    +0.000 A 
ATOM     12  C   UNL     1       6.093   4.903  18.541  0.00  0.00    +0.000 A 
ATOM     13  C   UNL     1       4.839   4.933  17.923  0.00  0.00    +0.000 A 
ATOM     14  C   UNL     1       4.580   5.907  16.951  0.00  0.00    +0.000 A 
ATOM     15  C   UNL     1       5.566   6.837  16.595  0.00  0.00    +0.000 A 
BRANCH  10  17
ATOM     16  C   UNL     1       7.920   8.798  17.832  0.00  0.00    +0.000 C 
ATOM     17  O   UNL     1       7.847   7.667  16.972  0.00  0.00    +0.000 OA
ENDBRANCH  10  17
ENDBRANCH   1  13
TORSDOF 2
ENDMDL
MODEL 4
REMARK VINA RESULT:      -7.0      2.105      2.777
REMARK  Name = 
REMARK  3 active torsions:
REMARK  status: ('A' for Active; 'I' for Inactive)
REMARK    1  A    between atoms: C_1  and  O_2
REMARK    2  A    between atoms: O_2  and  C_3
REMARK    3  A    between atoms: C_6  and  C_7
REMARK                            x       y       z     vdW  Elec       q    Type
REMARK                         _______ _______ _______ _____ _____    ______ ____
ROOT
ATOM      1  C   UNL     1       3.917   4.115  19.204  0.00  0.00    +0.000 A 
ATOM      2  C   UNL     1       3.805   2.922  19.827  0.00  0.00    +0.000 A 
ATOM      3  C   UNL     1       2.848   2.764  20.911  0.00  0.00    +0.000 A 
ATOM      4  C   UNL     1       2.064   3.782  21.313  0.00  0.00    +0.000 A 
ATOM      5  C   UNL     1       2.172   5.046  20.671  0.00  0.00    +0.000 A 
ATOM      6  N   UNL     1       1.538   6.180  20.869  0.00  0.00    +0.000 NA
ATOM      7  C   UNL     1       2.093   7.001  19.936  0.00  0.00    +0.000 A 
ATOM      8  N   UNL     1       3.034   6.460  19.164  0.00  0.00    +0.000 NA
ATOM      9  N   UNL     1       3.099   5.181  19.628  0.00  0.00    +0.000 N 
ENDROOT
BRANCH   1  13
ATOM     10  C   UNL     1       6.690   4.610  15.978  0.00  0.00    +0.000 A 
ATOM     11  C   UNL     1       7.102   4.778  17.301  0.00  0.00    +0.000 A 
ATOM     12  C   UNL     1       6.203   4.596  18.355  0.00  0.00    +0.000 A 
ATOM     13  C   UNL     1       4.870   4.263  18.094  0.00  0.00    +0.000 A 
ATOM     14  C   UNL     1       4.454   4.110  16.765  0.00  0.00    +0.000 A 
ATOM     15  C   UNL     1       5.360   4.282  15.711  0.00  0.00    +0.000 A 
BRANCH  10  17
ATOM     16  C   UNL     1       7.222   4.821  13.684  0.00  0.00    +0.000 C 
ATOM     17  O   UNL     1       7.657   4.831  15.038  0.00  0.00    +0.000 OA
ENDBRANCH  10  17
ENDBRANCH   1  13
TORSDOF 2
ENDMDL
MODEL 5
REMARK VINA RESULT:      -7.0      3.414      5.783
REMARK  Name = 
REMARK  3 active torsions:
REMARK  status: ('A' for Active; 'I' for Inactive)
REMARK    1  A    between atoms: C_1  and  O_2
REMARK    2  A    between atoms: O_2  and  C_3
REMARK    3  A    between atoms: C_6  and  C_7
REMARK                            x       y       z     vdW  Elec       q    Type
REMARK                         _______ _______ _______ _____ _____    ______ ____
ROOT
ATOM      1  C   UNL     1       5.038   4.261  16.697  0.00  0.00    +0.000 A 
ATOM      2  C   UNL     1       5.116   3.574  15.536  0.00  0.00    +0.000 A 
ATOM      3  C   UNL     1       6.149   3.911  14.570  0.00  0.00    +0.000 A 
ATOM      4  C   UNL     1       7.038   4.895  14.802  0.00  0.00    +0.000 A 
ATOM      5  C   UNL     1       6.968   5.631  16.017  0.00  0.00    +0.000 A 
ATOM      6  N   UNL     1       7.699   6.621  16.478  0.00  0.00    +0.000 NA
ATOM      7  C   UNL     1       7.126   6.878  17.686  0.00  0.00    +0.000 A 
ATOM      8  N   UNL     1       6.084   6.117  18.016  0.00  0.00    +0.000 NA
ATOM      9  N   UNL     1       5.965   5.293  16.937  0.00  0.00    +0.000 N 
ENDROOT
BRANCH   1  13
ATOM     10  C   UNL     1       2.030   3.276  19.581  0.00  0.00    +0.000 A 
ATOM     11  C   UNL     1       1.701   3.987  18.426  0.00  0.00    +0.000 A 
ATOM     12  C   UNL     1       2.677   4.290  17.474  0.00  0.00    +0.000 A 
ATOM     13  C   UNL     1       4.005   3.901  17.680  0.00  0.00    +0.000 A 
ATOM     14  C   UNL     1       4.338   3.201  18.847  0.00  0.00    +0.000 A 
ATOM     15  C   UNL     1       3.354   2.889  19.794  0.00  0.00    +0.000 A 
BRANCH  10  17
ATOM     16  C   UNL     1       1.348   2.643  21.756  0.00  0.00    +0.000 C 
ATOM     17  O   UNL     1       0.990   3.056  20.442  0.00  0.00    +0.000 OA
ENDBRANCH  10  17
ENDBRANCH   1  13
TORSDOF 2
ENDMDL
MODEL 6
REMARK VINA RESULT:      -7.0      1.995      2.449
REMARK  Name = 
REMARK  3 active torsions:
REMARK  status: ('A' for Active; 'I' for Inactive)
REMARK    1  A    between atoms: C_1  and  O_2
REMARK    2  A    between atoms: O_2  and  C_3
REMARK    3  A    between atoms: C_6  and  C_7
REMARK                            x       y       z     vdW  Elec       q    Type
REMARK                         _______ _______ _______ _____ _____    ______ ____
ROOT
ATOM      1  C   UNL     1       4.098   4.141  19.113  0.00  0.00    +0.000 A 
ATOM      2  C   UNL     1       4.064   2.899  19.644  0.00  0.00    +0.000 A 
ATOM      3  C   UNL     1       3.111   2.595  20.699  0.00  0.00    +0.000 A 
ATOM      4  C   UNL     1       2.254   3.523  21.164  0.00  0.00    +0.000 A 
ATOM      5  C   UNL     1       2.279   4.836  20.620  0.00  0.00    +0.000 A 
ATOM      6  N   UNL     1       1.565   5.905  20.893  0.00  0.00    +0.000 NA
ATOM      7  C   UNL     1       2.071   6.830  20.032  0.00  0.00    +0.000 A 
ATOM      8  N   UNL     1       3.054   6.416  19.236  0.00  0.00    +0.000 NA
ATOM      9  N   UNL     1       3.205   5.113  19.604  0.00  0.00    +0.000 N 
ENDROOT
BRANCH   1  13
ATOM     10  C   UNL     1       6.874   4.943  15.952  0.00  0.00    +0.000 A 
ATOM     11  C   UNL     1       5.558   4.577  15.666  0.00  0.00    +0.000 A 
ATOM     12  C   UNL     1       4.646   4.336  16.696  0.00  0.00    +0.000 A 
ATOM     13  C   UNL     1       5.050   4.438  18.031  0.00  0.00    +0.000 A 
ATOM     14  C   UNL     1       6.375   4.790  18.318  0.00  0.00    +0.000 A 
ATOM     15  C   UNL     1       7.284   5.042  17.282  0.00  0.00    +0.000 A 
BRANCH  10  17
ATOM     16  C   UNL     1       7.105   4.777  13.604  0.00  0.00    +0.000 C 
ATOM     17  O   UNL     1       7.672   5.135  14.859  0.00  0.00    +0.000 OA
ENDBRANCH  10  17
ENDBRANCH   1  13
TORSDOF 2
ENDMDL
MODEL 7
REMARK VINA RESULT:      -7.0      1.093      2.510
REMARK  Name = 
REMARK  3 active torsions:
REMARK  status: ('A' for Active; 'I' for Inactive)
REMARK    1  A    between atoms: C_1  and  O_2
REMARK    2  A    between atoms: O_2  and  C_3
REMARK    3  A    between atoms: C_6  and  C_7
REMARK                            x       y       z     vdW  Elec       q    Type
REMARK                         _______ _______ _______ _____ _____    ______ ____
ROOT
ATOM      1  C   UNL     1       3.240   4.923  19.174  0.00  0.00    +0.000 A 
ATOM      2  C   UNL     1       2.554   5.560  20.148  0.00  0.00    +0.000 A 
ATOM      3  C   UNL     1       1.417   4.902  20.772  0.00  0.00    +0.000 A 
ATOM      4  C   UNL     1       1.027   3.667  20.405  0.00  0.00    +0.000 A 
ATOM      5  C   UNL     1       1.736   2.985  19.378  0.00  0.00    +0.000 A 
ATOM      6  N   UNL     1       1.562   1.798  18.843  0.00  0.00    +0.000 NA
ATOM      7  C   UNL     1       2.561   1.737  17.920  0.00  0.00    +0.000 A 
ATOM      8  N   UNL     1       3.351   2.805  17.839  0.00  0.00    +0.000 NA
ATOM      9  N   UNL     1       2.829   3.633  18.786  0.00  0.00    +0.000 N 
ENDROOT
BRANCH   1  13
ATOM     10  C   UNL     1       6.625   6.889  17.435  0.00  0.00    +0.000 A 
ATOM     11  C   UNL     1       6.778   6.061  18.548  0.00  0.00    +0.000 A 
ATOM     12  C   UNL     1       5.678   5.402  19.104  0.00  0.00    +0.000 A 
ATOM     13  C   UNL     1       4.403   5.584  18.560  0.00  0.00    +0.000 A 
ATOM     14  C   UNL     1       4.246   6.427  17.452  0.00  0.00    +0.000 A 
ATOM     15  C   UNL     1       5.354   7.077  16.891  0.00  0.00    +0.000 A 
BRANCH  10  17
ATOM     16  C   UNL     1       8.176   8.654  17.705  0.00  0.00    +0.000 C 
ATOM     17  O   UNL     1       7.773   7.488  16.996  0.00  0.00    +0.000 OA
ENDBRANCH  10  17
ENDBRANCH   1  13
TORSDOF 2
ENDMDL
MODEL 8
REMARK VINA RESULT:      -7.0      2.154      3.038
REMARK  Name = 
REMARK  3 active torsions:
REMARK  status: ('A' for Active; 'I' for Inactive)
REMARK    1  A    between atoms: C_1  and  O_2
REMARK    2  A    between atoms: O_2  and  C_3
REMARK    3  A    between atoms: C_6  and  C_7
REMARK                            x       y       z     vdW  Elec       q    Type
REMARK                         _______ _______ _______ _____ _____    ______ ____
ROOT
ATOM      1  C   UNL     1       3.067   4.210  18.895  0.00  0.00    +0.000 A 
ATOM      2  C   UNL     1       1.817   4.703  19.035  0.00  0.00    +0.000 A 
ATOM      3  C   UNL     1       0.989   4.255  20.143  0.00  0.00    +0.000 A 
ATOM      4  C   UNL     1       1.437   3.357  21.041  0.00  0.00    +0.000 A 
ATOM      5  C   UNL     1       2.749   2.825  20.906  0.00  0.00    +0.000 A 
ATOM      6  N   UNL     1       3.412   1.952  21.630  0.00  0.00    +0.000 NA
ATOM      7  C   UNL     1       4.606   1.871  20.980  0.00  0.00    +0.000 A 
ATOM      8  N   UNL     1       4.738   2.634  19.897  0.00  0.00    +0.000 NA
ATOM      9  N   UNL     1       3.533   3.267  19.831  0.00  0.00    +0.000 N 
ENDROOT
BRANCH   1  13
ATOM     10  C   UNL     1       5.568   5.556  15.690  0.00  0.00    +0.000 A 
ATOM     11  C   UNL     1       5.152   4.226  15.755  0.00  0.00    +0.000 A 
ATOM     12  C   UNL     1       4.318   3.790  16.788  0.00  0.00    +0.000 A 
ATOM     13  C   UNL     1       3.909   4.682  17.784  0.00  0.00    +0.000 A 
ATOM     14  C   UNL     1       4.339   6.014  17.727  0.00  0.00    +0.000 A 
ATOM     15  C   UNL     1       5.166   6.450  16.683  0.00  0.00    +0.000 A 
BRANCH  10  17
ATOM     16  C   UNL     1       6.936   4.740  13.942  0.00  0.00    +0.000 C 
ATOM     17  O   UNL     1       6.393   5.854  14.641  0.00  0.00    +0.000 OA
ENDBRANCH  10  17
ENDBRANCH   1  13
TORSDOF 2
ENDMDL
MODEL 9
REMARK VINA RESULT:      -6.9      1.120      2.234
REMARK  Name = 
REMARK  3 active torsions:
REMARK  status: ('A' for Active; 'I' for Inactive)
REMARK    1  A    between atoms: C_1  and  O_2
REMARK    2  A    between atoms: O_2  and  C_3
REMARK    3  A    between atoms: C_6  and  C_7
REMARK                            x       y       z     vdW  Elec       q    Type
REMARK                         _______ _______ _______ _____ _____    ______ ____
ROOT
ATOM      1  C   UNL     1       3.248   4.889  19.237  0.00  0.00    +0.000 A 
ATOM      2  C   UNL     1       2.529   5.480  20.216  0.00  0.00    +0.000 A 
ATOM      3  C   UNL     1       1.356   4.809  20.751  0.00  0.00    +0.000 A 
ATOM      4  C   UNL     1       0.963   3.604  20.296  0.00  0.00    +0.000 A 
ATOM      5  C   UNL     1       1.706   2.969  19.263  0.00  0.00    +0.000 A 
ATOM      6  N   UNL     1       1.539   1.817  18.653  0.00  0.00    +0.000 NA
ATOM      7  C   UNL     1       2.577   1.792  17.773  0.00  0.00    +0.000 A 
ATOM      8  N   UNL     1       3.386   2.848  17.788  0.00  0.00    +0.000 NA
ATOM      9  N   UNL     1       2.835   3.630  18.758  0.00  0.00    +0.000 N 
ENDROOT
BRANCH   1  13
ATOM     10  C   UNL     1       6.735   6.812  17.662  0.00  0.00    +0.000 A 
ATOM     11  C   UNL     1       5.468   7.113  17.158  0.00  0.00    +0.000 A 
ATOM     12  C   UNL     1       4.328   6.502  17.686  0.00  0.00    +0.000 A 
ATOM     13  C   UNL     1       4.447   5.562  18.714  0.00  0.00    +0.000 A 
ATOM     14  C   UNL     1       5.719   5.249  19.209  0.00  0.00    +0.000 A 
ATOM     15  C   UNL     1       6.859   5.872  18.685  0.00  0.00    +0.000 A 
BRANCH  10  17
ATOM     16  C   UNL     1       8.171   8.692  17.649  0.00  0.00    +0.000 C 
ATOM     17  O   UNL     1       7.771   7.463  17.052  0.00  0.00    +0.000 OA
ENDBRANCH  10  17
ENDBRANCH   1  13
TORSDOF 2
ENDMDL
