MODEL 1
REMARK VINA RESULT:      -7.3      0.000      0.000
REMARK  Name = 
REMARK  7 active torsions:
REMARK  status: ('A' for Active; 'I' for Inactive)
REMARK    1  A    between atoms: C_1  and  C_2
REMARK    2  A    between atoms: C_2  and  C_3
REMARK    3  A    between atoms: C_2  and  N_9
REMARK    4  A    between atoms: N_7  and  C_8
REMARK    5  A    between atoms: C_13  and  C_14
REMARK    6  A    between atoms: C_14  and  C_15
REMARK    7  A    between atoms: C_15  and  C_17
REMARK                            x       y       z     vdW  Elec       q    Type
REMARK                         _______ _______ _______ _____ _____    ______ ____
ROOT
ATOM      1  N   UNL     1       2.675   4.607  17.922  0.00  0.00    +0.000 NA
ATOM      2  C   UNL     1       1.551   3.697  18.197  0.00  0.00    +0.000 C 
ATOM      3  C   UNL     1       2.155   2.409  18.716  0.00  0.00    +0.000 C 
ATOM      4  C   UNL     1       3.462   2.308  17.966  0.00  0.00    +0.000 C 
ATOM      5  C   UNL     1       3.848   3.750  17.597  0.00  0.00    +0.000 C 
ENDROOT
BRANCH   1   7
ATOM      6  C   UNL     1       4.316   5.586  19.638  0.00  0.00    +0.000 C 
ATOM      7  C   UNL     1       2.910   5.587  19.014  0.00  0.00    +0.000 C 
BRANCH   7   8
ATOM      8  C   UNL     1       2.531   6.983  18.600  0.00  0.00    +0.000 A 
ATOM      9  N   UNL     1       2.764   7.567  17.439  0.00  0.00    +0.000 NA
ATOM     10  N   UNL     1       2.309   8.856  17.553  0.00  0.00    +0.000 NA
ATOM     11  N   UNL     1       1.798   9.073  18.755  0.00  0.00    +0.000 NA
ATOM     12  N   UNL     1       1.919   7.905  19.405  0.00  0.00    +0.000 N 
ATOM     13  C   UNL     1       1.464   7.787  20.761  0.00  0.00    +0.000 C 
ENDBRANCH   7   8
ENDBRANCH   1   7
BRANCH   5  14
ATOM     14  C   UNL     1       4.169   3.883  16.098  0.00  0.00    +0.000 C 
BRANCH  14  15
ATOM     15  C   UNL     1       5.658   4.058  15.845  0.00  0.00    +0.000 C 
ATOM     16  O   UNL     1       6.247   3.466  14.943  0.00  0.00    +0.000 OA
BRANCH  15  17
ATOM     17  C   UNL     1       6.433   4.998  16.710  0.00  0.00    +0.000 A 
ATOM     18  C   UNL     1       7.328   4.554  17.695  0.00  0.00    +0.000 A 
ATOM     19  C   UNL     1       8.028   5.485  18.470  0.00  0.00    +0.000 A 
ATOM     20  C   UNL     1       7.834   6.846  18.263  0.00  0.00    +0.000 A 
ATOM     21  F   UNL     1       8.512   7.729  19.008  0.00  0.00    +0.000 F 
ATOM     22  C   UNL     1       6.947   7.301  17.297  0.00  0.00    +0.000 A 
ATOM     23  C   UNL     1       6.245   6.377  16.521  0.00  0.00    +0.000 A 
ENDBRANCH  15  17
ENDBRANCH  14  15
ENDBRANCH   5  14
TORSDOF 5
ENDMDL
MODEL 2
REMARK VINA RESULT:      -7.1      3.875      6.711
REMARK  Name = 
REMARK  7 active torsions:
REMARK  status: ('A' for Active; 'I' for Inactive)
REMARK    1  A    between atoms: C_1  and  C_2
REMARK    2  A    between atoms: C_2  and  C_3
REMARK    3  A    between atoms: C_2  and  N_9
REMARK    4  A    between atoms: N_7  and  C_8
REMARK    5  A    between atoms: C_13  and  C_14
REMARK    6  A    between atoms: C_14  and  C_15
REMARK    7  A    between atoms: C_15  and  C_17
REMARK                            x       y       z     vdW  Elec       q    Type
REMARK                         _______ _______ _______ _____ _____    ______ ____
ROOT
ATOM      1  N   UNL     1       3.825   5.128  19.118  0.00  0.00    +0.000 NA
ATOM      2  C   UNL     1       3.724   3.726  19.553  0.00  0.00    +0.000 C 
ATOM      3  C   UNL     1       2.354   3.238  19.129  0.00  0.00    +0.000 C 
ATOM      4  C   UNL     1       1.489   4.470  19.261  0.00  0.00    +0.000 C 
ATOM      5  C   UNL     1       2.438   5.670  19.101  0.00  0.00    +0.000 C 
ENDROOT
BRANCH   1   7
ATOM      6  C   UNL     1       4.429   6.652  17.142  0.00  0.00    +0.000 C 
ATOM      7  C   UNL     1       4.566   5.289  17.841  0.00  0.00    +0.000 C 
BRANCH   7   8
ATOM      8  C   UNL     1       6.020   4.931  17.992  0.00  0.00    +0.000 A 
ATOM      9  N   UNL     1       6.766   5.046  19.075  0.00  0.00    +0.000 NA
ATOM     10  N   UNL     1       8.036   4.675  18.715  0.00  0.00    +0.000 NA
ATOM     11  N   UNL     1       8.084   4.329  17.438  0.00  0.00    +0.000 NA
ATOM     12  N   UNL     1       6.827   4.472  16.987  0.00  0.00    +0.000 N 
ATOM     13  C   UNL     1       6.518   4.184  15.615  0.00  0.00    +0.000 C 
ENDBRANCH   7   8
ENDBRANCH   1   7
BRANCH   5  14
ATOM     14  C   UNL     1       2.276   6.676  20.255  0.00  0.00    +0.000 C 
BRANCH  14  15
ATOM     15  C   UNL     1       1.767   8.024  19.770  0.00  0.00    +0.000 C 
ATOM     16  O   UNL     1       1.941   8.418  18.618  0.00  0.00    +0.000 OA
BRANCH  15  17
ATOM     17  C   UNL     1       1.012   8.897  20.718  0.00  0.00    +0.000 A 
ATOM     18  C   UNL     1       1.100   8.754  22.110  0.00  0.00    +0.000 A 
ATOM     19  C   UNL     1       0.371   9.606  22.946  0.00  0.00    +0.000 A 
ATOM     20  C   UNL     1      -0.440  10.591  22.394  0.00  0.00    +0.000 A 
ATOM     21  F   UNL     1      -1.133  11.405  23.203  0.00  0.00    +0.000 F 
ATOM     22  C   UNL     1      -0.544  10.742  21.017  0.00  0.00    +0.000 A 
ATOM     23  C   UNL     1       0.181   9.893  20.179  0.00  0.00    +0.000 A 
ENDBRANCH  15  17
ENDBRANCH  14  15
ENDBRANCH   5  14
TORSDOF 5
ENDMDL
MODEL 3
REMARK VINA RESULT:      -7.1      3.432      5.685
REMARK  Name = 
REMARK  7 active torsions:
REMARK  status: ('A' for Active; 'I' for Inactive)
REMARK    1  A    between atoms: C_1  and  C_2
REMARK    2  A    between atoms: C_2  and  C_3
REMARK    3  A    between atoms: C_2  and  N_9
REMARK    4  A    between atoms: N_7  and  C_8
REMARK    5  A    between atoms: C_13  and  C_14
REMARK    6  A    between atoms: C_14  and  C_15
REMARK    7  A    between atoms: C_15  and  C_17
REMARK                            x       y       z     vdW  Elec       q    Type
REMARK                         _______ _______ _______ _____ _____    ______ ____
ROOT
ATOM      1  N   UNL     1       4.709   4.648  18.473  0.00  0.00    +0.000 NA
ATOM      2  C   UNL     1       4.698   3.327  19.122  0.00  0.00    +0.000 C 
ATOM      3  C   UNL     1       3.553   2.551  18.505  0.00  0.00    +0.000 C 
ATOM      4  C   UNL     1       2.522   3.618  18.220  0.00  0.00    +0.000 C 
ATOM      5  C   UNL     1       3.307   4.930  18.056  0.00  0.00    +0.000 C 
ENDROOT
BRANCH   1   7
ATOM      6  C   UNL     1       5.170   4.608  15.947  0.00  0.00    +0.000 C 
ATOM      7  C   UNL     1       5.710   4.751  17.381  0.00  0.00    +0.000 C 
BRANCH   7   8
ATOM      8  C   UNL     1       6.534   6.004  17.498  0.00  0.00    +0.000 A 
ATOM      9  N   UNL     1       6.579   7.018  16.652  0.00  0.00    +0.000 NA
ATOM     10  N   UNL     1       7.524   7.887  17.135  0.00  0.00    +0.000 NA
ATOM     11  N   UNL     1       8.055   7.433  18.259  0.00  0.00    +0.000 NA
ATOM     12  N   UNL     1       7.430   6.269  18.498  0.00  0.00    +0.000 N 
ATOM     13  C   UNL     1       7.776   5.492  19.655  0.00  0.00    +0.000 C 
ENDBRANCH   7   8
ENDBRANCH   1   7
BRANCH   5  14
ATOM     14  C   UNL     1       2.733   6.047  18.945  0.00  0.00    +0.000 C 
BRANCH  14  15
ATOM     15  C   UNL     1       2.729   7.394  18.240  0.00  0.00    +0.000 C 
ATOM     16  O   UNL     1       3.375   7.601  17.214  0.00  0.00    +0.000 OA
BRANCH  15  17
ATOM     17  C   UNL     1       1.897   8.502  18.798  0.00  0.00    +0.000 A 
ATOM     18  C   UNL     1       1.503   9.610  18.033  0.00  0.00    +0.000 A 
ATOM     19  C   UNL     1       0.719  10.613  18.613  0.00  0.00    +0.000 A 
ATOM     20  C   UNL     1       0.335  10.510  19.945  0.00  0.00    +0.000 A 
ATOM     21  F   UNL     1      -0.418  11.475  20.490  0.00  0.00    +0.000 F 
ATOM     22  C   UNL     1       0.722   9.423  20.718  0.00  0.00    +0.000 A 
ATOM     23  C   UNL     1       1.505   8.419  20.144  0.00  0.00    +0.000 A 
ENDBRANCH  15  17
ENDBRANCH  14  15
ENDBRANCH   5  14
TORSDOF 5
ENDMDL
MODEL 4
REMARK VINA RESULT:      -7.1      3.461      5.871
REMARK  Name = 
REMARK  7 active torsions:
REMARK  status: ('A' for Active; 'I' for Inactive)
REMARK    1  A    between atoms: C_1  and  C_2
REMARK    2  A    between atoms: C_2  and  C_3
REMARK    3  A    between atoms: C_2  and  N_9
REMARK    4  A    between atoms: N_7  and  C_8
REMARK    5  A    between atoms: C_13  and  C_14
REMARK    6  A    between atoms: C_14  and  C_15
REMARK    7  A    between atoms: C_15  and  C_17
REMARK                            x       y       z     vdW  Elec       q    Type
REMARK                         _______ _______ _______ _____ _____    ______ ____
ROOT
ATOM      1  N   UNL     1       4.611   4.603  18.300  0.00  0.00    +0.000 NA
ATOM      2  C   UNL     1       4.167   3.222  18.547  0.00  0.00    +0.000 C 
ATOM      3  C   UNL     1       2.909   3.018  17.728  0.00  0.00    +0.000 C 
ATOM      4  C   UNL     1       2.254   4.378  17.749  0.00  0.00    +0.000 C 
ATOM      5  C   UNL     1       3.390   5.390  17.971  0.00  0.00    +0.000 C 
ENDROOT
BRANCH   1   7
ATOM      6  C   UNL     1       5.281   4.466  15.825  0.00  0.00    +0.000 C 
ATOM      7  C   UNL     1       5.695   4.693  17.289  0.00  0.00    +0.000 C 
BRANCH   7   8
ATOM      8  C   UNL     1       6.466   5.979  17.413  0.00  0.00    +0.000 A 
ATOM      9  N   UNL     1       6.426   7.021  16.602  0.00  0.00    +0.000 NA
ATOM     10  N   UNL     1       7.351   7.917  17.072  0.00  0.00    +0.000 NA
ATOM     11  N   UNL     1       7.952   7.452  18.156  0.00  0.00    +0.000 NA
ATOM     12  N   UNL     1       7.393   6.253  18.381  0.00  0.00    +0.000 N 
ATOM     13  C   UNL     1       7.826   5.456  19.494  0.00  0.00    +0.000 C 
ENDBRANCH   7   8
ENDBRANCH   1   7
BRANCH   5  14
ATOM     14  C   UNL     1       3.077   6.346  19.136  0.00  0.00    +0.000 C 
BRANCH  14  15
ATOM     15  C   UNL     1       2.530   7.679  18.650  0.00  0.00    +0.000 C 
ATOM     16  O   UNL     1       2.808   8.141  17.545  0.00  0.00    +0.000 OA
BRANCH  15  17
ATOM     17  C   UNL     1       1.607   8.449  19.537  0.00  0.00    +0.000 A 
ATOM     18  C   UNL     1       1.292   8.037  20.840  0.00  0.00    +0.000 A 
ATOM     19  C   UNL     1       0.424   8.805  21.623  0.00  0.00    +0.000 A 
ATOM     20  C   UNL     1      -0.125   9.974  21.107  0.00  0.00    +0.000 A 
ATOM     21  F   UNL     1      -0.953  10.704  21.866  0.00  0.00    +0.000 F 
ATOM     22  C   UNL     1       0.172  10.392  19.817  0.00  0.00    +0.000 A 
ATOM     23  C   UNL     1       1.037   9.629  19.031  0.00  0.00    +0.000 A 
ENDBRANCH  15  17
ENDBRANCH  14  15
ENDBRANCH   5  14
TORSDOF 5
ENDMDL
MODEL 5
REMARK VINA RESULT:      -7.0      3.192      4.879
REMARK  Name = 
REMARK  7 active torsions:
REMARK  status: ('A' for Active; 'I' for Inactive)
REMARK    1  A    between atoms: C_1  and  C_2
REMARK    2  A    between atoms: C_2  and  C_3
REMARK    3  A    between atoms: C_2  and  N_9
REMARK    4  A    between atoms: N_7  and  C_8
REMARK    5  A    between atoms: C_13  and  C_14
REMARK    6  A    between atoms: C_14  and  C_15
REMARK    7  A    between atoms: C_15  and  C_17
REMARK                            x       y       z     vdW  Elec       q    Type
REMARK                         _______ _______ _______ _____ _____    ______ ____
ROOT
ATOM      1  N   UNL     1       3.684   4.923  18.665  0.00  0.00    +0.000 NA
ATOM      2  C   UNL     1       3.412   6.253  19.233  0.00  0.00    +0.000 C 
ATOM      3  C   UNL     1       3.168   7.182  18.062  0.00  0.00    +0.000 C 
ATOM      4  C   UNL     1       4.080   6.638  16.988  0.00  0.00    +0.000 C 
ATOM      5  C   UNL     1       4.275   5.148  17.316  0.00  0.00    +0.000 C 
ENDROOT
BRANCH   1   7
ATOM      6  C   UNL     1       2.441   2.956  17.579  0.00  0.00    +0.000 C 
ATOM      7  C   UNL     1       2.496   4.032  18.677  0.00  0.00    +0.000 C 
BRANCH   7   8
ATOM      8  C   UNL     1       2.288   3.401  20.027  0.00  0.00    +0.000 A 
ATOM      9  N   UNL     1       1.238   3.525  20.819  0.00  0.00    +0.000 NA
ATOM     10  N   UNL     1       1.532   2.838  21.968  0.00  0.00    +0.000 NA
ATOM     11  N   UNL     1       2.735   2.289  21.897  0.00  0.00    +0.000 NA
ATOM     12  N   UNL     1       3.203   2.624  20.684  0.00  0.00    +0.000 N 
ATOM     13  C   UNL     1       4.509   2.193  20.273  0.00  0.00    +0.000 C 
ENDBRANCH   7   8
ENDBRANCH   1   7
BRANCH   5  14
ATOM     14  C   UNL     1       5.766   4.767  17.350  0.00  0.00    +0.000 C 
BRANCH  14  15
ATOM     15  C   UNL     1       6.580   5.555  16.335  0.00  0.00    +0.000 C 
ATOM     16  O   UNL     1       7.151   6.605  16.621  0.00  0.00    +0.000 OA
BRANCH  15  17
ATOM     17  C   UNL     1       6.708   5.027  14.943  0.00  0.00    +0.000 A 
ATOM     18  C   UNL     1       7.677   5.495  14.044  0.00  0.00    +0.000 A 
ATOM     19  C   UNL     1       7.750   4.956  12.755  0.00  0.00    +0.000 A 
ATOM     20  C   UNL     1       6.860   3.959  12.370  0.00  0.00    +0.000 A 
ATOM     21  F   UNL     1       6.939   3.448  11.134  0.00  0.00    +0.000 F 
ATOM     22  C   UNL     1       5.891   3.490  13.245  0.00  0.00    +0.000 A 
ATOM     23  C   UNL     1       5.814   4.024  14.533  0.00  0.00    +0.000 A 
ENDBRANCH  15  17
ENDBRANCH  14  15
ENDBRANCH   5  14
TORSDOF 5
ENDMDL
MODEL 6
REMARK VINA RESULT:      -6.9      3.642      6.279
REMARK  Name = 
REMARK  7 active torsions:
REMARK  status: ('A' for Active; 'I' for Inactive)
REMARK    1  A    between atoms: C_1  and  C_2
REMARK    2  A    between atoms: C_2  and  C_3
REMARK    3  A    between atoms: C_2  and  N_9
REMARK    4  A    between atoms: N_7  and  C_8
REMARK    5  A    between atoms: C_13  and  C_14
REMARK    6  A    between atoms: C_14  and  C_15
REMARK    7  A    between atoms: C_15  and  C_17
REMARK                            x       y       z     vdW  Elec       q    Type
REMARK                         _______ _______ _______ _____ _____    ______ ____
ROOT
ATOM      1  N   UNL     1       3.500   4.063  19.635  0.00  0.00    +0.000 NA
ATOM      2  C   UNL     1       3.213   2.735  20.200  0.00  0.00    +0.000 C 
ATOM      3  C   UNL     1       1.821   2.359  19.737  0.00  0.00    +0.000 C 
ATOM      4  C   UNL     1       1.099   3.684  19.687  0.00  0.00    +0.000 C 
ATOM      5  C   UNL     1       2.188   4.749  19.472  0.00  0.00    +0.000 C 
ENDROOT
BRANCH   1   7
ATOM      6  C   UNL     1       3.733   4.688  17.155  0.00  0.00    +0.000 C 
ATOM      7  C   UNL     1       4.323   4.005  18.400  0.00  0.00    +0.000 C 
BRANCH   7   8
ATOM      8  C   UNL     1       5.724   4.497  18.642  0.00  0.00    +0.000 A 
ATOM      9  N   UNL     1       6.207   5.036  19.748  0.00  0.00    +0.000 NA
ATOM     10  N   UNL     1       7.500   5.399  19.472  0.00  0.00    +0.000 NA
ATOM     11  N   UNL     1       7.823   5.091  18.225  0.00  0.00    +0.000 NA
ATOM     12  N   UNL     1       6.726   4.515  17.710  0.00  0.00    +0.000 N 
ATOM     13  C   UNL     1       6.726   4.060  16.348  0.00  0.00    +0.000 C 
ENDBRANCH   7   8
ENDBRANCH   1   7
BRANCH   5  14
ATOM     14  C   UNL     1       2.081   5.884  20.506  0.00  0.00    +0.000 C 
BRANCH  14  15
ATOM     15  C   UNL     1       2.085   7.256  19.850  0.00  0.00    +0.000 C 
ATOM     16  O   UNL     1       2.651   7.473  18.781  0.00  0.00    +0.000 OA
BRANCH  15  17
ATOM     17  C   UNL     1       1.359   8.379  20.517  0.00  0.00    +0.000 A 
ATOM     18  C   UNL     1       1.092   8.395  21.893  0.00  0.00    +0.000 A 
ATOM     19  C   UNL     1       0.412   9.479  22.459  0.00  0.00    +0.000 A 
ATOM     20  C   UNL     1       0.002  10.536  21.654  0.00  0.00    +0.000 A 
ATOM     21  F   UNL     1      -0.646  11.571  22.206  0.00  0.00    +0.000 F 
ATOM     22  C   UNL     1       0.253  10.533  20.289  0.00  0.00    +0.000 A 
ATOM     23  C   UNL     1       0.931   9.453  19.719  0.00  0.00    +0.000 A 
ENDBRANCH  15  17
ENDBRANCH  14  15
ENDBRANCH   5  14
TORSDOF 5
ENDMDL
MODEL 7
REMARK VINA RESULT:      -6.9      3.521      5.710
REMARK  Name = 
REMARK  7 active torsions:
REMARK  status: ('A' for Active; 'I' for Inactive)
REMARK    1  A    between atoms: C_1  and  C_2
REMARK    2  A    between atoms: C_2  and  C_3
REMARK    3  A    between atoms: C_2  and  N_9
REMARK    4  A    between atoms: N_7  and  C_8
REMARK    5  A    between atoms: C_13  and  C_14
REMARK    6  A    between atoms: C_14  and  C_15
REMARK    7  A    between atoms: C_15  and  C_17
REMARK                            x       y       z     vdW  Elec       q    Type
REMARK                         _______ _______ _______ _____ _____    ______ ____
ROOT
ATOM      1  N   UNL     1       3.382   3.686  19.999  0.00  0.00    +0.000 NA
ATOM      2  C   UNL     1       2.784   2.811  21.020  0.00  0.00    +0.000 C 
ATOM      3  C   UNL     1       1.309   2.707  20.690  0.00  0.00    +0.000 C 
ATOM      4  C   UNL     1       0.983   4.063  20.112  0.00  0.00    +0.000 C 
ATOM      5  C   UNL     1       2.304   4.606  19.542  0.00  0.00    +0.000 C 
ENDROOT
BRANCH   1   7
ATOM      6  C   UNL     1       3.231   1.816  18.247  0.00  0.00    +0.000 C 
ATOM      7  C   UNL     1       4.054   2.933  18.910  0.00  0.00    +0.000 C 
BRANCH   7   8
ATOM      8  C   UNL     1       4.613   3.854  17.859  0.00  0.00    +0.000 A 
ATOM      9  N   UNL     1       4.310   3.883  16.574  0.00  0.00    +0.000 NA
ATOM     10  N   UNL     1       5.124   4.828  16.003  0.00  0.00    +0.000 NA
ATOM     11  N   UNL     1       5.913   5.383  16.909  0.00  0.00    +0.000 NA
ATOM     12  N   UNL     1       5.588   4.791  18.069  0.00  0.00    +0.000 N 
ATOM     13  C   UNL     1       6.269   5.156  19.279  0.00  0.00    +0.000 C 
ENDBRANCH   7   8
ENDBRANCH   1   7
BRANCH   5  14
ATOM     14  C   UNL     1       2.601   6.026  20.057  0.00  0.00    +0.000 C 
BRANCH  14  15
ATOM     15  C   UNL     1       2.478   7.070  18.959  0.00  0.00    +0.000 C 
ATOM     16  O   UNL     1       2.970   6.913  17.843  0.00  0.00    +0.000 OA
BRANCH  15  17
ATOM     17  C   UNL     1       1.716   8.325  19.235  0.00  0.00    +0.000 A 
ATOM     18  C   UNL     1       1.427   9.268  18.238  0.00  0.00    +0.000 A 
ATOM     19  C   UNL     1       0.705  10.422  18.559  0.00  0.00    +0.000 A 
ATOM     20  C   UNL     1       0.276  10.631  19.865  0.00  0.00    +0.000 A 
ATOM     21  F   UNL     1      -0.418  11.738  20.162  0.00  0.00    +0.000 F 
ATOM     22  C   UNL     1       0.559   9.710  20.865  0.00  0.00    +0.000 A 
ATOM     23  C   UNL     1       1.281   8.557  20.550  0.00  0.00    +0.000 A 
ENDBRANCH  15  17
ENDBRANCH  14  15
ENDBRANCH   5  14
TORSDOF 5
ENDMDL
MODEL 8
REMARK VINA RESULT:      -6.9      2.794      4.650
REMARK  Name = 
REMARK  7 active torsions:
REMARK  status: ('A' for Active; 'I' for Inactive)
REMARK    1  A    between atoms: C_1  and  C_2
REMARK    2  A    between atoms: C_2  and  C_3
REMARK    3  A    between atoms: C_2  and  N_9
REMARK    4  A    between atoms: N_7  and  C_8
REMARK    5  A    between atoms: C_13  and  C_14
REMARK    6  A    between atoms: C_14  and  C_15
REMARK    7  A    between atoms: C_15  and  C_17
REMARK                            x       y       z     vdW  Elec       q    Type
REMARK                         _______ _______ _______ _____ _____    ______ ____
ROOT
ATOM      1  N   UNL     1       3.074   6.054  19.153  0.00  0.00    +0.000 NA
ATOM      2  C   UNL     1       2.382   7.289  19.555  0.00  0.00    +0.000 C 
ATOM      3  C   UNL     1       2.112   8.067  18.284  0.00  0.00    +0.000 C 
ATOM      4  C   UNL     1       3.299   7.736  17.412  0.00  0.00    +0.000 C 
ATOM      5  C   UNL     1       3.807   6.367  17.895  0.00  0.00    +0.000 C 
ENDROOT
BRANCH   1   7
ATOM      6  C   UNL     1       2.207   4.089  17.746  0.00  0.00    +0.000 C 
ATOM      7  C   UNL     1       2.166   4.882  19.063  0.00  0.00    +0.000 C 
BRANCH   7   8
ATOM      8  C   UNL     1       2.345   3.949  20.231  0.00  0.00    +0.000 A 
ATOM      9  N   UNL     1       1.795   4.046  21.428  0.00  0.00    +0.000 NA
ATOM     10  N   UNL     1       2.310   3.020  22.177  0.00  0.00    +0.000 NA
ATOM     11  N   UNL     1       3.158   2.293  21.467  0.00  0.00    +0.000 NA
ATOM     12  N   UNL     1       3.171   2.859  20.249  0.00  0.00    +0.000 N 
ATOM     13  C   UNL     1       4.007   2.317  19.215  0.00  0.00    +0.000 C 
ENDBRANCH   7   8
ENDBRANCH   1   7
BRANCH   5  14
ATOM     14  C   UNL     1       5.318   6.395  18.186  0.00  0.00    +0.000 C 
BRANCH  14  15
ATOM     15  C   UNL     1       6.001   5.096  17.790  0.00  0.00    +0.000 C 
ATOM     16  O   UNL     1       6.447   4.307  18.621  0.00  0.00    +0.000 OA
BRANCH  15  17
ATOM     17  C   UNL     1       6.120   4.752  16.341  0.00  0.00    +0.000 A 
ATOM     18  C   UNL     1       5.185   3.945  15.677  0.00  0.00    +0.000 A 
ATOM     19  C   UNL     1       5.349   3.663  14.317  0.00  0.00    +0.000 A 
ATOM     20  C   UNL     1       6.439   4.183  13.628  0.00  0.00    +0.000 A 
ATOM     21  F   UNL     1       6.587   3.909  12.325  0.00  0.00    +0.000 F 
ATOM     22  C   UNL     1       7.378   4.978  14.272  0.00  0.00    +0.000 A 
ATOM     23  C   UNL     1       7.219   5.261  15.630  0.00  0.00    +0.000 A 
ENDBRANCH  15  17
ENDBRANCH  14  15
ENDBRANCH   5  14
TORSDOF 5
ENDMDL
MODEL 9
REMARK VINA RESULT:      -6.9      3.359      5.517
REMARK  Name = 
REMARK  7 active torsions:
REMARK  status: ('A' for Active; 'I' for Inactive)
REMARK    1  A    between atoms: C_1  and  C_2
REMARK    2  A    between atoms: C_2  and  C_3
REMARK    3  A    between atoms: C_2  and  N_9
REMARK    4  A    between atoms: N_7  and  C_8
REMARK    5  A    between atoms: C_13  and  C_14
REMARK    6  A    between atoms: C_14  and  C_15
REMARK    7  A    between atoms: C_15  and  C_17
REMARK                            x       y       z     vdW  Elec       q    Type
REMARK                         _______ _______ _______ _____ _____    ______ ____
ROOT
ATOM      1  N   UNL     1       4.795   4.244  18.051  0.00  0.00    +0.000 NA
ATOM      2  C   UNL     1       4.084   2.967  17.874  0.00  0.00    +0.000 C 
ATOM      3  C   UNL     1       2.775   3.292  17.184  0.00  0.00    +0.000 C 
ATOM      4  C   UNL     1       2.419   4.654  17.734  0.00  0.00    +0.000 C 
ATOM      5  C   UNL     1       3.751   5.302  18.146  0.00  0.00    +0.000 C 
ENDROOT
BRANCH   1   7
ATOM      6  C   UNL     1       5.367   4.330  15.549  0.00  0.00    +0.000 C 
ATOM      7  C   UNL     1       5.826   4.485  17.009  0.00  0.00    +0.000 C 
BRANCH   7   8
ATOM      8  C   UNL     1       6.506   5.813  17.197  0.00  0.00    +0.000 A 
ATOM      9  N   UNL     1       6.479   6.852  16.382  0.00  0.00    +0.000 NA
ATOM     10  N   UNL     1       7.305   7.799  16.930  0.00  0.00    +0.000 NA
ATOM     11  N   UNL     1       7.832   7.369  18.065  0.00  0.00    +0.000 NA
ATOM     12  N   UNL     1       7.326   6.139  18.244  0.00  0.00    +0.000 N 
ATOM     13  C   UNL     1       7.701   5.367  19.395  0.00  0.00    +0.000 C 
ENDBRANCH   7   8
ENDBRANCH   1   7
BRANCH   5  14
ATOM     14  C   UNL     1       3.700   5.830  19.591  0.00  0.00    +0.000 C 
BRANCH  14  15
ATOM     15  C   UNL     1       2.311   6.318  19.972  0.00  0.00    +0.000 C 
ATOM     16  O   UNL     1       1.511   5.615  20.584  0.00  0.00    +0.000 OA
BRANCH  15  17
ATOM     17  C   UNL     1       1.907   7.710  19.607  0.00  0.00    +0.000 A 
ATOM     18  C   UNL     1       1.241   8.562  20.499  0.00  0.00    +0.000 A 
ATOM     19  C   UNL     1       0.894   9.857  20.099  0.00  0.00    +0.000 A 
ATOM     20  C   UNL     1       1.209  10.294  18.817  0.00  0.00    +0.000 A 
ATOM     21  F   UNL     1       0.875  11.536  18.444  0.00  0.00    +0.000 F 
ATOM     22  C   UNL     1       1.862   9.460  17.919  0.00  0.00    +0.000 A 
ATOM     23  C   UNL     1       2.211   8.167  18.314  0.00  0.00    +0.000 A 
ENDBRANCH  15  17
ENDBRANCH  14  15
ENDBRANCH   5  14
TORSDOF 5
ENDMDL
