MODEL 1
REMARK VINA RESULT:      -6.6      0.000      0.000
REMARK  Name = 
REMARK  6 active torsions:
REMARK  status: ('A' for Active; 'I' for Inactive)
REMARK    1  A    between atoms: C_1  and  S_2
REMARK    2  A    between atoms: S_2  and  C_3
REMARK    3  A    between atoms: C_6  and  C_7
REMARK    4  A    between atoms: C_8  and  C_9
REMARK    5  A    between atoms: C_10  and  N_11
REMARK    6  A    between atoms: N_11  and  C_12
REMARK                            x       y       z     vdW  Elec       q    Type
REMARK                         _______ _______ _______ _____ _____    ______ ____
ROOT
ATOM      1  C   UNL     1       7.763   6.661  18.350  0.00  0.00    +0.000 C 
ATOM      2  C   UNL     1       8.130   7.935  18.157  0.00  0.00    +0.000 C 
ENDROOT
BRANCH   1   8
ATOM      3  C   UNL     1       6.650   5.048  15.301  0.00  0.00    +0.000 A 
ATOM      4  N   UNL     1       5.490   4.450  15.643  0.00  0.00    +0.000 NA
ATOM      5  N   UNL     1       5.030   4.557  16.913  0.00  0.00    +0.000 NA
ATOM      6  C   UNL     1       5.750   5.263  17.810  0.00  0.00    +0.000 A 
ATOM      7  C   UNL     1       5.191   5.334  19.194  0.00  0.00    +0.000 C 
ATOM      8  C   UNL     1       6.938   5.870  17.417  0.00  0.00    +0.000 A 
ATOM      9  N   UNL     1       7.402   5.765  16.151  0.00  0.00    +0.000 NA
BRANCH   3  11
ATOM     10  C   UNL     1       6.123   3.613  13.014  0.00  0.00    +0.000 C 
ATOM     11  S   UNL     1       7.253   4.885  13.636  0.00  0.00    +0.000 S 
ENDBRANCH   3  11
ENDBRANCH   1   8
BRANCH   2  12
ATOM     12  N   UNL     1       8.864   8.697  19.031  0.00  0.00    +0.000 N 
ATOM     13  H   UNL     1       9.363   8.199  19.760  0.00  0.00    +0.000 HD
BRANCH  12  14
ATOM     14  C   UNL     1       9.071  10.085  19.009  0.00  0.00    +0.000 A 
ATOM     15  C   UNL     1       9.407  10.735  20.207  0.00  0.00    +0.000 A 
ATOM     16  C   UNL     1       9.574  12.122  20.256  0.00  0.00    +0.000 A 
ATOM     17  C   UNL     1       9.403  12.876  19.100  0.00  0.00    +0.000 A 
ATOM     18 CL   UNL     1       9.624  14.581  19.149  0.00  0.00    +0.000 Cl
ATOM     19  C   UNL     1       9.051  12.258  17.904  0.00  0.00    +0.000 A 
ATOM     20  C   UNL     1       8.871  10.871  17.866  0.00  0.00    +0.000 A 
ENDBRANCH  12  14
ENDBRANCH   2  12
TORSDOF 4
ENDMDL
MODEL 2
REMARK VINA RESULT:      -6.5      5.026      7.395
REMARK  Name = 
REMARK  6 active torsions:
REMARK  status: ('A' for Active; 'I' for Inactive)
REMARK    1  A    between atoms: C_1  and  S_2
REMARK    2  A    between atoms: S_2  and  C_3
REMARK    3  A    between atoms: C_6  and  C_7
REMARK    4  A    between atoms: C_8  and  C_9
REMARK    5  A    between atoms: C_10  and  N_11
REMARK    6  A    between atoms: N_11  and  C_12
REMARK                            x       y       z     vdW  Elec       q    Type
REMARK                         _______ _______ _______ _____ _____    ______ ____
ROOT
ATOM      1  C   UNL     1       4.428   5.114  16.932  0.00  0.00    +0.000 C 
ATOM      2  C   UNL     1       3.622   6.159  17.164  0.00  0.00    +0.000 C 
ENDROOT
BRANCH   1   8
ATOM      3  C   UNL     1       6.517   4.414  14.054  0.00  0.00    +0.000 A 
ATOM      4  N   UNL     1       7.659   5.092  14.296  0.00  0.00    +0.000 NA
ATOM      5  N   UNL     1       7.777   5.818  15.434  0.00  0.00    +0.000 NA
ATOM      6  C   UNL     1       6.745   5.847  16.301  0.00  0.00    +0.000 A 
ATOM      7  C   UNL     1       6.939   6.672  17.531  0.00  0.00    +0.000 C 
ATOM      8  C   UNL     1       5.586   5.129  16.018  0.00  0.00    +0.000 A 
ATOM      9  N   UNL     1       5.462   4.404  14.884  0.00  0.00    +0.000 NA
BRANCH   3  11
ATOM     10  C   UNL     1       4.571   3.564  12.304  0.00  0.00    +0.000 C 
ATOM     11  S   UNL     1       6.365   3.480  12.549  0.00  0.00    +0.000 S 
ENDBRANCH   3  11
ENDBRANCH   1   8
BRANCH   2  12
ATOM     12  N   UNL     1       2.519   6.152  17.980  0.00  0.00    +0.000 N 
ATOM     13  H   UNL     1       1.847   6.899  17.841  0.00  0.00    +0.000 HD
BRANCH  12  14
ATOM     14  C   UNL     1       2.160   5.201  18.948  0.00  0.00    +0.000 A 
ATOM     15  C   UNL     1       2.604   5.382  20.267  0.00  0.00    +0.000 A 
ATOM     16  C   UNL     1       2.322   4.440  21.261  0.00  0.00    +0.000 A 
ATOM     17  C   UNL     1       1.590   3.301  20.942  0.00  0.00    +0.000 A 
ATOM     18 CL   UNL     1       1.224   2.148  22.164  0.00  0.00    +0.000 Cl
ATOM     19  C   UNL     1       1.155   3.090  19.637  0.00  0.00    +0.000 A 
ATOM     20  C   UNL     1       1.454   4.029  18.644  0.00  0.00    +0.000 A 
ENDBRANCH  12  14
ENDBRANCH   2  12
TORSDOF 4
ENDMDL
MODEL 3
REMARK VINA RESULT:      -6.5      4.082      5.906
REMARK  Name = 
REMARK  6 active torsions:
REMARK  status: ('A' for Active; 'I' for Inactive)
REMARK    1  A    between atoms: C_1  and  S_2
REMARK    2  A    between atoms: S_2  and  C_3
REMARK    3  A    between atoms: C_6  and  C_7
REMARK    4  A    between atoms: C_8  and  C_9
REMARK    5  A    between atoms: C_10  and  N_11
REMARK    6  A    between atoms: N_11  and  C_12
REMARK                            x       y       z     vdW  Elec       q    Type
REMARK                         _______ _______ _______ _____ _____    ______ ____
ROOT
ATOM      1  C   UNL     1       4.690   5.568  17.770  0.00  0.00    +0.000 C 
ATOM      2  C   UNL     1       3.702   6.469  17.848  0.00  0.00    +0.000 C 
ENDROOT
BRANCH   1   8
ATOM      3  C   UNL     1       6.049   4.567  14.563  0.00  0.00    +0.000 A 
ATOM      4  N   UNL     1       7.273   5.135  14.526  0.00  0.00    +0.000 NA
ATOM      5  N   UNL     1       7.695   5.884  15.573  0.00  0.00    +0.000 NA
ATOM      6  C   UNL     1       6.876   6.044  16.633  0.00  0.00    +0.000 A 
ATOM      7  C   UNL     1       7.400   6.887  17.750  0.00  0.00    +0.000 C 
ATOM      8  C   UNL     1       5.625   5.436  16.636  0.00  0.00    +0.000 A 
ATOM      9  N   UNL     1       5.198   4.689  15.593  0.00  0.00    +0.000 NA
BRANCH   3  11
ATOM     10  C   UNL     1       6.923   3.793  12.072  0.00  0.00    +0.000 C 
ATOM     11  S   UNL     1       5.499   3.602  13.175  0.00  0.00    +0.000 S 
ENDBRANCH   3  11
ENDBRANCH   1   8
BRANCH   2  12
ATOM     12  N   UNL     1       2.800   6.581  18.876  0.00  0.00    +0.000 N 
ATOM     13  H   UNL     1       2.682   5.765  19.467  0.00  0.00    +0.000 HD
BRANCH  12  14
ATOM     14  C   UNL     1       2.060   7.709  19.263  0.00  0.00    +0.000 A 
ATOM     15  C   UNL     1       1.878   8.746  18.334  0.00  0.00    +0.000 A 
ATOM     16  C   UNL     1       1.195   9.915  18.680  0.00  0.00    +0.000 A 
ATOM     17  C   UNL     1       0.687  10.060  19.967  0.00  0.00    +0.000 A 
ATOM     18 CL   UNL     1      -0.171  11.489  20.394  0.00  0.00    +0.000 Cl
ATOM     19  C   UNL     1       0.871   9.054  20.911  0.00  0.00    +0.000 A 
ATOM     20  C   UNL     1       1.568   7.893  20.562  0.00  0.00    +0.000 A 
ENDBRANCH  12  14
ENDBRANCH   2  12
TORSDOF 4
ENDMDL
MODEL 4
REMARK VINA RESULT:      -6.5      4.939      7.552
REMARK  Name = 
REMARK  6 active torsions:
REMARK  status: ('A' for Active; 'I' for Inactive)
REMARK    1  A    between atoms: C_1  and  S_2
REMARK    2  A    between atoms: S_2  and  C_3
REMARK    3  A    between atoms: C_6  and  C_7
REMARK    4  A    between atoms: C_8  and  C_9
REMARK    5  A    between atoms: C_10  and  N_11
REMARK    6  A    between atoms: N_11  and  C_12
REMARK                            x       y       z     vdW  Elec       q    Type
REMARK                         _______ _______ _______ _____ _____    ______ ____
ROOT
ATOM      1  C   UNL     1       4.596   5.328  17.469  0.00  0.00    +0.000 C 
ATOM      2  C   UNL     1       3.461   6.036  17.396  0.00  0.00    +0.000 C 
ENDROOT
BRANCH   1   8
ATOM      3  C   UNL     1       6.286   4.486  14.376  0.00  0.00    +0.000 A 
ATOM      4  N   UNL     1       7.469   5.131  14.454  0.00  0.00    +0.000 NA
ATOM      5  N   UNL     1       7.751   5.882  15.547  0.00  0.00    +0.000 NA
ATOM      6  C   UNL     1       6.836   5.967  16.534  0.00  0.00    +0.000 A 
ATOM      7  C   UNL     1       7.207   6.817  17.705  0.00  0.00    +0.000 C 
ATOM      8  C   UNL     1       5.631   5.281  16.419  0.00  0.00    +0.000 A 
ATOM      9  N   UNL     1       5.344   4.532  15.331  0.00  0.00    +0.000 NA
BRANCH   3  11
ATOM     10  C   UNL     1       7.185   4.152  11.797  0.00  0.00    +0.000 C 
ATOM     11  S   UNL     1       5.920   3.519  12.930  0.00  0.00    +0.000 S 
ENDBRANCH   3  11
ENDBRANCH   1   8
BRANCH   2  12
ATOM     12  N   UNL     1       2.471   6.061  18.345  0.00  0.00    +0.000 N 
ATOM     13  H   UNL     1       1.835   6.851  18.318  0.00  0.00    +0.000 HD
BRANCH  12  14
ATOM     14  C   UNL     1       2.178   5.094  19.320  0.00  0.00    +0.000 A 
ATOM     15  C   UNL     1       1.369   4.003  18.964  0.00  0.00    +0.000 A 
ATOM     16  C   UNL     1       1.002   3.038  19.906  0.00  0.00    +0.000 A 
ATOM     17  C   UNL     1       1.441   3.156  21.220  0.00  0.00    +0.000 A 
ATOM     18 CL   UNL     1       1.007   1.962  22.379  0.00  0.00    +0.000 Cl
ATOM     19  C   UNL     1       2.228   4.238  21.601  0.00  0.00    +0.000 A 
ATOM     20  C   UNL     1       2.580   5.209  20.657  0.00  0.00    +0.000 A 
ENDBRANCH  12  14
ENDBRANCH   2  12
TORSDOF 4
ENDMDL
MODEL 5
REMARK VINA RESULT:      -6.5      4.143      5.906
REMARK  Name = 
REMARK  6 active torsions:
REMARK  status: ('A' for Active; 'I' for Inactive)
REMARK    1  A    between atoms: C_1  and  S_2
REMARK    2  A    between atoms: S_2  and  C_3
REMARK    3  A    between atoms: C_6  and  C_7
REMARK    4  A    between atoms: C_8  and  C_9
REMARK    5  A    between atoms: C_10  and  N_11
REMARK    6  A    between atoms: N_11  and  C_12
REMARK                            x       y       z     vdW  Elec       q    Type
REMARK                         _______ _______ _______ _____ _____    ______ ____
ROOT
ATOM      1  C   UNL     1       4.770   5.711  17.916  0.00  0.00    +0.000 C 
ATOM      2  C   UNL     1       3.656   6.455  17.920  0.00  0.00    +0.000 C 
ENDROOT
BRANCH   1   8
ATOM      3  C   UNL     1       6.014   4.645  14.683  0.00  0.00    +0.000 A 
ATOM      4  N   UNL     1       7.251   5.179  14.607  0.00  0.00    +0.000 NA
ATOM      5  N   UNL     1       7.722   5.925  15.636  0.00  0.00    +0.000 NA
ATOM      6  C   UNL     1       6.937   6.117  16.716  0.00  0.00    +0.000 A 
ATOM      7  C   UNL     1       7.514   6.955  17.810  0.00  0.00    +0.000 C 
ATOM      8  C   UNL     1       5.670   5.544  16.759  0.00  0.00    +0.000 A 
ATOM      9  N   UNL     1       5.195   4.800  15.735  0.00  0.00    +0.000 NA
BRANCH   3  11
ATOM     10  C   UNL     1       6.837   3.741  12.219  0.00  0.00    +0.000 C 
ATOM     11  S   UNL     1       5.399   3.684  13.320  0.00  0.00    +0.000 S 
ENDBRANCH   3  11
ENDBRANCH   1   8
BRANCH   2  12
ATOM     12  N   UNL     1       2.788   6.591  18.973  0.00  0.00    +0.000 N 
ATOM     13  H   UNL     1       2.688   5.789  19.586  0.00  0.00    +0.000 HD
BRANCH  12  14
ATOM     14  C   UNL     1       2.063   7.730  19.359  0.00  0.00    +0.000 A 
ATOM     15  C   UNL     1       1.541   7.786  20.661  0.00  0.00    +0.000 A 
ATOM     16  C   UNL     1       0.767   8.871  21.083  0.00  0.00    +0.000 A 
ATOM     17  C   UNL     1       0.505   9.914  20.201  0.00  0.00    +0.000 A 
ATOM     18 CL   UNL     1      -0.431  11.261  20.720  0.00  0.00    +0.000 Cl
ATOM     19  C   UNL     1       0.997   9.873  18.900  0.00  0.00    +0.000 A 
ATOM     20  C   UNL     1       1.758   8.777  18.479  0.00  0.00    +0.000 A 
ENDBRANCH  12  14
ENDBRANCH   2  12
TORSDOF 4
ENDMDL
MODEL 6
REMARK VINA RESULT:      -6.3      5.763      7.202
REMARK  Name = 
REMARK  6 active torsions:
REMARK  status: ('A' for Active; 'I' for Inactive)
REMARK    1  A    between atoms: C_1  and  S_2
REMARK    2  A    between atoms: S_2  and  C_3
REMARK    3  A    between atoms: C_6  and  C_7
REMARK    4  A    between atoms: C_8  and  C_9
REMARK    5  A    between atoms: C_10  and  N_11
REMARK    6  A    between atoms: N_11  and  C_12
REMARK                            x       y       z     vdW  Elec       q    Type
REMARK                         _______ _______ _______ _____ _____    ______ ____
ROOT
ATOM      1  C   UNL     1       2.523   6.651  18.722  0.00  0.00    +0.000 C 
ATOM      2  C   UNL     1       2.305   7.645  19.593  0.00  0.00    +0.000 C 
ENDROOT
BRANCH   1   8
ATOM      3  C   UNL     1       5.573   4.696  18.618  0.00  0.00    +0.000 A 
ATOM      4  N   UNL     1       5.258   3.550  19.257  0.00  0.00    +0.000 NA
ATOM      5  N   UNL     1       4.009   3.383  19.757  0.00  0.00    +0.000 NA
ATOM      6  C   UNL     1       3.107   4.374  19.602  0.00  0.00    +0.000 A 
ATOM      7  C   UNL     1       1.752   4.129  20.182  0.00  0.00    +0.000 C 
ATOM      8  C   UNL     1       3.469   5.538  18.930  0.00  0.00    +0.000 A 
ATOM      9  N   UNL     1       4.713   5.709  18.431  0.00  0.00    +0.000 NA
BRANCH   3  11
ATOM     10  C   UNL     1       6.931   4.558  16.230  0.00  0.00    +0.000 C 
ATOM     11  S   UNL     1       7.219   4.911  17.983  0.00  0.00    +0.000 S 
ENDBRANCH   3  11
ENDBRANCH   1   8
BRANCH   2  12
ATOM     12  N   UNL     1       1.459   8.707  19.400  0.00  0.00    +0.000 N 
ATOM     13  H   UNL     1       1.350   9.033  18.445  0.00  0.00    +0.000 HD
BRANCH  12  14
ATOM     14  C   UNL     1       0.665   9.369  20.350  0.00  0.00    +0.000 A 
ATOM     15  C   UNL     1      -0.018  10.533  19.963  0.00  0.00    +0.000 A 
ATOM     16  C   UNL     1      -0.781  11.261  20.880  0.00  0.00    +0.000 A 
ATOM     17  C   UNL     1      -0.868  10.830  22.200  0.00  0.00    +0.000 A 
ATOM     18 CL   UNL     1      -1.821  11.712  23.329  0.00  0.00    +0.000 Cl
ATOM     19  C   UNL     1      -0.186   9.689  22.611  0.00  0.00    +0.000 A 
ATOM     20  C   UNL     1       0.589   8.973  21.692  0.00  0.00    +0.000 A 
ENDBRANCH  12  14
ENDBRANCH   2  12
TORSDOF 4
ENDMDL
MODEL 7
REMARK VINA RESULT:      -6.3      4.411      8.259
REMARK  Name = 
REMARK  6 active torsions:
REMARK  status: ('A' for Active; 'I' for Inactive)
REMARK    1  A    between atoms: C_1  and  S_2
REMARK    2  A    between atoms: S_2  and  C_3
REMARK    3  A    between atoms: C_6  and  C_7
REMARK    4  A    between atoms: C_8  and  C_9
REMARK    5  A    between atoms: C_10  and  N_11
REMARK    6  A    between atoms: N_11  and  C_12
REMARK                            x       y       z     vdW  Elec       q    Type
REMARK                         _______ _______ _______ _____ _____    ______ ____
ROOT
ATOM      1  C   UNL     1       9.468  10.340  19.294  0.00  0.00    +0.000 C 
ATOM      2  C   UNL     1       8.799   9.434  18.569  0.00  0.00    +0.000 C 
ENDROOT
BRANCH   1   8
ATOM      3  C   UNL     1       8.733  13.720  18.214  0.00  0.00    +0.000 A 
ATOM      4  N   UNL     1       9.936  14.332  18.184  0.00  0.00    +0.000 NA
ATOM      5  N   UNL     1      11.048  13.638  18.530  0.00  0.00    +0.000 NA
ATOM      6  C   UNL     1      10.924  12.346  18.898  0.00  0.00    +0.000 A 
ATOM      7  C   UNL     1      12.187  11.643  19.273  0.00  0.00    +0.000 C 
ATOM      8  C   UNL     1       9.666  11.751  18.910  0.00  0.00    +0.000 A 
ATOM      9  N   UNL     1       8.554  12.438  18.567  0.00  0.00    +0.000 NA
BRANCH   3  11
ATOM     10  C   UNL     1       7.811  16.312  18.249  0.00  0.00    +0.000 C 
ATOM     11  S   UNL     1       7.279  14.645  17.778  0.00  0.00    +0.000 S 
ENDBRANCH   3  11
ENDBRANCH   1   8
BRANCH   2  12
ATOM     12  N   UNL     1       8.638   8.111  18.893  0.00  0.00    +0.000 N 
ATOM     13  H   UNL     1       9.159   7.772  19.694  0.00  0.00    +0.000 HD
BRANCH  12  14
ATOM     14  C   UNL     1       7.785   7.169  18.295  0.00  0.00    +0.000 A 
ATOM     15  C   UNL     1       7.863   5.831  18.712  0.00  0.00    +0.000 A 
ATOM     16  C   UNL     1       7.076   4.841  18.117  0.00  0.00    +0.000 A 
ATOM     17  C   UNL     1       6.201   5.182  17.091  0.00  0.00    +0.000 A 
ATOM     18 CL   UNL     1       5.217   3.971  16.367  0.00  0.00    +0.000 Cl
ATOM     19  C   UNL     1       6.119   6.498  16.648  0.00  0.00    +0.000 A 
ATOM     20  C   UNL     1       6.920   7.482  17.238  0.00  0.00    +0.000 A 
ENDBRANCH  12  14
ENDBRANCH   2  12
TORSDOF 4
ENDMDL
MODEL 8
REMARK VINA RESULT:      -6.3      5.785      7.226
REMARK  Name = 
REMARK  6 active torsions:
REMARK  status: ('A' for Active; 'I' for Inactive)
REMARK    1  A    between atoms: C_1  and  S_2
REMARK    2  A    between atoms: S_2  and  C_3
REMARK    3  A    between atoms: C_6  and  C_7
REMARK    4  A    between atoms: C_8  and  C_9
REMARK    5  A    between atoms: C_10  and  N_11
REMARK    6  A    between atoms: N_11  and  C_12
REMARK                            x       y       z     vdW  Elec       q    Type
REMARK                         _______ _______ _______ _____ _____    ______ ____
ROOT
ATOM      1  C   UNL     1       2.619   5.839  20.214  0.00  0.00    +0.000 C 
ATOM      2  C   UNL     1       1.942   6.995  20.205  0.00  0.00    +0.000 C 
ENDROOT
BRANCH   1   8
ATOM      3  C   UNL     1       3.808   4.281  17.165  0.00  0.00    +0.000 A 
ATOM      4  N   UNL     1       2.954   3.256  16.958  0.00  0.00    +0.000 NA
ATOM      5  N   UNL     1       1.943   3.039  17.835  0.00  0.00    +0.000 NA
ATOM      6  C   UNL     1       1.816   3.857  18.900  0.00  0.00    +0.000 A 
ATOM      7  C   UNL     1       0.687   3.557  19.830  0.00  0.00    +0.000 C 
ATOM      8  C   UNL     1       2.713   4.907  19.074  0.00  0.00    +0.000 A 
ATOM      9  N   UNL     1       3.723   5.127  18.204  0.00  0.00    +0.000 NA
BRANCH   3  11
ATOM     10  C   UNL     1       5.218   6.356  16.036  0.00  0.00    +0.000 C 
ATOM     11  S   UNL     1       5.140   4.545  16.019  0.00  0.00    +0.000 S 
ENDBRANCH   3  11
ENDBRANCH   1   8
BRANCH   2  12
ATOM     12  N   UNL     1       1.812   7.855  21.266  0.00  0.00    +0.000 N 
ATOM     13  H   UNL     1       2.465   7.733  22.033  0.00  0.00    +0.000 HD
BRANCH  12  14
ATOM     14  C   UNL     1       0.929   8.937  21.403  0.00  0.00    +0.000 A 
ATOM     15  C   UNL     1       0.461   9.266  22.685  0.00  0.00    +0.000 A 
ATOM     16  C   UNL     1      -0.460  10.300  22.875  0.00  0.00    +0.000 A 
ATOM     17  C   UNL     1      -0.926  11.018  21.779  0.00  0.00    +0.000 A 
ATOM     18 CL   UNL     1      -2.046  12.303  22.008  0.00  0.00    +0.000 Cl
ATOM     19  C   UNL     1      -0.490  10.699  20.496  0.00  0.00    +0.000 A 
ATOM     20  C   UNL     1       0.420   9.653  20.311  0.00  0.00    +0.000 A 
ENDBRANCH  12  14
ENDBRANCH   2  12
TORSDOF 4
ENDMDL
MODEL 9
REMARK VINA RESULT:      -6.3      5.918      7.322
REMARK  Name = 
REMARK  6 active torsions:
REMARK  status: ('A' for Active; 'I' for Inactive)
REMARK    1  A    between atoms: C_1  and  S_2
REMARK    2  A    between atoms: S_2  and  C_3
REMARK    3  A    between atoms: C_6  and  C_7
REMARK    4  A    between atoms: C_8  and  C_9
REMARK    5  A    between atoms: C_10  and  N_11
REMARK    6  A    between atoms: N_11  and  C_12
REMARK                            x       y       z     vdW  Elec       q    Type
REMARK                         _______ _______ _______ _____ _____    ______ ____
ROOT
ATOM      1  C   UNL     1       3.216   6.960  18.050  0.00  0.00    +0.000 C 
ATOM      2  C   UNL     1       2.062   7.483  18.484  0.00  0.00    +0.000 C 
ENDROOT
BRANCH   1   8
ATOM      3  C   UNL     1       2.855   3.360  18.267  0.00  0.00    +0.000 A 
ATOM      4  N   UNL     1       3.840   2.877  17.481  0.00  0.00    +0.000 NA
ATOM      5  N   UNL     1       4.667   3.737  16.839  0.00  0.00    +0.000 NA
ATOM      6  C   UNL     1       4.483   5.064  17.001  0.00  0.00    +0.000 A 
ATOM      7  C   UNL     1       5.424   5.955  16.260  0.00  0.00    +0.000 C 
ATOM      8  C   UNL     1       3.460   5.522  17.826  0.00  0.00    +0.000 A 
ATOM      9  N   UNL     1       2.632   4.669  18.468  0.00  0.00    +0.000 NA
BRANCH   3  11
ATOM     10  C   UNL     1       1.166   3.277  20.437  0.00  0.00    +0.000 C 
ATOM     11  S   UNL     1       1.765   2.223  19.090  0.00  0.00    +0.000 S 
ENDBRANCH   3  11
ENDBRANCH   1   8
BRANCH   2  12
ATOM     12  N   UNL     1       1.830   8.812  18.734  0.00  0.00    +0.000 N 
ATOM     13  H   UNL     1       2.200   9.473  18.060  0.00  0.00    +0.000 HD
BRANCH  12  14
ATOM     14  C   UNL     1       1.081   9.381  19.777  0.00  0.00    +0.000 A 
ATOM     15  C   UNL     1       1.119   8.774  21.042  0.00  0.00    +0.000 A 
ATOM     16  C   UNL     1       0.353   9.266  22.103  0.00  0.00    +0.000 A 
ATOM     17  C   UNL     1      -0.462  10.375  21.906  0.00  0.00    +0.000 A 
ATOM     18 CL   UNL     1      -1.393  10.997  23.213  0.00  0.00    +0.000 Cl
ATOM     19  C   UNL     1      -0.531  10.983  20.656  0.00  0.00    +0.000 A 
ATOM     20  C   UNL     1       0.226  10.477  19.595  0.00  0.00    +0.000 A 
ENDBRANCH  12  14
ENDBRANCH   2  12
TORSDOF 4
ENDMDL
