MODEL 1
REMARK VINA RESULT:      -7.7      0.000      0.000
REMARK  Name = 
REMARK  4 active torsions:
REMARK  status: ('A' for Active; 'I' for Inactive)
REMARK    1  A    between atoms: C_2  and  C_3
REMARK    2  A    between atoms: C_3  and  O_4
REMARK    3  A    between atoms: O_4  and  C_5
REMARK    4  A    between atoms: C_19  and  C_21
REMARK                            x       y       z     vdW  Elec       q    Type
REMARK                         _______ _______ _______ _____ _____    ______ ____
ROOT
ATOM      1  O   UNL     1       2.444  10.909  17.638  0.00  0.00    +0.000 OA
ATOM      2  C   UNL     1       1.706  10.153  18.283  0.00  0.00    +0.000 C 
ATOM      3  N   UNL     1       0.754  10.649  19.158  0.00  0.00    +0.000 N 
ATOM      4  C   UNL     1      -0.143   9.855  20.013  0.00  0.00    +0.000 C 
ATOM      5  C   UNL     1      -0.083  10.320  21.480  0.00  0.00    +0.000 C 
ATOM      6  N   UNL     1      -0.231  11.779  21.580  0.00  0.00    +0.000 N 
ATOM      7  C   UNL     1      -1.167  12.312  22.476  0.00  0.00    +0.000 C 
ATOM      8  O   UNL     1      -1.809  11.547  23.200  0.00  0.00    +0.000 OA
ATOM      9  C   UNL     1       0.749  12.515  20.770  0.00  0.00    +0.000 C 
ATOM     10  C   UNL     1       0.608  12.106  19.299  0.00  0.00    +0.000 C 
ENDROOT
BRANCH   7  11
ATOM     11  C   UNL     1      -1.371  13.755  22.531  0.00  0.00    +0.000 A 
ATOM     12  C   UNL     1      -0.848  14.720  23.374  0.00  0.00    +0.000 A 
ATOM     13  C   UNL     1      -1.365  16.022  23.111  0.00  0.00    +0.000 A 
ATOM     14  C   UNL     1      -2.181  16.037  22.004  0.00  0.00    +0.000 A 
ATOM     15  S   UNL     1      -2.352  14.483  21.316  0.00  0.00    +0.000 S 
ENDBRANCH   7  11
BRANCH   2  16
ATOM     16  C   UNL     1       1.833   8.640  18.092  0.00  0.00    +0.000 C 
BRANCH  16  17
ATOM     17  O   UNL     1       3.154   8.279  17.704  0.00  0.00    +0.000 OA
BRANCH  17  18
ATOM     18  C   UNL     1       3.427   6.934  17.700  0.00  0.00    +0.000 A 
ATOM     19  C   UNL     1       4.646   6.361  17.340  0.00  0.00    +0.000 A 
ATOM     20  C   UNL     1       4.797   4.972  17.320  0.00  0.00    +0.000 A 
ATOM     21  C   UNL     1       3.736   4.129  17.669  0.00  0.00    +0.000 A 
ATOM     22  C   UNL     1       3.872   2.732  17.617  0.00  0.00    +0.000 A 
ATOM     23  C   UNL     1       2.809   1.901  17.964  0.00  0.00    +0.000 A 
ATOM     24  C   UNL     1       1.601   2.455  18.375  0.00  0.00    +0.000 A 
ATOM     25  C   UNL     1       1.451   3.843  18.435  0.00  0.00    +0.000 A 
ATOM     26  C   UNL     1       2.508   4.698  18.076  0.00  0.00    +0.000 A 
ATOM     27  C   UNL     1       2.376   6.102  18.098  0.00  0.00    +0.000 A 
ENDBRANCH  17  18
ENDBRANCH  16  17
ENDBRANCH   2  16
TORSDOF 4
ENDMDL
MODEL 2
REMARK VINA RESULT:      -7.6      1.991      2.819
REMARK  Name = 
REMARK  4 active torsions:
REMARK  status: ('A' for Active; 'I' for Inactive)
REMARK    1  A    between atoms: C_2  and  C_3
REMARK    2  A    between atoms: C_3  and  O_4
REMARK    3  A    between atoms: O_4  and  C_5
REMARK    4  A    between atoms: C_19  and  C_21
REMARK                            x       y       z     vdW  Elec       q    Type
REMARK                         _______ _______ _______ _____ _____    ______ ____
ROOT
ATOM      1  O   UNL     1      -0.774   8.451  22.157  0.00  0.00    +0.000 OA
ATOM      2  C   UNL     1      -0.084   9.281  21.551  0.00  0.00    +0.000 C 
ATOM      3  N   UNL     1      -0.170  10.634  21.832  0.00  0.00    +0.000 N 
ATOM      4  C   UNL     1       0.559  11.716  21.150  0.00  0.00    +0.000 C 
ATOM      5  C   UNL     1      -0.394  12.830  20.678  0.00  0.00    +0.000 C 
ATOM      6  N   UNL     1      -1.296  13.250  21.761  0.00  0.00    +0.000 N 
ATOM      7  C   UNL     1      -1.425  14.614  22.051  0.00  0.00    +0.000 C 
ATOM      8  O   UNL     1      -0.822  15.437  21.357  0.00  0.00    +0.000 OA
ATOM      9  C   UNL     1      -2.057  12.137  22.342  0.00  0.00    +0.000 C 
ATOM     10  C   UNL     1      -1.088  11.084  22.891  0.00  0.00    +0.000 C 
ENDROOT
BRANCH   7  11
ATOM     11  C   UNL     1      -2.261  15.037  23.169  0.00  0.00    +0.000 A 
ATOM     12  C   UNL     1      -1.979  15.179  24.517  0.00  0.00    +0.000 A 
ATOM     13  C   UNL     1      -3.118  15.567  25.282  0.00  0.00    +0.000 A 
ATOM     14  C   UNL     1      -4.210  15.820  24.484  0.00  0.00    +0.000 A 
ATOM     15  S   UNL     1      -3.870  15.551  22.832  0.00  0.00    +0.000 S 
ENDBRANCH   7  11
BRANCH   2  16
ATOM     16  C   UNL     1       0.904   8.798  20.487  0.00  0.00    +0.000 C 
BRANCH  16  17
ATOM     17  O   UNL     1       1.715   7.738  20.981  0.00  0.00    +0.000 OA
BRANCH  17  18
ATOM     18  C   UNL     1       2.015   6.747  20.080  0.00  0.00    +0.000 A 
ATOM     19  C   UNL     1       2.602   6.945  18.830  0.00  0.00    +0.000 A 
ATOM     20  C   UNL     1       2.813   5.866  17.968  0.00  0.00    +0.000 A 
ATOM     21  C   UNL     1       2.452   4.567  18.341  0.00  0.00    +0.000 A 
ATOM     22  C   UNL     1       2.631   3.485  17.465  0.00  0.00    +0.000 A 
ATOM     23  C   UNL     1       2.266   2.195  17.844  0.00  0.00    +0.000 A 
ATOM     24  C   UNL     1       1.727   1.969  19.106  0.00  0.00    +0.000 A 
ATOM     25  C   UNL     1       1.546   3.036  19.991  0.00  0.00    +0.000 A 
ATOM     26  C   UNL     1       1.896   4.347  19.622  0.00  0.00    +0.000 A 
ATOM     27  C   UNL     1       1.697   5.446  20.482  0.00  0.00    +0.000 A 
ENDBRANCH  17  18
ENDBRANCH  16  17
ENDBRANCH   2  16
TORSDOF 4
ENDMDL
MODEL 3
REMARK VINA RESULT:      -7.6      2.134      3.074
REMARK  Name = 
REMARK  4 active torsions:
REMARK  status: ('A' for Active; 'I' for Inactive)
REMARK    1  A    between atoms: C_2  and  C_3
REMARK    2  A    between atoms: C_3  and  O_4
REMARK    3  A    between atoms: O_4  and  C_5
REMARK    4  A    between atoms: C_19  and  C_21
REMARK                            x       y       z     vdW  Elec       q    Type
REMARK                         _______ _______ _______ _____ _____    ______ ____
ROOT
ATOM      1  O   UNL     1      -0.338   8.942  22.611  0.00  0.00    +0.000 OA
ATOM      2  C   UNL     1      -0.028   9.713  21.694  0.00  0.00    +0.000 C 
ATOM      3  N   UNL     1      -0.369  11.054  21.734  0.00  0.00    +0.000 N 
ATOM      4  C   UNL     1      -0.101  12.055  20.687  0.00  0.00    +0.000 C 
ATOM      5  C   UNL     1      -1.377  12.828  20.304  0.00  0.00    +0.000 C 
ATOM      6  N   UNL     1      -2.075  13.324  21.499  0.00  0.00    +0.000 N 
ATOM      7  C   UNL     1      -2.458  14.670  21.556  0.00  0.00    +0.000 C 
ATOM      8  O   UNL     1      -2.248  15.397  20.583  0.00  0.00    +0.000 OA
ATOM      9  C   UNL     1      -2.390  12.263  22.465  0.00  0.00    +0.000 C 
ATOM     10  C   UNL     1      -1.096  11.570  22.905  0.00  0.00    +0.000 C 
ENDROOT
BRANCH   7  11
ATOM     11  C   UNL     1      -3.086  15.189  22.766  0.00  0.00    +0.000 A 
ATOM     12  C   UNL     1      -4.418  15.376  23.094  0.00  0.00    +0.000 A 
ATOM     13  C   UNL     1      -4.592  15.971  24.379  0.00  0.00    +0.000 A 
ATOM     14  C   UNL     1      -3.397  16.117  25.043  0.00  0.00    +0.000 A 
ATOM     15  S   UNL     1      -2.075  15.578  24.105  0.00  0.00    +0.000 S 
ENDBRANCH   7  11
BRANCH   2  16
ATOM     16  C   UNL     1       0.771   9.178  20.504  0.00  0.00    +0.000 C 
BRANCH  16  17
ATOM     17  O   UNL     1       1.760   8.244  20.926  0.00  0.00    +0.000 OA
BRANCH  17  18
ATOM     18  C   UNL     1       1.952   7.166  20.100  0.00  0.00    +0.000 A 
ATOM     19  C   UNL     1       2.496   7.221  18.816  0.00  0.00    +0.000 A 
ATOM     20  C   UNL     1       2.596   6.064  18.039  0.00  0.00    +0.000 A 
ATOM     21  C   UNL     1       2.164   4.827  18.533  0.00  0.00    +0.000 A 
ATOM     22  C   UNL     1       2.232   3.669  17.743  0.00  0.00    +0.000 A 
ATOM     23  C   UNL     1       1.797   2.442  18.242  0.00  0.00    +0.000 A 
ATOM     24  C   UNL     1       1.300   2.358  19.538  0.00  0.00    +0.000 A 
ATOM     25  C   UNL     1       1.231   3.502  20.338  0.00  0.00    +0.000 A 
ATOM     26  C   UNL     1       1.651   4.751  19.848  0.00  0.00    +0.000 A 
ATOM     27  C   UNL     1       1.565   5.927  20.620  0.00  0.00    +0.000 A 
ENDBRANCH  17  18
ENDBRANCH  16  17
ENDBRANCH   2  16
TORSDOF 4
ENDMDL
MODEL 4
REMARK VINA RESULT:      -7.5      2.841      3.333
REMARK  Name = 
REMARK  4 active torsions:
REMARK  status: ('A' for Active; 'I' for Inactive)
REMARK    1  A    between atoms: C_2  and  C_3
REMARK    2  A    between atoms: C_3  and  O_4
REMARK    3  A    between atoms: O_4  and  C_5
REMARK    4  A    between atoms: C_19  and  C_21
REMARK                            x       y       z     vdW  Elec       q    Type
REMARK                         _______ _______ _______ _____ _____    ______ ____
ROOT
ATOM      1  O   UNL     1       0.756   9.771  18.045  0.00  0.00    +0.000 OA
ATOM      2  C   UNL     1       0.609  10.129  19.220  0.00  0.00    +0.000 C 
ATOM      3  N   UNL     1       0.335  11.447  19.544  0.00  0.00    +0.000 N 
ATOM      4  C   UNL     1       0.188  12.001  20.900  0.00  0.00    +0.000 C 
ATOM      5  C   UNL     1       1.078  13.241  21.103  0.00  0.00    +0.000 C 
ATOM      6  N   UNL     1       0.912  14.199  20.000  0.00  0.00    +0.000 N 
ATOM      7  C   UNL     1       0.661  15.545  20.297  0.00  0.00    +0.000 C 
ATOM      8  O   UNL     1       0.638  15.907  21.475  0.00  0.00    +0.000 OA
ATOM      9  C   UNL     1       1.156  13.605  18.679  0.00  0.00    +0.000 C 
ATOM     10  C   UNL     1       0.195  12.432  18.460  0.00  0.00    +0.000 C 
ENDROOT
BRANCH   7  11
ATOM     11  C   UNL     1       0.425  16.489  19.211  0.00  0.00    +0.000 A 
ATOM     12  C   UNL     1      -0.745  16.894  18.591  0.00  0.00    +0.000 A 
ATOM     13  C   UNL     1      -0.517  17.806  17.519  0.00  0.00    +0.000 A 
ATOM     14  C   UNL     1       0.809  18.160  17.421  0.00  0.00    +0.000 A 
ATOM     15  S   UNL     1       1.770  17.365  18.588  0.00  0.00    +0.000 S 
ENDBRANCH   7  11
BRANCH   2  16
ATOM     16  C   UNL     1       0.707   9.088  20.337  0.00  0.00    +0.000 C 
BRANCH  16  17
ATOM     17  O   UNL     1       2.005   8.504  20.385  0.00  0.00    +0.000 OA
BRANCH  17  18
ATOM     18  C   UNL     1       2.126   7.272  19.792  0.00  0.00    +0.000 A 
ATOM     19  C   UNL     1       2.650   7.037  18.521  0.00  0.00    +0.000 A 
ATOM     20  C   UNL     1       2.676   5.743  17.994  0.00  0.00    +0.000 A 
ATOM     21  C   UNL     1       2.187   4.658  18.730  0.00  0.00    +0.000 A 
ATOM     22  C   UNL     1       2.180   3.362  18.190  0.00  0.00    +0.000 A 
ATOM     23  C   UNL     1       1.689   2.287  18.929  0.00  0.00    +0.000 A 
ATOM     24  C   UNL     1       1.209   2.494  20.219  0.00  0.00    +0.000 A 
ATOM     25  C   UNL     1       1.214   3.778  20.771  0.00  0.00    +0.000 A 
ATOM     26  C   UNL     1       1.692   4.877  20.036  0.00  0.00    +0.000 A 
ATOM     27  C   UNL     1       1.681   6.187  20.555  0.00  0.00    +0.000 A 
ENDBRANCH  17  18
ENDBRANCH  16  17
ENDBRANCH   2  16
TORSDOF 4
ENDMDL
MODEL 5
REMARK VINA RESULT:      -7.5      4.129      9.129
REMARK  Name = 
REMARK  4 active torsions:
REMARK  status: ('A' for Active; 'I' for Inactive)
REMARK    1  A    between atoms: C_2  and  C_3
REMARK    2  A    between atoms: C_3  and  O_4
REMARK    3  A    between atoms: O_4  and  C_5
REMARK    4  A    between atoms: C_19  and  C_21
REMARK                            x       y       z     vdW  Elec       q    Type
REMARK                         _______ _______ _______ _____ _____    ______ ____
ROOT
ATOM      1  O   UNL     1       0.040  11.002  21.989  0.00  0.00    +0.000 OA
ATOM      2  C   UNL     1       0.333  10.909  20.791  0.00  0.00    +0.000 C 
ATOM      3  N   UNL     1       0.592   9.681  20.205  0.00  0.00    +0.000 N 
ATOM      4  C   UNL     1       0.997   9.448  18.809  0.00  0.00    +0.000 C 
ATOM      5  C   UNL     1       2.258   8.567  18.726  0.00  0.00    +0.000 C 
ATOM      6  N   UNL     1       2.121   7.365  19.561  0.00  0.00    +0.000 N 
ATOM      7  C   UNL     1       2.403   6.110  19.005  0.00  0.00    +0.000 C 
ATOM      8  O   UNL     1       2.811   6.046  17.843  0.00  0.00    +0.000 OA
ATOM      9  C   UNL     1       1.801   7.669  20.962  0.00  0.00    +0.000 C 
ATOM     10  C   UNL     1       0.492   8.465  21.027  0.00  0.00    +0.000 C 
ENDROOT
BRANCH   7  11
ATOM     11  C   UNL     1       2.201   4.907  19.803  0.00  0.00    +0.000 A 
ATOM     12  C   UNL     1       1.086   4.429  20.470  0.00  0.00    +0.000 A 
ATOM     13  C   UNL     1       1.344   3.224  21.186  0.00  0.00    +0.000 A 
ATOM     14  C   UNL     1       2.615   2.753  20.956  0.00  0.00    +0.000 A 
ATOM     15  S   UNL     1       3.499   3.781  19.918  0.00  0.00    +0.000 S 
ENDBRANCH   7  11
BRANCH   2  16
ATOM     16  C   UNL     1       0.385  12.174  19.932  0.00  0.00    +0.000 C 
BRANCH  16  17
ATOM     17  O   UNL     1      -0.798  12.951  20.089  0.00  0.00    +0.000 OA
BRANCH  17  18
ATOM     18  C   UNL     1      -1.917  12.465  19.461  0.00  0.00    +0.000 A 
ATOM     19  C   UNL     1      -1.938  11.860  18.204  0.00  0.00    +0.000 A 
ATOM     20  C   UNL     1      -3.146  11.449  17.636  0.00  0.00    +0.000 A 
ATOM     21  C   UNL     1      -4.357  11.625  18.317  0.00  0.00    +0.000 A 
ATOM     22  C   UNL     1      -5.577  11.244  17.735  0.00  0.00    +0.000 A 
ATOM     23  C   UNL     1      -6.777  11.425  18.419  0.00  0.00    +0.000 A 
ATOM     24  C   UNL     1      -6.772  11.979  19.695  0.00  0.00    +0.000 A 
ATOM     25  C   UNL     1      -5.564  12.359  20.289  0.00  0.00    +0.000 A 
ATOM     26  C   UNL     1      -4.344  12.197  19.609  0.00  0.00    +0.000 A 
ATOM     27  C   UNL     1      -3.115  12.599  20.170  0.00  0.00    +0.000 A 
ENDBRANCH  17  18
ENDBRANCH  16  17
ENDBRANCH   2  16
TORSDOF 4
ENDMDL
MODEL 6
REMARK VINA RESULT:      -7.4      1.480      1.717
REMARK  Name = 
REMARK  4 active torsions:
REMARK  status: ('A' for Active; 'I' for Inactive)
REMARK    1  A    between atoms: C_2  and  C_3
REMARK    2  A    between atoms: C_3  and  O_4
REMARK    3  A    between atoms: O_4  and  C_5
REMARK    4  A    between atoms: C_19  and  C_21
REMARK                            x       y       z     vdW  Elec       q    Type
REMARK                         _______ _______ _______ _____ _____    ______ ____
ROOT
ATOM      1  O   UNL     1       1.082  10.027  17.642  0.00  0.00    +0.000 OA
ATOM      2  C   UNL     1       0.950   9.554  18.778  0.00  0.00    +0.000 C 
ATOM      3  N   UNL     1      -0.059   9.983  19.624  0.00  0.00    +0.000 N 
ATOM      4  C   UNL     1      -0.287   9.536  21.008  0.00  0.00    +0.000 C 
ATOM      5  C   UNL     1      -0.415  10.728  21.974  0.00  0.00    +0.000 C 
ATOM      6  N   UNL     1      -1.364  11.727  21.460  0.00  0.00    +0.000 N 
ATOM      7  C   UNL     1      -2.379  12.200  22.302  0.00  0.00    +0.000 C 
ATOM      8  O   UNL     1      -2.423  11.809  23.470  0.00  0.00    +0.000 OA
ATOM      9  C   UNL     1      -1.032  12.197  20.109  0.00  0.00    +0.000 C 
ATOM     10  C   UNL     1      -1.004  11.005  19.145  0.00  0.00    +0.000 C 
ENDROOT
BRANCH   7  11
ATOM     11  C   UNL     1      -3.368  13.137  21.780  0.00  0.00    +0.000 A 
ATOM     12  C   UNL     1      -4.551  12.928  21.093  0.00  0.00    +0.000 A 
ATOM     13  C   UNL     1      -5.193  14.143  20.715  0.00  0.00    +0.000 A 
ATOM     14  C   UNL     1      -4.544  15.245  21.220  0.00  0.00    +0.000 A 
ATOM     15  S   UNL     1      -3.150  14.814  22.107  0.00  0.00    +0.000 S 
ENDBRANCH   7  11
BRANCH   2  16
ATOM     16  C   UNL     1       1.906   8.456  19.248  0.00  0.00    +0.000 C 
BRANCH  16  17
ATOM     17  O   UNL     1       2.895   8.179  18.263  0.00  0.00    +0.000 OA
BRANCH  17  18
ATOM     18  C   UNL     1       3.201   6.853  18.083  0.00  0.00    +0.000 A 
ATOM     19  C   UNL     1       4.373   6.368  17.502  0.00  0.00    +0.000 A 
ATOM     20  C   UNL     1       4.557   4.995  17.319  0.00  0.00    +0.000 A 
ATOM     21  C   UNL     1       3.578   4.079  17.722  0.00  0.00    +0.000 A 
ATOM     22  C   UNL     1       3.744   2.702  17.509  0.00  0.00    +0.000 A 
ATOM     23  C   UNL     1       2.763   1.797  17.911  0.00  0.00    +0.000 A 
ATOM     24  C   UNL     1       1.611   2.258  18.539  0.00  0.00    +0.000 A 
ATOM     25  C   UNL     1       1.434   3.626  18.762  0.00  0.00    +0.000 A 
ATOM     26  C   UNL     1       2.405   4.555  18.351  0.00  0.00    +0.000 A 
ATOM     27  C   UNL     1       2.240   5.943  18.534  0.00  0.00    +0.000 A 
ENDBRANCH  17  18
ENDBRANCH  16  17
ENDBRANCH   2  16
TORSDOF 4
ENDMDL
MODEL 7
REMARK VINA RESULT:      -7.4      1.230      1.257
REMARK  Name = 
REMARK  4 active torsions:
REMARK  status: ('A' for Active; 'I' for Inactive)
REMARK    1  A    between atoms: C_2  and  C_3
REMARK    2  A    between atoms: C_3  and  O_4
REMARK    3  A    between atoms: O_4  and  C_5
REMARK    4  A    between atoms: C_19  and  C_21
REMARK                            x       y       z     vdW  Elec       q    Type
REMARK                         _______ _______ _______ _____ _____    ______ ____
ROOT
ATOM      1  O   UNL     1       2.291  10.866  17.483  0.00  0.00    +0.000 OA
ATOM      2  C   UNL     1       1.564  10.088  18.113  0.00  0.00    +0.000 C 
ATOM      3  N   UNL     1       0.638  10.551  19.033  0.00  0.00    +0.000 N 
ATOM      4  C   UNL     1      -0.243   9.726  19.875  0.00  0.00    +0.000 C 
ATOM      5  C   UNL     1      -0.143  10.126  21.359  0.00  0.00    +0.000 C 
ATOM      6  N   UNL     1      -0.276  11.580  21.527  0.00  0.00    +0.000 N 
ATOM      7  C   UNL     1      -1.184  12.078  22.470  0.00  0.00    +0.000 C 
ATOM      8  O   UNL     1      -1.814  11.287  23.176  0.00  0.00    +0.000 OA
ATOM      9  C   UNL     1       0.689  12.344  20.725  0.00  0.00    +0.000 C 
ATOM     10  C   UNL     1       0.507  12.002  19.242  0.00  0.00    +0.000 C 
ENDROOT
BRANCH   7  11
ATOM     11  C   UNL     1      -1.376  13.519  22.594  0.00  0.00    +0.000 A 
ATOM     12  C   UNL     1      -0.840  14.439  23.479  0.00  0.00    +0.000 A 
ATOM     13  C   UNL     1      -1.346  15.757  23.280  0.00  0.00    +0.000 A 
ATOM     14  C   UNL     1      -2.167  15.831  22.179  0.00  0.00    +0.000 A 
ATOM     15  S   UNL     1      -2.355  14.312  21.420  0.00  0.00    +0.000 S 
ENDBRANCH   7  11
BRANCH   2  16
ATOM     16  C   UNL     1       1.673   8.584  17.852  0.00  0.00    +0.000 C 
BRANCH  16  17
ATOM     17  O   UNL     1       3.034   8.171  17.787  0.00  0.00    +0.000 OA
BRANCH  17  18
ATOM     18  C   UNL     1       3.289   6.894  18.219  0.00  0.00    +0.000 A 
ATOM     19  C   UNL     1       4.157   5.992  17.603  0.00  0.00    +0.000 A 
ATOM     20  C   UNL     1       4.300   4.694  18.100  0.00  0.00    +0.000 A 
ATOM     21  C   UNL     1       3.588   4.275  19.229  0.00  0.00    +0.000 A 
ATOM     22  C   UNL     1       3.703   2.962  19.712  0.00  0.00    +0.000 A 
ATOM     23  C   UNL     1       2.988   2.552  20.836  0.00  0.00    +0.000 A 
ATOM     24  C   UNL     1       2.157   3.452  21.495  0.00  0.00    +0.000 A 
ATOM     25  C   UNL     1       2.035   4.764  21.028  0.00  0.00    +0.000 A 
ATOM     26  C   UNL     1       2.738   5.192  19.889  0.00  0.00    +0.000 A 
ATOM     27  C   UNL     1       2.611   6.500  19.378  0.00  0.00    +0.000 A 
ENDBRANCH  17  18
ENDBRANCH  16  17
ENDBRANCH   2  16
TORSDOF 4
ENDMDL
MODEL 8
REMARK VINA RESULT:      -7.4      3.920      8.934
REMARK  Name = 
REMARK  4 active torsions:
REMARK  status: ('A' for Active; 'I' for Inactive)
REMARK    1  A    between atoms: C_2  and  C_3
REMARK    2  A    between atoms: C_3  and  O_4
REMARK    3  A    between atoms: O_4  and  C_5
REMARK    4  A    between atoms: C_19  and  C_21
REMARK                            x       y       z     vdW  Elec       q    Type
REMARK                         _______ _______ _______ _____ _____    ______ ____
ROOT
ATOM      1  O   UNL     1       0.924  11.004  21.552  0.00  0.00    +0.000 OA
ATOM      2  C   UNL     1       1.077  10.789  20.343  0.00  0.00    +0.000 C 
ATOM      3  N   UNL     1       1.132   9.500  19.841  0.00  0.00    +0.000 N 
ATOM      4  C   UNL     1       1.359   9.119  18.437  0.00  0.00    +0.000 C 
ATOM      5  C   UNL     1       2.495   8.087  18.308  0.00  0.00    +0.000 C 
ATOM      6  N   UNL     1       2.310   6.974  19.251  0.00  0.00    +0.000 N 
ATOM      7  C   UNL     1       2.387   5.658  18.778  0.00  0.00    +0.000 C 
ATOM      8  O   UNL     1       2.660   5.460  17.592  0.00  0.00    +0.000 OA
ATOM      9  C   UNL     1       2.175   7.416  20.646  0.00  0.00    +0.000 C 
ATOM     10  C   UNL     1       0.980   8.368  20.768  0.00  0.00    +0.000 C 
ENDROOT
BRANCH   7  11
ATOM     11  C   UNL     1       2.134   4.549  19.691  0.00  0.00    +0.000 A 
ATOM     12  C   UNL     1       0.973   4.128  20.317  0.00  0.00    +0.000 A 
ATOM     13  C   UNL     1       1.185   3.017  21.185  0.00  0.00    +0.000 A 
ATOM     14  C   UNL     1       2.476   2.548  21.112  0.00  0.00    +0.000 A 
ATOM     15  S   UNL     1       3.430   3.469  20.036  0.00  0.00    +0.000 S 
ENDBRANCH   7  11
BRANCH   2  16
ATOM     16  C   UNL     1       1.183  11.974  19.380  0.00  0.00    +0.000 C 
BRANCH  16  17
ATOM     17  O   UNL     1       0.307  13.028  19.763  0.00  0.00    +0.000 OA
BRANCH  17  18
ATOM     18  C   UNL     1      -1.032  12.780  19.598  0.00  0.00    +0.000 A 
ATOM     19  C   UNL     1      -2.023  13.039  20.545  0.00  0.00    +0.000 A 
ATOM     20  C   UNL     1      -3.353  12.694  20.291  0.00  0.00    +0.000 A 
ATOM     21  C   UNL     1      -3.721  12.093  19.081  0.00  0.00    +0.000 A 
ATOM     22  C   UNL     1      -5.051  11.714  18.836  0.00  0.00    +0.000 A 
ATOM     23  C   UNL     1      -5.408  11.113  17.630  0.00  0.00    +0.000 A 
ATOM     24  C   UNL     1      -4.442  10.894  16.653  0.00  0.00    +0.000 A 
ATOM     25  C   UNL     1      -3.116  11.269  16.881  0.00  0.00    +0.000 A 
ATOM     26  C   UNL     1      -2.734  11.864  18.097  0.00  0.00    +0.000 A 
ATOM     27  C   UNL     1      -1.398  12.225  18.367  0.00  0.00    +0.000 A 
ENDBRANCH  17  18
ENDBRANCH  16  17
ENDBRANCH   2  16
TORSDOF 4
ENDMDL
MODEL 9
REMARK VINA RESULT:      -7.4      1.223      1.857
REMARK  Name = 
REMARK  4 active torsions:
REMARK  status: ('A' for Active; 'I' for Inactive)
REMARK    1  A    between atoms: C_2  and  C_3
REMARK    2  A    between atoms: C_3  and  O_4
REMARK    3  A    between atoms: O_4  and  C_5
REMARK    4  A    between atoms: C_19  and  C_21
REMARK                            x       y       z     vdW  Elec       q    Type
REMARK                         _______ _______ _______ _____ _____    ______ ____
ROOT
ATOM      1  O   UNL     1       2.244  10.974  17.864  0.00  0.00    +0.000 OA
ATOM      2  C   UNL     1       1.522  10.192  18.496  0.00  0.00    +0.000 C 
ATOM      3  N   UNL     1       0.523  10.653  19.337  0.00  0.00    +0.000 N 
ATOM      4  C   UNL     1      -0.363   9.827  20.174  0.00  0.00    +0.000 C 
ATOM      5  C   UNL     1      -0.369  10.308  21.637  0.00  0.00    +0.000 C 
ATOM      6  N   UNL     1      -0.584  11.760  21.717  0.00  0.00    +0.000 N 
ATOM      7  C   UNL     1      -1.570  12.258  22.579  0.00  0.00    +0.000 C 
ATOM      8  O   UNL     1      -2.198  11.472  23.292  0.00  0.00    +0.000 OA
ATOM      9  C   UNL     1       0.385  12.532  20.928  0.00  0.00    +0.000 C 
ATOM     10  C   UNL     1       0.306  12.103  19.458  0.00  0.00    +0.000 C 
ENDROOT
BRANCH   7  11
ATOM     11  C   UNL     1      -1.840  13.691  22.613  0.00  0.00    +0.000 A 
ATOM     12  C   UNL     1      -2.650  14.486  21.821  0.00  0.00    +0.000 A 
ATOM     13  C   UNL     1      -2.578  15.867  22.167  0.00  0.00    +0.000 A 
ATOM     14  C   UNL     1      -1.804  16.076  23.284  0.00  0.00    +0.000 A 
ATOM     15  S   UNL     1      -1.138  14.621  23.881  0.00  0.00    +0.000 S 
ENDBRANCH   7  11
BRANCH   2  16
ATOM     16  C   UNL     1       1.721   8.685  18.324  0.00  0.00    +0.000 C 
BRANCH  16  17
ATOM     17  O   UNL     1       2.281   8.103  19.497  0.00  0.00    +0.000 OA
BRANCH  17  18
ATOM     18  C   UNL     1       2.121   6.747  19.624  0.00  0.00    +0.000 A 
ATOM     19  C   UNL     1       1.701   6.089  20.781  0.00  0.00    +0.000 A 
ATOM     20  C   UNL     1       1.624   4.694  20.814  0.00  0.00    +0.000 A 
ATOM     21  C   UNL     1       1.956   3.929  19.690  0.00  0.00    +0.000 A 
ATOM     22  C   UNL     1       1.913   2.527  19.730  0.00  0.00    +0.000 A 
ATOM     23  C   UNL     1       2.247   1.773  18.607  0.00  0.00    +0.000 A 
ATOM     24  C   UNL     1       2.619   2.412  17.429  0.00  0.00    +0.000 A 
ATOM     25  C   UNL     1       2.662   3.808  17.372  0.00  0.00    +0.000 A 
ATOM     26  C   UNL     1       2.342   4.585  18.499  0.00  0.00    +0.000 A 
ATOM     27  C   UNL     1       2.406   5.993  18.481  0.00  0.00    +0.000 A 
ENDBRANCH  17  18
ENDBRANCH  16  17
ENDBRANCH   2  16
TORSDOF 4
ENDMDL
