MODEL 1
REMARK VINA RESULT:      -9.0      0.000      0.000
REMARK  Name = 
REMARK  5 active torsions:
REMARK  status: ('A' for Active; 'I' for Inactive)
REMARK    1  A    between atoms: C_2  and  C_21
REMARK    2  A    between atoms: N_3  and  C_4
REMARK    3  A    between atoms: C_7  and  S_8
REMARK    4  A    between atoms: S_8  and  C_11
REMARK    5  A    between atoms: C_23  and  C_24
REMARK                            x       y       z     vdW  Elec       q    Type
REMARK                         _______ _______ _______ _____ _____    ______ ____
ROOT
ATOM      1  C   UNL     1       1.771   6.742  20.558  0.00  0.00    +0.000 A 
ATOM      2  C   UNL     1       1.476   5.392  20.785  0.00  0.00    +0.000 A 
ATOM      3  C   UNL     1       1.946   4.395  19.931  0.00  0.00    +0.000 A 
ATOM      4  C   UNL     1       2.727   4.744  18.834  0.00  0.00    +0.000 A 
ATOM      5  C   UNL     1       2.999   6.088  18.559  0.00  0.00    +0.000 A 
ATOM      6  C   UNL     1       2.512   7.086  19.420  0.00  0.00    +0.000 A 
ENDROOT
BRANCH   1   9
ATOM      7  O   UNL     1       0.607   9.312  19.839  0.00  0.00    +0.000 OA
ATOM      8  C   UNL     1       0.838   8.993  20.999  0.00  0.00    +0.000 C 
ATOM      9  N   UNL     1       1.325   7.770  21.424  0.00  0.00    +0.000 N 
ATOM     10  H   UNL     1       1.288   7.562  22.413  0.00  0.00    +0.000 HD
BRANCH   8  11
ATOM     11  C   UNL     1       0.584   9.995  22.076  0.00  0.00    +0.000 C 
ATOM     12  C   UNL     1      -0.010   9.537  23.389  0.00  0.00    +0.000 C 
ATOM     13  C   UNL     1      -0.870  10.301  22.415  0.00  0.00    +0.000 C 
BRANCH  13  14
ATOM     14  C   UNL     1      -1.312  11.712  22.695  0.00  0.00    +0.000 A 
ATOM     15  C   UNL     1      -2.539  12.018  23.299  0.00  0.00    +0.000 A 
ATOM     16  C   UNL     1      -2.937  13.343  23.474  0.00  0.00    +0.000 A 
ATOM     17  C   UNL     1      -2.092  14.344  23.033  0.00  0.00    +0.000 A 
ATOM     18  N   UNL     1      -0.901  14.109  22.446  0.00  0.00    +0.000 NA
ATOM     19  C   UNL     1      -0.551  12.810  22.287  0.00  0.00    +0.000 A 
ENDBRANCH  13  14
ENDBRANCH   8  11
ENDBRANCH   1   9
BRANCH   4  20
ATOM     20  S   UNL     1       3.297   3.454  17.747  0.00  0.00    +0.000 S 
ATOM     21  O   UNL     1       3.563   2.285  18.565  0.00  0.00    +0.000 OA
ATOM     22  O   UNL     1       2.364   3.377  16.642  0.00  0.00    +0.000 OA
BRANCH  20  23
ATOM     23  C   UNL     1       4.854   3.991  17.081  0.00  0.00    +0.000 A 
ATOM     24  C   UNL     1       5.932   4.238  17.938  0.00  0.00    +0.000 A 
ATOM     25  C   UNL     1       7.158   4.598  17.389  0.00  0.00    +0.000 A 
ATOM     26  F   UNL     1       8.196   4.838  18.202  0.00  0.00    +0.000 F 
ATOM     27  C   UNL     1       7.330   4.709  16.015  0.00  0.00    +0.000 A 
ATOM     28  C   UNL     1       6.251   4.445  15.180  0.00  0.00    +0.000 A 
ATOM     29  F   UNL     1       6.410   4.533  13.855  0.00  0.00    +0.000 F 
ATOM     30  C   UNL     1       5.011   4.083  15.696  0.00  0.00    +0.000 A 
ENDBRANCH  20  23
ENDBRANCH   4  20
TORSDOF 5
ENDMDL
MODEL 2
REMARK VINA RESULT:      -9.0      0.517      1.769
REMARK  Name = 
REMARK  5 active torsions:
REMARK  status: ('A' for Active; 'I' for Inactive)
REMARK    1  A    between atoms: C_2  and  C_21
REMARK    2  A    between atoms: N_3  and  C_4
REMARK    3  A    between atoms: C_7  and  S_8
REMARK    4  A    between atoms: S_8  and  C_11
REMARK    5  A    between atoms: C_23  and  C_24
REMARK                            x       y       z     vdW  Elec       q    Type
REMARK                         _______ _______ _______ _____ _____    ______ ____
ROOT
ATOM      1  C   UNL     1       1.816   6.709  20.518  0.00  0.00    +0.000 A 
ATOM      2  C   UNL     1       1.546   5.359  20.774  0.00  0.00    +0.000 A 
ATOM      3  C   UNL     1       2.005   4.355  19.923  0.00  0.00    +0.000 A 
ATOM      4  C   UNL     1       2.748   4.697  18.798  0.00  0.00    +0.000 A 
ATOM      5  C   UNL     1       2.993   6.040  18.493  0.00  0.00    +0.000 A 
ATOM      6  C   UNL     1       2.517   7.045  19.352  0.00  0.00    +0.000 A 
ENDROOT
BRANCH   1   9
ATOM      7  O   UNL     1       0.608   9.257  19.793  0.00  0.00    +0.000 OA
ATOM      8  C   UNL     1       0.870   8.957  20.950  0.00  0.00    +0.000 C 
ATOM      9  N   UNL     1       1.380   7.745  21.380  0.00  0.00    +0.000 N 
ATOM     10  H   UNL     1       1.370   7.550  22.372  0.00  0.00    +0.000 HD
BRANCH   8  11
ATOM     11  C   UNL     1       0.633   9.972  22.019  0.00  0.00    +0.000 C 
ATOM     12  C   UNL     1      -0.011   9.542  23.319  0.00  0.00    +0.000 C 
ATOM     13  C   UNL     1      -0.814  10.339  22.324  0.00  0.00    +0.000 C 
BRANCH  13  14
ATOM     14  C   UNL     1      -1.204  11.768  22.591  0.00  0.00    +0.000 A 
ATOM     15  C   UNL     1      -0.417  12.857  22.194  0.00  0.00    +0.000 A 
ATOM     16  C   UNL     1      -0.784  14.160  22.525  0.00  0.00    +0.000 A 
ATOM     17  C   UNL     1      -1.941  14.348  23.257  0.00  0.00    +0.000 A 
ATOM     18  N   UNL     1      -2.737  13.340  23.666  0.00  0.00    +0.000 NA
ATOM     19  C   UNL     1      -2.345  12.087  23.331  0.00  0.00    +0.000 A 
ENDBRANCH  13  14
ENDBRANCH   8  11
ENDBRANCH   1   9
BRANCH   4  20
ATOM     20  S   UNL     1       3.305   3.398  17.715  0.00  0.00    +0.000 S 
ATOM     21  O   UNL     1       3.548   2.225  18.535  0.00  0.00    +0.000 OA
ATOM     22  O   UNL     1       2.376   3.334  16.604  0.00  0.00    +0.000 OA
BRANCH  20  23
ATOM     23  C   UNL     1       4.874   3.910  17.057  0.00  0.00    +0.000 A 
ATOM     24  C   UNL     1       5.038   4.054  15.676  0.00  0.00    +0.000 A 
ATOM     25  C   UNL     1       6.256   4.516  15.187  0.00  0.00    +0.000 A 
ATOM     26  F   UNL     1       6.423   4.655  13.866  0.00  0.00    +0.000 F 
ATOM     27  C   UNL     1       7.301   4.839  16.044  0.00  0.00    +0.000 A 
ATOM     28  C   UNL     1       7.112   4.703  17.414  0.00  0.00    +0.000 A 
ATOM     29  F   UNL     1       8.107   5.027  18.249  0.00  0.00    +0.000 F 
ATOM     30  C   UNL     1       5.907   4.244  17.935  0.00  0.00    +0.000 A 
ENDBRANCH  20  23
ENDBRANCH   4  20
TORSDOF 5
ENDMDL
MODEL 3
REMARK VINA RESULT:      -8.9      1.140      2.151
REMARK  Name = 
REMARK  5 active torsions:
REMARK  status: ('A' for Active; 'I' for Inactive)
REMARK    1  A    between atoms: C_2  and  C_21
REMARK    2  A    between atoms: N_3  and  C_4
REMARK    3  A    between atoms: C_7  and  S_8
REMARK    4  A    between atoms: S_8  and  C_11
REMARK    5  A    between atoms: C_23  and  C_24
REMARK                            x       y       z     vdW  Elec       q    Type
REMARK                         _______ _______ _______ _____ _____    ______ ____
ROOT
ATOM      1  C   UNL     1       1.679   7.930  19.736  0.00  0.00    +0.000 A 
ATOM      2  C   UNL     1       2.252   7.691  18.481  0.00  0.00    +0.000 A 
ATOM      3  C   UNL     1       2.749   6.435  18.138  0.00  0.00    +0.000 A 
ATOM      4  C   UNL     1       2.673   5.394  19.058  0.00  0.00    +0.000 A 
ATOM      5  C   UNL     1       2.147   5.616  20.335  0.00  0.00    +0.000 A 
ATOM      6  C   UNL     1       1.659   6.889  20.673  0.00  0.00    +0.000 A 
ENDROOT
BRANCH   1   9
ATOM      7  O   UNL     1      -0.655   8.486  21.384  0.00  0.00    +0.000 OA
ATOM      8  C   UNL     1      -0.008   9.370  20.838  0.00  0.00    +0.000 C 
ATOM      9  N   UNL     1       1.148   9.191  20.097  0.00  0.00    +0.000 N 
ATOM     10  H   UNL     1       1.693  10.011  19.863  0.00  0.00    +0.000 HD
BRANCH   8  11
ATOM     11  C   UNL     1      -0.484  10.780  20.958  0.00  0.00    +0.000 C 
ATOM     12  C   UNL     1       0.527  11.891  21.135  0.00  0.00    +0.000 C 
ATOM     13  C   UNL     1      -0.312  11.460  22.311  0.00  0.00    +0.000 C 
BRANCH  13  14
ATOM     14  C   UNL     1      -1.396  12.342  22.870  0.00  0.00    +0.000 A 
ATOM     15  C   UNL     1      -2.590  11.836  23.399  0.00  0.00    +0.000 A 
ATOM     16  C   UNL     1      -3.595  12.695  23.840  0.00  0.00    +0.000 A 
ATOM     17  C   UNL     1      -3.382  14.057  23.740  0.00  0.00    +0.000 A 
ATOM     18  N   UNL     1      -2.254  14.601  23.241  0.00  0.00    +0.000 NA
ATOM     19  C   UNL     1      -1.303  13.735  22.816  0.00  0.00    +0.000 A 
ENDBRANCH  13  14
ENDBRANCH   8  11
ENDBRANCH   1   9
BRANCH   4  20
ATOM     20  S   UNL     1       3.333   3.803  18.606  0.00  0.00    +0.000 S 
ATOM     21  O   UNL     1       3.615   3.087  19.836  0.00  0.00    +0.000 OA
ATOM     22  O   UNL     1       2.444   3.233  17.614  0.00  0.00    +0.000 OA
BRANCH  20  23
ATOM     23  C   UNL     1       4.891   4.100  17.804  0.00  0.00    +0.000 A 
ATOM     24  C   UNL     1       5.045   3.804  16.446  0.00  0.00    +0.000 A 
ATOM     25  C   UNL     1       6.254   4.101  15.826  0.00  0.00    +0.000 A 
ATOM     26  F   UNL     1       6.411   3.820  14.526  0.00  0.00    +0.000 F 
ATOM     27  C   UNL     1       7.300   4.688  16.527  0.00  0.00    +0.000 A 
ATOM     28  C   UNL     1       7.122   4.987  17.872  0.00  0.00    +0.000 A 
ATOM     29  F   UNL     1       8.117   5.568  18.552  0.00  0.00    +0.000 F 
ATOM     30  C   UNL     1       5.926   4.703  18.522  0.00  0.00    +0.000 A 
ENDBRANCH  20  23
ENDBRANCH   4  20
TORSDOF 5
ENDMDL
MODEL 4
REMARK VINA RESULT:      -8.9      1.269      2.148
REMARK  Name = 
REMARK  5 active torsions:
REMARK  status: ('A' for Active; 'I' for Inactive)
REMARK    1  A    between atoms: C_2  and  C_21
REMARK    2  A    between atoms: N_3  and  C_4
REMARK    3  A    between atoms: C_7  and  S_8
REMARK    4  A    between atoms: S_8  and  C_11
REMARK    5  A    between atoms: C_23  and  C_24
REMARK                            x       y       z     vdW  Elec       q    Type
REMARK                         _______ _______ _______ _____ _____    ______ ____
ROOT
ATOM      1  C   UNL     1       1.635   7.903  19.810  0.00  0.00    +0.000 A 
ATOM      2  C   UNL     1       1.604   6.807  20.680  0.00  0.00    +0.000 A 
ATOM      3  C   UNL     1       2.141   5.575  20.311  0.00  0.00    +0.000 A 
ATOM      4  C   UNL     1       2.721   5.428  19.055  0.00  0.00    +0.000 A 
ATOM      5  C   UNL     1       2.724   6.494  18.149  0.00  0.00    +0.000 A 
ATOM      6  C   UNL     1       2.171   7.729  18.528  0.00  0.00    +0.000 A 
ENDROOT
BRANCH   1   9
ATOM      7  O   UNL     1      -0.714   8.486  21.428  0.00  0.00    +0.000 OA
ATOM      8  C   UNL     1      -0.046   9.363  20.896  0.00  0.00    +0.000 C 
ATOM      9  N   UNL     1       1.117   9.171  20.171  0.00  0.00    +0.000 N 
ATOM     10  H   UNL     1       1.678   9.983  19.950  0.00  0.00    +0.000 HD
BRANCH   8  11
ATOM     11  C   UNL     1      -0.503  10.779  21.019  0.00  0.00    +0.000 C 
ATOM     12  C   UNL     1       0.524  11.876  21.188  0.00  0.00    +0.000 C 
ATOM     13  C   UNL     1      -0.313  11.458  22.370  0.00  0.00    +0.000 C 
BRANCH  13  14
ATOM     14  C   UNL     1      -1.381  12.355  22.935  0.00  0.00    +0.000 A 
ATOM     15  C   UNL     1      -1.190  13.727  23.140  0.00  0.00    +0.000 A 
ATOM     16  C   UNL     1      -2.184  14.505  23.733  0.00  0.00    +0.000 A 
ATOM     17  C   UNL     1      -3.359  13.886  24.114  0.00  0.00    +0.000 A 
ATOM     18  N   UNL     1      -3.598  12.570  23.942  0.00  0.00    +0.000 NA
ATOM     19  C   UNL     1      -2.607  11.846  23.369  0.00  0.00    +0.000 A 
ENDBRANCH  13  14
ENDBRANCH   8  11
ENDBRANCH   1   9
BRANCH   4  20
ATOM     20  S   UNL     1       3.380   3.838  18.599  0.00  0.00    +0.000 S 
ATOM     21  O   UNL     1       3.652   3.114  19.827  0.00  0.00    +0.000 OA
ATOM     22  O   UNL     1       2.497   3.276  17.598  0.00  0.00    +0.000 OA
BRANCH  20  23
ATOM     23  C   UNL     1       4.945   4.134  17.810  0.00  0.00    +0.000 A 
ATOM     24  C   UNL     1       5.113   3.825  16.457  0.00  0.00    +0.000 A 
ATOM     25  C   UNL     1       6.327   4.123  15.845  0.00  0.00    +0.000 A 
ATOM     26  F   UNL     1       6.499   3.830  14.550  0.00  0.00    +0.000 F 
ATOM     27  C   UNL     1       7.363   4.723  16.551  0.00  0.00    +0.000 A 
ATOM     28  C   UNL     1       7.170   5.035  17.891  0.00  0.00    +0.000 A 
ATOM     29  F   UNL     1       8.155   5.628  18.575  0.00  0.00    +0.000 F 
ATOM     30  C   UNL     1       5.969   4.751  18.532  0.00  0.00    +0.000 A 
ENDBRANCH  20  23
ENDBRANCH   4  20
TORSDOF 5
ENDMDL
MODEL 5
REMARK VINA RESULT:      -8.9      4.782     10.317
REMARK  Name = 
REMARK  5 active torsions:
REMARK  status: ('A' for Active; 'I' for Inactive)
REMARK    1  A    between atoms: C_2  and  C_21
REMARK    2  A    between atoms: N_3  and  C_4
REMARK    3  A    between atoms: C_7  and  S_8
REMARK    4  A    between atoms: S_8  and  C_11
REMARK    5  A    between atoms: C_23  and  C_24
REMARK                            x       y       z     vdW  Elec       q    Type
REMARK                         _______ _______ _______ _____ _____    ______ ____
ROOT
ATOM      1  C   UNL     1       3.044   6.671  18.402  0.00  0.00    +0.000 A 
ATOM      2  C   UNL     1       2.693   7.936  17.916  0.00  0.00    +0.000 A 
ATOM      3  C   UNL     1       1.907   8.808  18.668  0.00  0.00    +0.000 A 
ATOM      4  C   UNL     1       1.464   8.419  19.928  0.00  0.00    +0.000 A 
ATOM      5  C   UNL     1       1.763   7.143  20.419  0.00  0.00    +0.000 A 
ATOM      6  C   UNL     1       2.547   6.268  19.648  0.00  0.00    +0.000 A 
ENDROOT
BRANCH   1   9
ATOM      7  O   UNL     1       5.646   5.594  19.144  0.00  0.00    +0.000 OA
ATOM      8  C   UNL     1       5.118   5.360  18.064  0.00  0.00    +0.000 C 
ATOM      9  N   UNL     1       3.860   5.778  17.667  0.00  0.00    +0.000 N 
ATOM     10  H   UNL     1       3.462   5.360  16.836  0.00  0.00    +0.000 HD
BRANCH   8  11
ATOM     11  C   UNL     1       5.877   4.556  17.061  0.00  0.00    +0.000 C 
ATOM     12  C   UNL     1       7.389   4.617  17.053  0.00  0.00    +0.000 C 
ATOM     13  C   UNL     1       6.615   5.322  15.969  0.00  0.00    +0.000 C 
BRANCH  13  14
ATOM     14  C   UNL     1       6.618   4.823  14.549  0.00  0.00    +0.000 A 
ATOM     15  C   UNL     1       5.693   3.885  14.072  0.00  0.00    +0.000 A 
ATOM     16  C   UNL     1       5.779   3.399  12.768  0.00  0.00    +0.000 A 
ATOM     17  C   UNL     1       6.799   3.866  11.961  0.00  0.00    +0.000 A 
ATOM     18  N   UNL     1       7.717   4.767  12.366  0.00  0.00    +0.000 NA
ATOM     19  C   UNL     1       7.606   5.211  13.641  0.00  0.00    +0.000 A 
ENDBRANCH  13  14
ENDBRANCH   8  11
ENDBRANCH   1   9
BRANCH   4  20
ATOM     20  S   UNL     1       0.444   9.542  20.860  0.00  0.00    +0.000 S 
ATOM     21  O   UNL     1      -0.515   8.742  21.599  0.00  0.00    +0.000 OA
ATOM     22  O   UNL     1       1.330  10.451  21.558  0.00  0.00    +0.000 OA
BRANCH  20  23
ATOM     23  C   UNL     1      -0.474  10.505  19.683  0.00  0.00    +0.000 A 
ATOM     24  C   UNL     1      -0.140  11.845  19.466  0.00  0.00    +0.000 A 
ATOM     25  C   UNL     1      -0.832  12.563  18.496  0.00  0.00    +0.000 A 
ATOM     26  F   UNL     1      -0.520  13.847  18.281  0.00  0.00    +0.000 F 
ATOM     27  C   UNL     1      -1.837  11.971  17.741  0.00  0.00    +0.000 A 
ATOM     28  C   UNL     1      -2.144  10.634  17.962  0.00  0.00    +0.000 A 
ATOM     29  F   UNL     1      -3.099  10.050  17.229  0.00  0.00    +0.000 F 
ATOM     30  C   UNL     1      -1.471   9.889  18.925  0.00  0.00    +0.000 A 
ENDBRANCH  20  23
ENDBRANCH   4  20
TORSDOF 5
ENDMDL
MODEL 6
REMARK VINA RESULT:      -8.9      1.307      1.588
REMARK  Name = 
REMARK  5 active torsions:
REMARK  status: ('A' for Active; 'I' for Inactive)
REMARK    1  A    between atoms: C_2  and  C_21
REMARK    2  A    between atoms: N_3  and  C_4
REMARK    3  A    between atoms: C_7  and  S_8
REMARK    4  A    between atoms: S_8  and  C_11
REMARK    5  A    between atoms: C_23  and  C_24
REMARK                            x       y       z     vdW  Elec       q    Type
REMARK                         _______ _______ _______ _____ _____    ______ ____
ROOT
ATOM      1  C   UNL     1       1.585   7.988  19.849  0.00  0.00    +0.000 A 
ATOM      2  C   UNL     1       1.583   6.889  20.716  0.00  0.00    +0.000 A 
ATOM      3  C   UNL     1       2.123   5.662  20.332  0.00  0.00    +0.000 A 
ATOM      4  C   UNL     1       2.679   5.525  19.065  0.00  0.00    +0.000 A 
ATOM      5  C   UNL     1       2.654   6.595  18.162  0.00  0.00    +0.000 A 
ATOM      6  C   UNL     1       2.098   7.823  18.556  0.00  0.00    +0.000 A 
ENDROOT
BRANCH   1   9
ATOM      7  O   UNL     1      -0.789   8.544  21.439  0.00  0.00    +0.000 OA
ATOM      8  C   UNL     1      -0.111   9.430  20.935  0.00  0.00    +0.000 C 
ATOM      9  N   UNL     1       1.063   9.249  20.226  0.00  0.00    +0.000 N 
ATOM     10  H   UNL     1       1.629  10.065  20.029  0.00  0.00    +0.000 HD
BRANCH   8  11
ATOM     11  C   UNL     1      -0.569  10.844  21.076  0.00  0.00    +0.000 C 
ATOM     12  C   UNL     1       0.459  11.939  21.259  0.00  0.00    +0.000 C 
ATOM     13  C   UNL     1      -0.378  11.505  22.436  0.00  0.00    +0.000 C 
BRANCH  13  14
ATOM     14  C   UNL     1      -1.446  12.395  23.013  0.00  0.00    +0.000 A 
ATOM     15  C   UNL     1      -1.242  13.756  23.271  0.00  0.00    +0.000 A 
ATOM     16  C   UNL     1      -2.238  14.525  23.873  0.00  0.00    +0.000 A 
ATOM     17  C   UNL     1      -3.427  13.906  24.210  0.00  0.00    +0.000 A 
ATOM     18  N   UNL     1      -3.679  12.601  23.986  0.00  0.00    +0.000 NA
ATOM     19  C   UNL     1      -2.685  11.885  23.406  0.00  0.00    +0.000 A 
ENDBRANCH  13  14
ENDBRANCH   8  11
ENDBRANCH   1   9
BRANCH   4  20
ATOM     20  S   UNL     1       3.344   3.943  18.589  0.00  0.00    +0.000 S 
ATOM     21  O   UNL     1       3.609   3.202  19.809  0.00  0.00    +0.000 OA
ATOM     22  O   UNL     1       2.467   3.394  17.575  0.00  0.00    +0.000 OA
BRANCH  20  23
ATOM     23  C   UNL     1       4.913   4.254  17.814  0.00  0.00    +0.000 A 
ATOM     24  C   UNL     1       5.969   4.779  18.564  0.00  0.00    +0.000 A 
ATOM     25  C   UNL     1       7.206   4.956  17.952  0.00  0.00    +0.000 A 
ATOM     26  F   UNL     1       8.224   5.460  18.661  0.00  0.00    +0.000 F 
ATOM     27  C   UNL     1       7.407   4.616  16.620  0.00  0.00    +0.000 A 
ATOM     28  C   UNL     1       6.348   4.082  15.896  0.00  0.00    +0.000 A 
ATOM     29  F   UNL     1       6.535   3.736  14.617  0.00  0.00    +0.000 F 
ATOM     30  C   UNL     1       5.099   3.892  16.478  0.00  0.00    +0.000 A 
ENDBRANCH  20  23
ENDBRANCH   4  20
TORSDOF 5
ENDMDL
MODEL 7
REMARK VINA RESULT:      -8.9      2.708      3.242
REMARK  Name = 
REMARK  5 active torsions:
REMARK  status: ('A' for Active; 'I' for Inactive)
REMARK    1  A    between atoms: C_2  and  C_21
REMARK    2  A    between atoms: N_3  and  C_4
REMARK    3  A    between atoms: C_7  and  S_8
REMARK    4  A    between atoms: S_8  and  C_11
REMARK    5  A    between atoms: C_23  and  C_24
REMARK                            x       y       z     vdW  Elec       q    Type
REMARK                         _______ _______ _______ _____ _____    ______ ____
ROOT
ATOM      1  C   UNL     1       1.570   8.672  19.731  0.00  0.00    +0.000 A 
ATOM      2  C   UNL     1       1.511   7.644  20.679  0.00  0.00    +0.000 A 
ATOM      3  C   UNL     1       1.976   6.362  20.388  0.00  0.00    +0.000 A 
ATOM      4  C   UNL     1       2.512   6.096  19.132  0.00  0.00    +0.000 A 
ATOM      5  C   UNL     1       2.541   7.093  18.151  0.00  0.00    +0.000 A 
ATOM      6  C   UNL     1       2.061   8.378  18.452  0.00  0.00    +0.000 A 
ENDROOT
BRANCH   1   9
ATOM      7  O   UNL     1      -1.035   9.843  19.166  0.00  0.00    +0.000 OA
ATOM      8  C   UNL     1      -0.114  10.486  19.653  0.00  0.00    +0.000 C 
ATOM      9  N   UNL     1       1.125   9.986  20.011  0.00  0.00    +0.000 N 
ATOM     10  H   UNL     1       1.726  10.570  20.579  0.00  0.00    +0.000 HD
BRANCH   8  11
ATOM     11  C   UNL     1      -0.314  11.946  19.891  0.00  0.00    +0.000 C 
ATOM     12  C   UNL     1      -1.567  12.616  19.371  0.00  0.00    +0.000 C 
ATOM     13  C   UNL     1      -0.252  12.865  18.676  0.00  0.00    +0.000 C 
BRANCH  13  14
ATOM     14  C   UNL     1       0.441  14.198  18.757  0.00  0.00    +0.000 A 
ATOM     15  C   UNL     1      -0.253  15.409  18.874  0.00  0.00    +0.000 A 
ATOM     16  C   UNL     1       0.430  16.625  18.874  0.00  0.00    +0.000 A 
ATOM     17  C   UNL     1       1.806  16.603  18.753  0.00  0.00    +0.000 A 
ATOM     18  N   UNL     1       2.526  15.469  18.637  0.00  0.00    +0.000 NA
ATOM     19  C   UNL     1       1.828  14.308  18.635  0.00  0.00    +0.000 A 
ENDBRANCH  13  14
ENDBRANCH   8  11
ENDBRANCH   1   9
BRANCH   4  20
ATOM     20  S   UNL     1       3.080   4.447  18.777  0.00  0.00    +0.000 S 
ATOM     21  O   UNL     1       3.227   3.757  20.046  0.00  0.00    +0.000 OA
ATOM     22  O   UNL     1       2.217   3.906  17.746  0.00  0.00    +0.000 OA
BRANCH  20  23
ATOM     23  C   UNL     1       4.704   4.599  18.074  0.00  0.00    +0.000 A 
ATOM     24  C   UNL     1       5.750   5.124  18.840  0.00  0.00    +0.000 A 
ATOM     25  C   UNL     1       7.026   5.177  18.290  0.00  0.00    +0.000 A 
ATOM     26  F   UNL     1       8.034   5.680  19.015  0.00  0.00    +0.000 F 
ATOM     27  C   UNL     1       7.278   4.715  17.004  0.00  0.00    +0.000 A 
ATOM     28  C   UNL     1       6.228   4.183  16.265  0.00  0.00    +0.000 A 
ATOM     29  F   UNL     1       6.463   3.720  15.031  0.00  0.00    +0.000 F 
ATOM     30  C   UNL     1       4.940   4.116  16.785  0.00  0.00    +0.000 A 
ENDBRANCH  20  23
ENDBRANCH   4  20
TORSDOF 5
ENDMDL
MODEL 8
REMARK VINA RESULT:      -8.9      0.521      1.055
REMARK  Name = 
REMARK  5 active torsions:
REMARK  status: ('A' for Active; 'I' for Inactive)
REMARK    1  A    between atoms: C_2  and  C_21
REMARK    2  A    between atoms: N_3  and  C_4
REMARK    3  A    between atoms: C_7  and  S_8
REMARK    4  A    between atoms: S_8  and  C_11
REMARK    5  A    between atoms: C_23  and  C_24
REMARK                            x       y       z     vdW  Elec       q    Type
REMARK                         _______ _______ _______ _____ _____    ______ ____
ROOT
ATOM      1  C   UNL     1       1.803   6.895  20.437  0.00  0.00    +0.000 A 
ATOM      2  C   UNL     1       2.448   7.132  19.217  0.00  0.00    +0.000 A 
ATOM      3  C   UNL     1       2.875   6.080  18.408  0.00  0.00    +0.000 A 
ATOM      4  C   UNL     1       2.656   4.769  18.815  0.00  0.00    +0.000 A 
ATOM      5  C   UNL     1       2.055   4.504  20.051  0.00  0.00    +0.000 A 
ATOM      6  C   UNL     1       1.638   5.571  20.863  0.00  0.00    +0.000 A 
ENDROOT
BRANCH   1   9
ATOM      7  O   UNL     1       0.730   9.476  19.624  0.00  0.00    +0.000 OA
ATOM      8  C   UNL     1       0.900   9.172  20.798  0.00  0.00    +0.000 C 
ATOM      9  N   UNL     1       1.340   7.946  21.264  0.00  0.00    +0.000 N 
ATOM     10  H   UNL     1       1.253   7.756  22.254  0.00  0.00    +0.000 HD
BRANCH   8  11
ATOM     11  C   UNL     1       0.619  10.198  21.846  0.00  0.00    +0.000 C 
ATOM     12  C   UNL     1      -0.288   9.844  23.004  0.00  0.00    +0.000 C 
ATOM     13  C   UNL     1      -0.798  10.753  21.915  0.00  0.00    +0.000 C 
BRANCH  13  14
ATOM     14  C   UNL     1      -1.037  12.219  22.161  0.00  0.00    +0.000 A 
ATOM     15  C   UNL     1      -1.558  12.712  23.365  0.00  0.00    +0.000 A 
ATOM     16  C   UNL     1      -1.829  14.071  23.521  0.00  0.00    +0.000 A 
ATOM     17  C   UNL     1      -1.572  14.915  22.457  0.00  0.00    +0.000 A 
ATOM     18  N   UNL     1      -1.073  14.498  21.277  0.00  0.00    +0.000 NA
ATOM     19  C   UNL     1      -0.828  13.170  21.160  0.00  0.00    +0.000 A 
ENDBRANCH  13  14
ENDBRANCH   8  11
ENDBRANCH   1   9
BRANCH   4  20
ATOM     20  S   UNL     1       3.231   3.443  17.775  0.00  0.00    +0.000 S 
ATOM     21  O   UNL     1       3.487   2.300  18.633  0.00  0.00    +0.000 OA
ATOM     22  O   UNL     1       2.304   3.332  16.666  0.00  0.00    +0.000 OA
BRANCH  20  23
ATOM     23  C   UNL     1       4.794   3.953  17.103  0.00  0.00    +0.000 A 
ATOM     24  C   UNL     1       5.855   4.262  17.960  0.00  0.00    +0.000 A 
ATOM     25  C   UNL     1       7.087   4.600  17.411  0.00  0.00    +0.000 A 
ATOM     26  F   UNL     1       8.109   4.898  18.224  0.00  0.00    +0.000 F 
ATOM     27  C   UNL     1       7.281   4.628  16.035  0.00  0.00    +0.000 A 
ATOM     28  C   UNL     1       6.218   4.304  15.201  0.00  0.00    +0.000 A 
ATOM     29  F   UNL     1       6.398   4.313  13.875  0.00  0.00    +0.000 F 
ATOM     30  C   UNL     1       4.973   3.963  15.718  0.00  0.00    +0.000 A 
ENDBRANCH  20  23
ENDBRANCH   4  20
TORSDOF 5
ENDMDL
MODEL 9
REMARK VINA RESULT:      -8.8      2.701      3.547
REMARK  Name = 
REMARK  5 active torsions:
REMARK  status: ('A' for Active; 'I' for Inactive)
REMARK    1  A    between atoms: C_2  and  C_21
REMARK    2  A    between atoms: N_3  and  C_4
REMARK    3  A    between atoms: C_7  and  S_8
REMARK    4  A    between atoms: S_8  and  C_11
REMARK    5  A    between atoms: C_23  and  C_24
REMARK                            x       y       z     vdW  Elec       q    Type
REMARK                         _______ _______ _______ _____ _____    ______ ____
ROOT
ATOM      1  C   UNL     1       1.580   8.538  19.754  0.00  0.00    +0.000 A 
ATOM      2  C   UNL     1       1.461   7.507  20.693  0.00  0.00    +0.000 A 
ATOM      3  C   UNL     1       1.929   6.223  20.422  0.00  0.00    +0.000 A 
ATOM      4  C   UNL     1       2.531   5.957  19.196  0.00  0.00    +0.000 A 
ATOM      5  C   UNL     1       2.622   6.958  18.222  0.00  0.00    +0.000 A 
ATOM      6  C   UNL     1       2.137   8.246  18.502  0.00  0.00    +0.000 A 
ENDROOT
BRANCH   1   9
ATOM      7  O   UNL     1      -0.987   9.730  19.071  0.00  0.00    +0.000 OA
ATOM      8  C   UNL     1      -0.085  10.365  19.602  0.00  0.00    +0.000 C 
ATOM      9  N   UNL     1       1.133   9.856  20.016  0.00  0.00    +0.000 N 
ATOM     10  H   UNL     1       1.711  10.434  20.612  0.00  0.00    +0.000 HD
BRANCH   8  11
ATOM     11  C   UNL     1      -0.285  11.827  19.833  0.00  0.00    +0.000 C 
ATOM     12  C   UNL     1      -1.517  12.503  19.272  0.00  0.00    +0.000 C 
ATOM     13  C   UNL     1      -0.179  12.744  18.621  0.00  0.00    +0.000 C 
BRANCH  13  14
ATOM     14  C   UNL     1       0.518  14.074  18.724  0.00  0.00    +0.000 A 
ATOM     15  C   UNL     1      -0.170  15.282  18.897  0.00  0.00    +0.000 A 
ATOM     16  C   UNL     1       0.514  16.496  18.916  0.00  0.00    +0.000 A 
ATOM     17  C   UNL     1       1.886  16.477  18.756  0.00  0.00    +0.000 A 
ATOM     18  N   UNL     1       2.601  15.347  18.586  0.00  0.00    +0.000 NA
ATOM     19  C   UNL     1       1.902  14.187  18.566  0.00  0.00    +0.000 A 
ENDBRANCH  13  14
ENDBRANCH   8  11
ENDBRANCH   1   9
BRANCH   4  20
ATOM     20  S   UNL     1       3.102   4.304  18.864  0.00  0.00    +0.000 S 
ATOM     21  O   UNL     1       3.235   3.628  20.142  0.00  0.00    +0.000 OA
ATOM     22  O   UNL     1       2.250   3.752  17.830  0.00  0.00    +0.000 OA
BRANCH  20  23
ATOM     23  C   UNL     1       4.734   4.449  18.177  0.00  0.00    +0.000 A 
ATOM     24  C   UNL     1       4.972   4.062  16.855  0.00  0.00    +0.000 A 
ATOM     25  C   UNL     1       6.243   4.242  16.319  0.00  0.00    +0.000 A 
ATOM     26  F   UNL     1       6.480   3.873  15.054  0.00  0.00    +0.000 F 
ATOM     27  C   UNL     1       7.270   4.801  17.069  0.00  0.00    +0.000 A 
ATOM     28  C   UNL     1       7.009   5.193  18.377  0.00  0.00    +0.000 A 
ATOM     29  F   UNL     1       7.987   5.748  19.103  0.00  0.00    +0.000 F 
ATOM     30  C   UNL     1       5.750   5.027  18.943  0.00  0.00    +0.000 A 
ENDBRANCH  20  23
ENDBRANCH   4  20
TORSDOF 5
ENDMDL
