MODEL 1
REMARK VINA RESULT:      -9.1      0.000      0.000
REMARK  Name = 
REMARK  5 active torsions:
REMARK  status: ('A' for Active; 'I' for Inactive)
REMARK    1  A    between atoms: C_1  and  O_2
REMARK    2  A    between atoms: O_2  and  C_3
REMARK    3  A    between atoms: C_7  and  C_8
REMARK    4  A    between atoms: N_14  and  N_15
REMARK    5  A    between atoms: N_15  and  C_16
REMARK                            x       y       z     vdW  Elec       q    Type
REMARK                         _______ _______ _______ _____ _____    ______ ____
ROOT
ATOM      1  C   UNL     1       6.933   4.591  16.176  0.00  0.00    +0.000 C 
ATOM      2  N   UNL     1       7.944   4.241  16.931  0.00  0.00    +0.000 NA
ATOM      3  N   UNL     1       7.585   4.471  18.253  0.00  0.00    +0.000 N 
ATOM      4  C   UNL     1       6.327   4.997  18.438  0.00  0.00    +0.000 C 
ATOM      5  O   UNL     1       5.755   5.368  19.437  0.00  0.00    +0.000 OA
ATOM      6  C   UNL     1       5.797   5.031  17.039  0.00  0.00    +0.000 C 
ATOM      7  N   UNL     1       4.606   5.290  16.608  0.00  0.00    +0.000 NA
ATOM      8  H   UNL     1       8.256   4.324  18.999  0.00  0.00    +0.000 HD
ENDROOT
BRANCH   1  13
ATOM      9  C   UNL     1       6.145   3.535  12.659  0.00  0.00    +0.000 A 
ATOM     10  C   UNL     1       6.991   4.377  11.930  0.00  0.00    +0.000 A 
ATOM     11  C   UNL     1       7.802   5.307  12.580  0.00  0.00    +0.000 A 
ATOM     12  C   UNL     1       7.777   5.401  13.970  0.00  0.00    +0.000 A 
ATOM     13  C   UNL     1       6.935   4.563  14.709  0.00  0.00    +0.000 A 
ATOM     14  C   UNL     1       6.120   3.630  14.052  0.00  0.00    +0.000 A 
BRANCH   9  16
ATOM     15  C   UNL     1       4.199   3.153  11.346  0.00  0.00    +0.000 C 
ATOM     16  O   UNL     1       5.416   2.665  11.899  0.00  0.00    +0.000 OA
ENDBRANCH   9  16
ENDBRANCH   1  13
BRANCH   7  17
ATOM     17  N   UNL     1       3.668   5.625  17.524  0.00  0.00    +0.000 N 
ATOM     18  H   UNL     1       3.536   6.580  17.877  0.00  0.00    +0.000 HD
BRANCH  17  19
ATOM     19  C   UNL     1       2.829   4.628  18.058  0.00  0.00    +0.000 A 
ATOM     20  C   UNL     1       2.745   3.360  17.463  0.00  0.00    +0.000 A 
ATOM     21  C   UNL     1       1.913   2.365  17.987  0.00  0.00    +0.000 A 
ATOM     22  C   UNL     1       1.158   2.617  19.128  0.00  0.00    +0.000 A 
ATOM     23  C   UNL     1       1.234   3.865  19.744  0.00  0.00    +0.000 A 
ATOM     24  C   UNL     1       2.064   4.860  19.216  0.00  0.00    +0.000 A 
ATOM     25 CL   UNL     1       2.120   6.389  20.024  0.00  0.00    +0.000 Cl
ENDBRANCH  17  19
ENDBRANCH   7  17
TORSDOF 4
ENDMDL
MODEL 2
REMARK VINA RESULT:      -8.3      3.073      4.390
REMARK  Name = 
REMARK  5 active torsions:
REMARK  status: ('A' for Active; 'I' for Inactive)
REMARK    1  A    between atoms: C_1  and  O_2
REMARK    2  A    between atoms: O_2  and  C_3
REMARK    3  A    between atoms: C_7  and  C_8
REMARK    4  A    between atoms: N_14  and  N_15
REMARK    5  A    between atoms: N_15  and  C_16
REMARK                            x       y       z     vdW  Elec       q    Type
REMARK                         _______ _______ _______ _____ _____    ______ ____
ROOT
ATOM      1  C   UNL     1       4.223   3.783  18.756  0.00  0.00    +0.000 C 
ATOM      2  N   UNL     1       3.952   2.563  19.145  0.00  0.00    +0.000 NA
ATOM      3  N   UNL     1       3.063   2.646  20.210  0.00  0.00    +0.000 N 
ATOM      4  C   UNL     1       2.715   3.922  20.587  0.00  0.00    +0.000 C 
ATOM      5  O   UNL     1       2.033   4.328  21.500  0.00  0.00    +0.000 OA
ATOM      6  C   UNL     1       3.428   4.752  19.566  0.00  0.00    +0.000 C 
ATOM      7  N   UNL     1       3.352   6.020  19.327  0.00  0.00    +0.000 NA
ATOM      8  H   UNL     1       2.773   1.807  20.701  0.00  0.00    +0.000 HD
ENDROOT
BRANCH   1  13
ATOM      9  C   UNL     1       5.645   4.337  15.324  0.00  0.00    +0.000 A 
ATOM     10  C   UNL     1       6.971   4.656  15.631  0.00  0.00    +0.000 A 
ATOM     11  C   UNL     1       7.401   4.716  16.956  0.00  0.00    +0.000 A 
ATOM     12  C   UNL     1       6.505   4.451  17.990  0.00  0.00    +0.000 A 
ATOM     13  C   UNL     1       5.176   4.130  17.694  0.00  0.00    +0.000 A 
ATOM     14  C   UNL     1       4.747   4.073  16.360  0.00  0.00    +0.000 A 
BRANCH   9  16
ATOM     15  C   UNL     1       6.271   3.591  13.155  0.00  0.00    +0.000 C 
ATOM     16  O   UNL     1       5.363   4.302  13.987  0.00  0.00    +0.000 OA
ENDBRANCH   9  16
ENDBRANCH   1  13
BRANCH   7  17
ATOM     17  N   UNL     1       2.544   6.760  20.120  0.00  0.00    +0.000 N 
ATOM     18  H   UNL     1       2.311   6.505  21.088  0.00  0.00    +0.000 HD
BRANCH  17  19
ATOM     19  C   UNL     1       1.956   7.934  19.613  0.00  0.00    +0.000 A 
ATOM     20  C   UNL     1       2.053   8.261  18.251  0.00  0.00    +0.000 A 
ATOM     21  C   UNL     1       1.472   9.426  17.740  0.00  0.00    +0.000 A 
ATOM     22  C   UNL     1       0.770  10.282  18.582  0.00  0.00    +0.000 A 
ATOM     23  C   UNL     1       0.650   9.974  19.935  0.00  0.00    +0.000 A 
ATOM     24  C   UNL     1       1.234   8.810  20.446  0.00  0.00    +0.000 A 
ATOM     25 CL   UNL     1       1.051   8.477  22.134  0.00  0.00    +0.000 Cl
ENDBRANCH  17  19
ENDBRANCH   7  17
TORSDOF 4
ENDMDL
MODEL 3
REMARK VINA RESULT:      -8.2      3.218      4.910
REMARK  Name = 
REMARK  5 active torsions:
REMARK  status: ('A' for Active; 'I' for Inactive)
REMARK    1  A    between atoms: C_1  and  O_2
REMARK    2  A    between atoms: O_2  and  C_3
REMARK    3  A    between atoms: C_7  and  C_8
REMARK    4  A    between atoms: N_14  and  N_15
REMARK    5  A    between atoms: N_15  and  C_16
REMARK                            x       y       z     vdW  Elec       q    Type
REMARK                         _______ _______ _______ _____ _____    ______ ____
ROOT
ATOM      1  C   UNL     1       4.327   3.917  18.649  0.00  0.00    +0.000 C 
ATOM      2  N   UNL     1       4.186   2.699  19.106  0.00  0.00    +0.000 NA
ATOM      3  N   UNL     1       3.353   2.756  20.217  0.00  0.00    +0.000 N 
ATOM      4  C   UNL     1       2.913   4.014  20.557  0.00  0.00    +0.000 C 
ATOM      5  O   UNL     1       2.248   4.403  21.490  0.00  0.00    +0.000 OA
ATOM      6  C   UNL     1       3.493   4.851  19.461  0.00  0.00    +0.000 C 
ATOM      7  N   UNL     1       3.291   6.095  19.171  0.00  0.00    +0.000 NA
ATOM      8  H   UNL     1       3.166   1.920  20.760  0.00  0.00    +0.000 HD
ENDROOT
BRANCH   1  13
ATOM      9  C   UNL     1       6.880   5.774  16.614  0.00  0.00    +0.000 A 
ATOM     10  C   UNL     1       6.752   5.136  15.377  0.00  0.00    +0.000 A 
ATOM     11  C   UNL     1       5.853   4.083  15.207  0.00  0.00    +0.000 A 
ATOM     12  C   UNL     1       5.066   3.661  16.278  0.00  0.00    +0.000 A 
ATOM     13  C   UNL     1       5.185   4.293  17.520  0.00  0.00    +0.000 A 
ATOM     14  C   UNL     1       6.092   5.350  17.686  0.00  0.00    +0.000 A 
BRANCH   9  16
ATOM     15  C   UNL     1       7.669   7.741  17.692  0.00  0.00    +0.000 C 
ATOM     16  O   UNL     1       7.787   6.795  16.637  0.00  0.00    +0.000 OA
ENDBRANCH   9  16
ENDBRANCH   1  13
BRANCH   7  17
ATOM     17  N   UNL     1       2.464   6.800  19.977  0.00  0.00    +0.000 N 
ATOM     18  H   UNL     1       2.169   6.479  20.907  0.00  0.00    +0.000 HD
BRANCH  17  19
ATOM     19  C   UNL     1       1.944   8.032  19.535  0.00  0.00    +0.000 A 
ATOM     20  C   UNL     1       2.073   8.430  18.195  0.00  0.00    +0.000 A 
ATOM     21  C   UNL     1       1.560   9.653  17.749  0.00  0.00    +0.000 A 
ATOM     22  C   UNL     1       0.895  10.495  18.634  0.00  0.00    +0.000 A 
ATOM     23  C   UNL     1       0.744  10.116  19.966  0.00  0.00    +0.000 A 
ATOM     24  C   UNL     1       1.261   8.895  20.412  0.00  0.00    +0.000 A 
ATOM     25 CL   UNL     1       1.042   8.474  22.077  0.00  0.00    +0.000 Cl
ENDBRANCH  17  19
ENDBRANCH   7  17
TORSDOF 4
ENDMDL
MODEL 4
REMARK VINA RESULT:      -8.2      1.844      2.574
REMARK  Name = 
REMARK  5 active torsions:
REMARK  status: ('A' for Active; 'I' for Inactive)
REMARK    1  A    between atoms: C_1  and  O_2
REMARK    2  A    between atoms: O_2  and  C_3
REMARK    3  A    between atoms: C_7  and  C_8
REMARK    4  A    between atoms: N_14  and  N_15
REMARK    5  A    between atoms: N_15  and  C_16
REMARK                            x       y       z     vdW  Elec       q    Type
REMARK                         _______ _______ _______ _____ _____    ______ ____
ROOT
ATOM      1  C   UNL     1       6.404   4.322  14.068  0.00  0.00    +0.000 C 
ATOM      2  N   UNL     1       7.382   5.180  13.923  0.00  0.00    +0.000 NA
ATOM      3  N   UNL     1       7.654   5.728  15.171  0.00  0.00    +0.000 N 
ATOM      4  C   UNL     1       6.861   5.272  16.198  0.00  0.00    +0.000 C 
ATOM      5  O   UNL     1       6.798   5.595  17.362  0.00  0.00    +0.000 OA
ATOM      6  C   UNL     1       6.026   4.239  15.509  0.00  0.00    +0.000 C 
ATOM      7  N   UNL     1       5.203   3.373  16.003  0.00  0.00    +0.000 NA
ATOM      8  H   UNL     1       8.342   6.467  15.266  0.00  0.00    +0.000 HD
ENDROOT
BRANCH   1  13
ATOM      9  C   UNL     1       5.892   1.747  11.383  0.00  0.00    +0.000 A 
ATOM     10  C   UNL     1       4.697   2.191  10.809  0.00  0.00    +0.000 A 
ATOM     11  C   UNL     1       4.041   3.316  11.310  0.00  0.00    +0.000 A 
ATOM     12  C   UNL     1       4.580   4.011  12.390  0.00  0.00    +0.000 A 
ATOM     13  C   UNL     1       5.776   3.576  12.972  0.00  0.00    +0.000 A 
ATOM     14  C   UNL     1       6.431   2.444  12.466  0.00  0.00    +0.000 A 
BRANCH   9  16
ATOM     15  C   UNL     1       6.066  -0.624  11.319  0.00  0.00    +0.000 C 
ATOM     16  O   UNL     1       6.433   0.643  10.787  0.00  0.00    +0.000 OA
ENDBRANCH   9  16
ENDBRANCH   1  13
BRANCH   7  17
ATOM     17  N   UNL     1       5.003   3.389  17.341  0.00  0.00    +0.000 N 
ATOM     18  H   UNL     1       5.764   3.470  18.027  0.00  0.00    +0.000 HD
BRANCH  17  19
ATOM     19  C   UNL     1       3.697   3.264  17.852  0.00  0.00    +0.000 A 
ATOM     20  C   UNL     1       3.165   2.005  18.173  0.00  0.00    +0.000 A 
ATOM     21  C   UNL     1       1.868   1.873  18.679  0.00  0.00    +0.000 A 
ATOM     22  C   UNL     1       1.082   3.002  18.888  0.00  0.00    +0.000 A 
ATOM     23  C   UNL     1       1.593   4.263  18.588  0.00  0.00    +0.000 A 
ATOM     24  C   UNL     1       2.889   4.394  18.078  0.00  0.00    +0.000 A 
ATOM     25 CL   UNL     1       3.472   5.985  17.727  0.00  0.00    +0.000 Cl
ENDBRANCH  17  19
ENDBRANCH   7  17
TORSDOF 4
ENDMDL
MODEL 5
REMARK VINA RESULT:      -8.1      1.775      2.500
REMARK  Name = 
REMARK  5 active torsions:
REMARK  status: ('A' for Active; 'I' for Inactive)
REMARK    1  A    between atoms: C_1  and  O_2
REMARK    2  A    between atoms: O_2  and  C_3
REMARK    3  A    between atoms: C_7  and  C_8
REMARK    4  A    between atoms: N_14  and  N_15
REMARK    5  A    between atoms: N_15  and  C_16
REMARK                            x       y       z     vdW  Elec       q    Type
REMARK                         _______ _______ _______ _____ _____    ______ ____
ROOT
ATOM      1  C   UNL     1       6.669   4.365  13.944  0.00  0.00    +0.000 C 
ATOM      2  N   UNL     1       7.609   5.268  13.823  0.00  0.00    +0.000 NA
ATOM      3  N   UNL     1       7.796   5.854  15.069  0.00  0.00    +0.000 N 
ATOM      4  C   UNL     1       6.980   5.380  16.070  0.00  0.00    +0.000 C 
ATOM      5  O   UNL     1       6.848   5.722  17.223  0.00  0.00    +0.000 OA
ATOM      6  C   UNL     1       6.230   4.292  15.368  0.00  0.00    +0.000 C 
ATOM      7  N   UNL     1       5.429   3.396  15.844  0.00  0.00    +0.000 NA
ATOM      8  H   UNL     1       8.442   6.629  15.178  0.00  0.00    +0.000 HD
ENDROOT
BRANCH   1  13
ATOM      9  C   UNL     1       4.285   3.091  11.336  0.00  0.00    +0.000 A 
ATOM     10  C   UNL     1       5.002   2.005  10.824  0.00  0.00    +0.000 A 
ATOM     11  C   UNL     1       6.274   1.699  11.309  0.00  0.00    +0.000 A 
ATOM     12  C   UNL     1       6.839   2.478  12.317  0.00  0.00    +0.000 A 
ATOM     13  C   UNL     1       6.130   3.566  12.837  0.00  0.00    +0.000 A 
ATOM     14  C   UNL     1       4.852   3.871  12.346  0.00  0.00    +0.000 A 
BRANCH   9  16
ATOM     15  C   UNL     1       2.972   4.105   9.633  0.00  0.00    +0.000 C 
ATOM     16  O   UNL     1       3.049   3.269  10.781  0.00  0.00    +0.000 OA
ENDBRANCH   9  16
ENDBRANCH   1  13
BRANCH   7  17
ATOM     17  N   UNL     1       5.168   3.429  17.171  0.00  0.00    +0.000 N 
ATOM     18  H   UNL     1       5.898   3.509  17.890  0.00  0.00    +0.000 HD
BRANCH  17  19
ATOM     19  C   UNL     1       3.839   3.325  17.623  0.00  0.00    +0.000 A 
ATOM     20  C   UNL     1       3.262   2.073  17.888  0.00  0.00    +0.000 A 
ATOM     21  C   UNL     1       1.942   1.962  18.334  0.00  0.00    +0.000 A 
ATOM     22  C   UNL     1       1.175   3.104  18.537  0.00  0.00    +0.000 A 
ATOM     23  C   UNL     1       1.729   4.359  18.292  0.00  0.00    +0.000 A 
ATOM     24  C   UNL     1       3.049   4.469  17.842  0.00  0.00    +0.000 A 
ATOM     25 CL   UNL     1       3.685   6.053  17.556  0.00  0.00    +0.000 Cl
ENDBRANCH  17  19
ENDBRANCH   7  17
TORSDOF 4
ENDMDL
MODEL 6
REMARK VINA RESULT:      -8.1      3.170      5.355
REMARK  Name = 
REMARK  5 active torsions:
REMARK  status: ('A' for Active; 'I' for Inactive)
REMARK    1  A    between atoms: C_1  and  O_2
REMARK    2  A    between atoms: O_2  and  C_3
REMARK    3  A    between atoms: C_7  and  C_8
REMARK    4  A    between atoms: N_14  and  N_15
REMARK    5  A    between atoms: N_15  and  C_16
REMARK                            x       y       z     vdW  Elec       q    Type
REMARK                         _______ _______ _______ _____ _____    ______ ____
ROOT
ATOM      1  C   UNL     1       3.310   3.789  18.204  0.00  0.00    +0.000 C 
ATOM      2  N   UNL     1       2.573   2.714  18.089  0.00  0.00    +0.000 NA
ATOM      3  N   UNL     1       1.458   2.876  18.902  0.00  0.00    +0.000 N 
ATOM      4  C   UNL     1       1.410   4.057  19.605  0.00  0.00    +0.000 C 
ATOM      5  O   UNL     1       0.626   4.463  20.433  0.00  0.00    +0.000 OA
ATOM      6  C   UNL     1       2.629   4.765  19.104  0.00  0.00    +0.000 C 
ATOM      7  N   UNL     1       3.021   5.982  19.297  0.00  0.00    +0.000 NA
ATOM      8  H   UNL     1       0.786   2.123  19.006  0.00  0.00    +0.000 HD
ENDROOT
BRANCH   1  13
ATOM      9  C   UNL     1       6.966   4.529  17.761  0.00  0.00    +0.000 A 
ATOM     10  C   UNL     1       7.080   4.491  16.368  0.00  0.00    +0.000 A 
ATOM     11  C   UNL     1       5.974   4.201  15.570  0.00  0.00    +0.000 A 
ATOM     12  C   UNL     1       4.737   3.949  16.161  0.00  0.00    +0.000 A 
ATOM     13  C   UNL     1       4.611   3.985  17.553  0.00  0.00    +0.000 A 
ATOM     14  C   UNL     1       5.727   4.276  18.352  0.00  0.00    +0.000 A 
BRANCH   9  16
ATOM     15  C   UNL     1       8.046   5.837  19.426  0.00  0.00    +0.000 C 
ATOM     16  O   UNL     1       8.123   4.837  18.418  0.00  0.00    +0.000 OA
ENDBRANCH   9  16
ENDBRANCH   1  13
BRANCH   7  17
ATOM     17  N   UNL     1       2.264   6.764  20.102  0.00  0.00    +0.000 N 
ATOM     18  H   UNL     1       1.961   6.483  21.043  0.00  0.00    +0.000 HD
BRANCH  17  19
ATOM     19  C   UNL     1       1.831   8.023  19.643  0.00  0.00    +0.000 A 
ATOM     20  C   UNL     1       2.049   8.421  18.315  0.00  0.00    +0.000 A 
ATOM     21  C   UNL     1       1.623   9.670  17.852  0.00  0.00    +0.000 A 
ATOM     22  C   UNL     1       0.959  10.542  18.709  0.00  0.00    +0.000 A 
ATOM     23  C   UNL     1       0.720  10.164  20.029  0.00  0.00    +0.000 A 
ATOM     24  C   UNL     1       1.150   8.916  20.491  0.00  0.00    +0.000 A 
ATOM     25 CL   UNL     1       0.824   8.499  22.139  0.00  0.00    +0.000 Cl
ENDBRANCH  17  19
ENDBRANCH   7  17
TORSDOF 4
ENDMDL
MODEL 7
REMARK VINA RESULT:      -8.1      2.075      2.701
REMARK  Name = 
REMARK  5 active torsions:
REMARK  status: ('A' for Active; 'I' for Inactive)
REMARK    1  A    between atoms: C_1  and  O_2
REMARK    2  A    between atoms: O_2  and  C_3
REMARK    3  A    between atoms: C_7  and  C_8
REMARK    4  A    between atoms: N_14  and  N_15
REMARK    5  A    between atoms: N_15  and  C_16
REMARK                            x       y       z     vdW  Elec       q    Type
REMARK                         _______ _______ _______ _____ _____    ______ ____
ROOT
ATOM      1  C   UNL     1       6.439   4.369  14.202  0.00  0.00    +0.000 C 
ATOM      2  N   UNL     1       7.407   5.240  14.068  0.00  0.00    +0.000 NA
ATOM      3  N   UNL     1       7.688   5.759  15.326  0.00  0.00    +0.000 N 
ATOM      4  C   UNL     1       6.912   5.269  16.350  0.00  0.00    +0.000 C 
ATOM      5  O   UNL     1       6.859   5.561  17.523  0.00  0.00    +0.000 OA
ATOM      6  C   UNL     1       6.079   4.245  15.645  0.00  0.00    +0.000 C 
ATOM      7  N   UNL     1       5.271   3.357  16.126  0.00  0.00    +0.000 NA
ATOM      8  H   UNL     1       8.369   6.502  15.432  0.00  0.00    +0.000 HD
ENDROOT
BRANCH   1  13
ATOM      9  C   UNL     1       5.927   1.865  11.450  0.00  0.00    +0.000 A 
ATOM     10  C   UNL     1       4.715   2.305  10.909  0.00  0.00    +0.000 A 
ATOM     11  C   UNL     1       4.048   3.402  11.453  0.00  0.00    +0.000 A 
ATOM     12  C   UNL     1       4.593   4.075  12.546  0.00  0.00    +0.000 A 
ATOM     13  C   UNL     1       5.806   3.644  13.094  0.00  0.00    +0.000 A 
ATOM     14  C   UNL     1       6.472   2.539  12.545  0.00  0.00    +0.000 A 
BRANCH   9  16
ATOM     15  C   UNL     1       6.136  -0.500  11.309  0.00  0.00    +0.000 C 
ATOM     16  O   UNL     1       6.477   0.789  10.813  0.00  0.00    +0.000 OA
ENDBRANCH   9  16
ENDBRANCH   1  13
BRANCH   7  17
ATOM     17  N   UNL     1       5.088   3.337  17.466  0.00  0.00    +0.000 N 
ATOM     18  H   UNL     1       5.857   3.258  18.142  0.00  0.00    +0.000 HD
BRANCH  17  19
ATOM     19  C   UNL     1       3.783   3.401  17.992  0.00  0.00    +0.000 A 
ATOM     20  C   UNL     1       2.751   4.040  17.287  0.00  0.00    +0.000 A 
ATOM     21  C   UNL     1       1.453   4.108  17.803  0.00  0.00    +0.000 A 
ATOM     22  C   UNL     1       1.159   3.526  19.032  0.00  0.00    +0.000 A 
ATOM     23  C   UNL     1       2.164   2.876  19.745  0.00  0.00    +0.000 A 
ATOM     24  C   UNL     1       3.463   2.811  19.229  0.00  0.00    +0.000 A 
ATOM     25 CL   UNL     1       4.671   1.989  20.157  0.00  0.00    +0.000 Cl
ENDBRANCH  17  19
ENDBRANCH   7  17
TORSDOF 4
ENDMDL
MODEL 8
REMARK VINA RESULT:      -8.0      1.528      2.179
REMARK  Name = 
REMARK  5 active torsions:
REMARK  status: ('A' for Active; 'I' for Inactive)
REMARK    1  A    between atoms: C_1  and  O_2
REMARK    2  A    between atoms: O_2  and  C_3
REMARK    3  A    between atoms: C_7  and  C_8
REMARK    4  A    between atoms: N_14  and  N_15
REMARK    5  A    between atoms: N_15  and  C_16
REMARK                            x       y       z     vdW  Elec       q    Type
REMARK                         _______ _______ _______ _____ _____    ______ ____
ROOT
ATOM      1  C   UNL     1       6.956   4.475  16.307  0.00  0.00    +0.000 C 
ATOM      2  N   UNL     1       8.057   4.325  16.999  0.00  0.00    +0.000 NA
ATOM      3  N   UNL     1       7.728   4.429  18.345  0.00  0.00    +0.000 N 
ATOM      4  C   UNL     1       6.399   4.668  18.609  0.00  0.00    +0.000 C 
ATOM      5  O   UNL     1       5.816   4.876  19.648  0.00  0.00    +0.000 OA
ATOM      6  C   UNL     1       5.801   4.633  17.238  0.00  0.00    +0.000 C 
ATOM      7  N   UNL     1       4.560   4.646  16.873  0.00  0.00    +0.000 NA
ATOM      8  H   UNL     1       8.455   4.405  19.052  0.00  0.00    +0.000 HD
ENDROOT
BRANCH   1  13
ATOM      9  C   UNL     1       6.000   3.531  12.799  0.00  0.00    +0.000 A 
ATOM     10  C   UNL     1       6.805   4.402  12.058  0.00  0.00    +0.000 A 
ATOM     11  C   UNL     1       7.642   5.316  12.697  0.00  0.00    +0.000 A 
ATOM     12  C   UNL     1       7.686   5.363  14.090  0.00  0.00    +0.000 A 
ATOM     13  C   UNL     1       6.886   4.495  14.841  0.00  0.00    +0.000 A 
ATOM     14  C   UNL     1       6.043   3.579  14.194  0.00  0.00    +0.000 A 
BRANCH   9  16
ATOM     15  C   UNL     1       4.195   3.262  11.275  0.00  0.00    +0.000 C 
ATOM     16  O   UNL     1       5.239   2.681  12.047  0.00  0.00    +0.000 OA
ENDBRANCH   9  16
ENDBRANCH   1  13
BRANCH   7  17
ATOM     17  N   UNL     1       3.622   4.742  17.844  0.00  0.00    +0.000 N 
ATOM     18  H   UNL     1       3.236   3.931  18.341  0.00  0.00    +0.000 HD
BRANCH  17  19
ATOM     19  C   UNL     1       3.111   6.006  18.194  0.00  0.00    +0.000 A 
ATOM     20  C   UNL     1       3.166   7.082  17.294  0.00  0.00    +0.000 A 
ATOM     21  C   UNL     1       2.661   8.341  17.636  0.00  0.00    +0.000 A 
ATOM     22  C   UNL     1       2.079   8.544  18.882  0.00  0.00    +0.000 A 
ATOM     23  C   UNL     1       2.002   7.489  19.788  0.00  0.00    +0.000 A 
ATOM     24  C   UNL     1       2.510   6.231  19.447  0.00  0.00    +0.000 A 
ATOM     25 CL   UNL     1       2.386   4.956  20.611  0.00  0.00    +0.000 Cl
ENDBRANCH  17  19
ENDBRANCH   7  17
TORSDOF 4
ENDMDL
MODEL 9
REMARK VINA RESULT:      -8.0      2.051      2.615
REMARK  Name = 
REMARK  5 active torsions:
REMARK  status: ('A' for Active; 'I' for Inactive)
REMARK    1  A    between atoms: C_1  and  O_2
REMARK    2  A    between atoms: O_2  and  C_3
REMARK    3  A    between atoms: C_7  and  C_8
REMARK    4  A    between atoms: N_14  and  N_15
REMARK    5  A    between atoms: N_15  and  C_16
REMARK                            x       y       z     vdW  Elec       q    Type
REMARK                         _______ _______ _______ _____ _____    ______ ____
ROOT
ATOM      1  C   UNL     1       6.649   4.504  14.260  0.00  0.00    +0.000 C 
ATOM      2  N   UNL     1       7.533   5.469  14.248  0.00  0.00    +0.000 NA
ATOM      3  N   UNL     1       7.617   5.984  15.536  0.00  0.00    +0.000 N 
ATOM      4  C   UNL     1       6.783   5.395  16.459  0.00  0.00    +0.000 C 
ATOM      5  O   UNL     1       6.569   5.653  17.622  0.00  0.00    +0.000 OA
ATOM      6  C   UNL     1       6.143   4.311  15.651  0.00  0.00    +0.000 C 
ATOM      7  N   UNL     1       5.379   3.337  16.025  0.00  0.00    +0.000 NA
ATOM      8  H   UNL     1       8.204   6.788  15.729  0.00  0.00    +0.000 HD
ENDROOT
BRANCH   1  13
ATOM      9  C   UNL     1       4.443   3.132  11.548  0.00  0.00    +0.000 A 
ATOM     10  C   UNL     1       5.316   2.240  10.917  0.00  0.00    +0.000 A 
ATOM     11  C   UNL     1       6.633   2.102  11.356  0.00  0.00    +0.000 A 
ATOM     12  C   UNL     1       7.087   2.853  12.439  0.00  0.00    +0.000 A 
ATOM     13  C   UNL     1       6.222   3.747  13.078  0.00  0.00    +0.000 A 
ATOM     14  C   UNL     1       4.899   3.884  12.632  0.00  0.00    +0.000 A 
BRANCH   9  16
ATOM     15  C   UNL     1       3.005   3.860   9.799  0.00  0.00    +0.000 C 
ATOM     16  O   UNL     1       3.181   3.159  11.024  0.00  0.00    +0.000 OA
ENDBRANCH   9  16
ENDBRANCH   1  13
BRANCH   7  17
ATOM     17  N   UNL     1       5.048   3.268  17.335  0.00  0.00    +0.000 N 
ATOM     18  H   UNL     1       5.738   3.158  18.088  0.00  0.00    +0.000 HD
BRANCH  17  19
ATOM     19  C   UNL     1       3.694   3.319  17.715  0.00  0.00    +0.000 A 
ATOM     20  C   UNL     1       2.915   4.460  17.461  0.00  0.00    +0.000 A 
ATOM     21  C   UNL     1       1.570   4.519  17.837  0.00  0.00    +0.000 A 
ATOM     22  C   UNL     1       0.972   3.430  18.464  0.00  0.00    +0.000 A 
ATOM     23  C   UNL     1       1.721   2.283  18.716  0.00  0.00    +0.000 A 
ATOM     24  C   UNL     1       3.068   2.226  18.343  0.00  0.00    +0.000 A 
ATOM     25 CL   UNL     1       3.948   0.775  18.679  0.00  0.00    +0.000 Cl
ENDBRANCH  17  19
ENDBRANCH   7  17
TORSDOF 4
ENDMDL
