MODEL 1
REMARK VINA RESULT:      -4.8      0.000      0.000
REMARK  Name = 
REMARK  2 active torsions:
REMARK  status: ('A' for Active; 'I' for Inactive)
REMARK    1  A    between atoms: C_2  and  O_3
REMARK    2  A    between atoms: C_2  and  C_4
REMARK                            x       y       z     vdW  Elec       q    Type
REMARK                         _______ _______ _______ _____ _____    ______ ____
ROOT
ATOM      1  C   UNL     1       2.799   3.516  20.380  0.00  0.00    +0.000 A 
ATOM      2  S   UNL     1       4.062   2.390  20.084  0.00  0.00    +0.000 S 
ATOM      3  N   UNL     1       5.061   3.434  19.280  0.00  0.00    +0.000 NA
ATOM      4  C   UNL     1       4.471   4.623  19.231  0.00  0.00    +0.000 A 
ATOM      5 CL   UNL     1       5.298   5.900  18.453  0.00  0.00    +0.000 Cl
ATOM      6  C   UNL     1       3.181   4.732  19.839  0.00  0.00    +0.000 A 
ATOM      7 CL   UNL     1       2.269   6.184  19.875  0.00  0.00    +0.000 Cl
ENDROOT
BRANCH   1   9
ATOM      8  O   UNL     1       1.626   2.541  22.201  0.00  0.00    +0.000 OA
ATOM      9  C   UNL     1       1.631   3.058  21.092  0.00  0.00    +0.000 C 
BRANCH   9  10
ATOM     10  O   UNL     1       0.469   3.243  20.416  0.00  0.00    +0.000 OA
ATOM     11  H   UNL     1       0.243   2.557  19.760  0.00  0.00    +0.000 HD
ENDBRANCH   9  10
ENDBRANCH   1   9
TORSDOF 2
ENDMDL
MODEL 2
REMARK VINA RESULT:      -4.7      2.659      3.319
REMARK  Name = 
REMARK  2 active torsions:
REMARK  status: ('A' for Active; 'I' for Inactive)
REMARK    1  A    between atoms: C_2  and  O_3
REMARK    2  A    between atoms: C_2  and  C_4
REMARK                            x       y       z     vdW  Elec       q    Type
REMARK                         _______ _______ _______ _____ _____    ______ ____
ROOT
ATOM      1  C   UNL     1       3.050   3.158  19.710  0.00  0.00    +0.000 A 
ATOM      2  S   UNL     1       1.454   2.784  20.225  0.00  0.00    +0.000 S 
ATOM      3  N   UNL     1       0.995   4.338  20.557  0.00  0.00    +0.000 NA
ATOM      4  C   UNL     1       2.015   5.143  20.282  0.00  0.00    +0.000 A 
ATOM      5 CL   UNL     1       1.805   6.821  20.532  0.00  0.00    +0.000 Cl
ATOM      6  C   UNL     1       3.213   4.530  19.798  0.00  0.00    +0.000 A 
ATOM      7 CL   UNL     1       4.629   5.407  19.391  0.00  0.00    +0.000 Cl
ENDROOT
BRANCH   1   9
ATOM      8  O   UNL     1       3.645   1.249  18.427  0.00  0.00    +0.000 OA
ATOM      9  C   UNL     1       3.904   2.072  19.295  0.00  0.00    +0.000 C 
BRANCH   9  10
ATOM     10  O   UNL     1       5.080   2.011  19.970  0.00  0.00    +0.000 OA
ATOM     11  H   UNL     1       5.822   2.511  19.582  0.00  0.00    +0.000 HD
ENDBRANCH   9  10
ENDBRANCH   1   9
TORSDOF 2
ENDMDL
MODEL 3
REMARK VINA RESULT:      -4.7      4.500      5.310
REMARK  Name = 
REMARK  2 active torsions:
REMARK  status: ('A' for Active; 'I' for Inactive)
REMARK    1  A    between atoms: C_2  and  O_3
REMARK    2  A    between atoms: C_2  and  C_4
REMARK                            x       y       z     vdW  Elec       q    Type
REMARK                         _______ _______ _______ _____ _____    ______ ____
ROOT
ATOM      1  C   UNL     1       5.987   5.173  17.545  0.00  0.00    +0.000 A 
ATOM      2  S   UNL     1       5.554   4.680  19.133  0.00  0.00    +0.000 S 
ATOM      3  N   UNL     1       4.160   5.564  19.232  0.00  0.00    +0.000 NA
ATOM      4  C   UNL     1       4.001   6.223  18.090  0.00  0.00    +0.000 A 
ATOM      5 CL   UNL     1       2.622   7.218  17.921  0.00  0.00    +0.000 Cl
ATOM      6  C   UNL     1       5.009   6.042  17.091  0.00  0.00    +0.000 A 
ATOM      7 CL   UNL     1       4.973   6.810  15.558  0.00  0.00    +0.000 Cl
ENDROOT
BRANCH   1   9
ATOM      8  O   UNL     1       7.518   4.694  15.793  0.00  0.00    +0.000 OA
ATOM      9  C   UNL     1       7.202   4.645  16.974  0.00  0.00    +0.000 C 
BRANCH   9  10
ATOM     10  O   UNL     1       8.019   4.051  17.881  0.00  0.00    +0.000 OA
ATOM     11  H   UNL     1       8.608   3.355  17.534  0.00  0.00    +0.000 HD
ENDBRANCH   9  10
ENDBRANCH   1   9
TORSDOF 2
ENDMDL
MODEL 4
REMARK VINA RESULT:      -4.7      2.358      2.433
REMARK  Name = 
REMARK  2 active torsions:
REMARK  status: ('A' for Active; 'I' for Inactive)
REMARK    1  A    between atoms: C_2  and  O_3
REMARK    2  A    between atoms: C_2  and  C_4
REMARK                            x       y       z     vdW  Elec       q    Type
REMARK                         _______ _______ _______ _____ _____    ______ ____
ROOT
ATOM      1  C   UNL     1       2.699   3.683  19.900  0.00  0.00    +0.000 A 
ATOM      2  S   UNL     1       2.782   5.397  19.813  0.00  0.00    +0.000 S 
ATOM      3  N   UNL     1       3.586   5.474  18.369  0.00  0.00    +0.000 NA
ATOM      4  C   UNL     1       3.791   4.234  17.940  0.00  0.00    +0.000 A 
ATOM      5 CL   UNL     1       4.606   4.024  16.452  0.00  0.00    +0.000 Cl
ATOM      6  C   UNL     1       3.310   3.172  18.768  0.00  0.00    +0.000 A 
ATOM      7 CL   UNL     1       3.483   1.511  18.376  0.00  0.00    +0.000 Cl
ENDROOT
BRANCH   1   9
ATOM      8  O   UNL     1       2.614   2.689  22.056  0.00  0.00    +0.000 OA
ATOM      9  C   UNL     1       2.053   3.089  21.045  0.00  0.00    +0.000 C 
BRANCH   9  10
ATOM     10  O   UNL     1       0.704   2.992  20.924  0.00  0.00    +0.000 OA
ATOM     11  H   UNL     1       0.183   3.658  21.408  0.00  0.00    +0.000 HD
ENDBRANCH   9  10
ENDBRANCH   1   9
TORSDOF 2
ENDMDL
MODEL 5
REMARK VINA RESULT:      -4.7      3.247      3.428
REMARK  Name = 
REMARK  2 active torsions:
REMARK  status: ('A' for Active; 'I' for Inactive)
REMARK    1  A    between atoms: C_2  and  O_3
REMARK    2  A    between atoms: C_2  and  C_4
REMARK                            x       y       z     vdW  Elec       q    Type
REMARK                         _______ _______ _______ _____ _____    ______ ____
ROOT
ATOM      1  C   UNL     1       3.874   3.561  17.856  0.00  0.00    +0.000 A 
ATOM      2  S   UNL     1       4.320   3.560  19.516  0.00  0.00    +0.000 S 
ATOM      3  N   UNL     1       5.839   4.179  19.303  0.00  0.00    +0.000 NA
ATOM      4  C   UNL     1       6.023   4.397  18.006  0.00  0.00    +0.000 A 
ATOM      5 CL   UNL     1       7.522   5.048  17.505  0.00  0.00    +0.000 Cl
ATOM      6  C   UNL     1       4.941   4.065  17.132  0.00  0.00    +0.000 A 
ATOM      7 CL   UNL     1       4.996   4.278  15.431  0.00  0.00    +0.000 Cl
ENDROOT
BRANCH   1   9
ATOM      8  O   UNL     1       1.619   3.772  17.138  0.00  0.00    +0.000 OA
ATOM      9  C   UNL     1       2.560   3.080  17.504  0.00  0.00    +0.000 C 
BRANCH   9  10
ATOM     10  O   UNL     1       2.423   1.734  17.612  0.00  0.00    +0.000 OA
ATOM     11  H   UNL     1       1.660   1.344  17.146  0.00  0.00    +0.000 HD
ENDBRANCH   9  10
ENDBRANCH   1   9
TORSDOF 2
ENDMDL
MODEL 6
REMARK VINA RESULT:      -4.7      2.801      3.159
REMARK  Name = 
REMARK  2 active torsions:
REMARK  status: ('A' for Active; 'I' for Inactive)
REMARK    1  A    between atoms: C_2  and  O_3
REMARK    2  A    between atoms: C_2  and  C_4
REMARK                            x       y       z     vdW  Elec       q    Type
REMARK                         _______ _______ _______ _____ _____    ______ ____
ROOT
ATOM      1  C   UNL     1       3.485   3.056  18.883  0.00  0.00    +0.000 A 
ATOM      2  S   UNL     1       1.932   2.753  18.213  0.00  0.00    +0.000 S 
ATOM      3  N   UNL     1       1.551   4.332  17.899  0.00  0.00    +0.000 NA
ATOM      4  C   UNL     1       2.572   5.091  18.280  0.00  0.00    +0.000 A 
ATOM      5 CL   UNL     1       2.443   6.781  18.059  0.00  0.00    +0.000 Cl
ATOM      6  C   UNL     1       3.702   4.423  18.848  0.00  0.00    +0.000 A 
ATOM      7 CL   UNL     1       5.108   5.236  19.396  0.00  0.00    +0.000 Cl
ENDROOT
BRANCH   1   9
ATOM      8  O   UNL     1       4.947   1.894  20.351  0.00  0.00    +0.000 OA
ATOM      9  C   UNL     1       4.262   1.929  19.338  0.00  0.00    +0.000 C 
BRANCH   9  10
ATOM     10  O   UNL     1       4.187   0.847  18.522  0.00  0.00    +0.000 OA
ATOM     11  H   UNL     1       4.753   0.870  17.728  0.00  0.00    +0.000 HD
ENDBRANCH   9  10
ENDBRANCH   1   9
TORSDOF 2
ENDMDL
MODEL 7
REMARK VINA RESULT:      -4.7      4.295      4.979
REMARK  Name = 
REMARK  2 active torsions:
REMARK  status: ('A' for Active; 'I' for Inactive)
REMARK    1  A    between atoms: C_2  and  O_3
REMARK    2  A    between atoms: C_2  and  C_4
REMARK                            x       y       z     vdW  Elec       q    Type
REMARK                         _______ _______ _______ _____ _____    ______ ____
ROOT
ATOM      1  C   UNL     1       6.024   5.211  17.756  0.00  0.00    +0.000 A 
ATOM      2  S   UNL     1       7.294   6.178  17.118  0.00  0.00    +0.000 S 
ATOM      3  N   UNL     1       7.162   5.653  15.554  0.00  0.00    +0.000 NA
ATOM      4  C   UNL     1       6.175   4.767  15.493  0.00  0.00    +0.000 A 
ATOM      5 CL   UNL     1       5.818   4.065  13.976  0.00  0.00    +0.000 Cl
ATOM      6  C   UNL     1       5.490   4.473  16.714  0.00  0.00    +0.000 A 
ATOM      7 CL   UNL     1       4.192   3.358  16.828  0.00  0.00    +0.000 Cl
ENDROOT
BRANCH   1   9
ATOM      8  O   UNL     1       4.617   5.392  19.661  0.00  0.00    +0.000 OA
ATOM      9  C   UNL     1       5.733   5.314  19.165  0.00  0.00    +0.000 C 
BRANCH   9  10
ATOM     10  O   UNL     1       6.837   5.324  19.954  0.00  0.00    +0.000 OA
ATOM     11  H   UNL     1       7.545   4.701  19.706  0.00  0.00    +0.000 HD
ENDBRANCH   9  10
ENDBRANCH   1   9
TORSDOF 2
ENDMDL
MODEL 8
REMARK VINA RESULT:      -4.7      4.830      5.638
REMARK  Name = 
REMARK  2 active torsions:
REMARK  status: ('A' for Active; 'I' for Inactive)
REMARK    1  A    between atoms: C_2  and  O_3
REMARK    2  A    between atoms: C_2  and  C_4
REMARK                            x       y       z     vdW  Elec       q    Type
REMARK                         _______ _______ _______ _____ _____    ______ ____
ROOT
ATOM      1  C   UNL     1       6.370   4.538  16.723  0.00  0.00    +0.000 A 
ATOM      2  S   UNL     1       7.503   4.932  17.953  0.00  0.00    +0.000 S 
ATOM      3  N   UNL     1       6.456   4.792  19.226  0.00  0.00    +0.000 NA
ATOM      4  C   UNL     1       5.266   4.447  18.751  0.00  0.00    +0.000 A 
ATOM      5 CL   UNL     1       3.989   4.227  19.865  0.00  0.00    +0.000 Cl
ATOM      6  C   UNL     1       5.153   4.288  17.334  0.00  0.00    +0.000 A 
ATOM      7 CL   UNL     1       3.698   3.846  16.541  0.00  0.00    +0.000 Cl
ENDROOT
BRANCH   1   9
ATOM      8  O   UNL     1       7.557   5.360  14.837  0.00  0.00    +0.000 OA
ATOM      9  C   UNL     1       6.826   4.527  15.354  0.00  0.00    +0.000 C 
BRANCH   9  10
ATOM     10  O   UNL     1       6.364   3.475  14.632  0.00  0.00    +0.000 OA
ATOM     11  H   UNL     1       6.576   3.484  13.680  0.00  0.00    +0.000 HD
ENDBRANCH   9  10
ENDBRANCH   1   9
TORSDOF 2
ENDMDL
MODEL 9
REMARK VINA RESULT:      -4.6      1.154      1.154
REMARK  Name = 
REMARK  2 active torsions:
REMARK  status: ('A' for Active; 'I' for Inactive)
REMARK    1  A    between atoms: C_2  and  O_3
REMARK    2  A    between atoms: C_2  and  C_4
REMARK                            x       y       z     vdW  Elec       q    Type
REMARK                         _______ _______ _______ _____ _____    ______ ____
ROOT
ATOM      1  C   UNL     1       2.757   3.338  19.846  0.00  0.00    +0.000 A 
ATOM      2  S   UNL     1       3.416   2.091  18.864  0.00  0.00    +0.000 S 
ATOM      3  N   UNL     1       4.040   3.082  17.696  0.00  0.00    +0.000 NA
ATOM      4  C   UNL     1       3.772   4.339  18.028  0.00  0.00    +0.000 A 
ATOM      5 CL   UNL     1       4.315   5.579  16.985  0.00  0.00    +0.000 Cl
ATOM      6  C   UNL     1       3.043   4.549  19.240  0.00  0.00    +0.000 A 
ATOM      7 CL   UNL     1       2.607   6.100  19.829  0.00  0.00    +0.000 Cl
ENDROOT
BRANCH   1   9
ATOM      8  O   UNL     1       2.595   2.615  22.103  0.00  0.00    +0.000 OA
ATOM      9  C   UNL     1       2.066   2.959  21.055  0.00  0.00    +0.000 C 
BRANCH   9  10
ATOM     10  O   UNL     1       0.714   3.007  20.950  0.00  0.00    +0.000 OA
ATOM     11  H   UNL     1       0.215   2.759  21.751  0.00  0.00    +0.000 HD
ENDBRANCH   9  10
ENDBRANCH   1   9
TORSDOF 2
ENDMDL
