MODEL 1
REMARK VINA RESULT:      -8.2      0.000      0.000
REMARK  Name = 
REMARK  6 active torsions:
REMARK  status: ('A' for Active; 'I' for Inactive)
REMARK    1  A    between atoms: C_2  and  C_14
REMARK    2  A    between atoms: N_3  and  C_4
REMARK    3  A    between atoms: C_7  and  C_8
REMARK    4  A    between atoms: C_18  and  N_19
REMARK    5  A    between atoms: N_19  and  C_20
REMARK    6  A    between atoms: C_20  and  C_21
REMARK                            x       y       z     vdW  Elec       q    Type
REMARK                         _______ _______ _______ _____ _____    ______ ____
ROOT
ATOM      1  C   UNL     1       5.248   5.332  16.402  0.00  0.00    +0.000 A 
ATOM      2  N   UNL     1       5.856   5.528  15.180  0.00  0.00    +0.000 NA
ATOM      3  N   UNL     1       6.373   4.372  14.786  0.00  0.00    +0.000 NA
ATOM      4  N   UNL     1       6.105   3.466  15.741  0.00  0.00    +0.000 N 
ATOM      5  C   UNL     1       5.327   3.987  16.741  0.00  0.00    +0.000 A 
ATOM      6  H   UNL     1       6.445   2.520  15.633  0.00  0.00    +0.000 HD
ENDROOT
BRANCH   1   8
ATOM      7  O   UNL     1       5.359   7.413  17.455  0.00  0.00    +0.000 OA
ATOM      8  C   UNL     1       4.687   6.422  17.191  0.00  0.00    +0.000 C 
ATOM      9  N   UNL     1       3.378   6.227  17.605  0.00  0.00    +0.000 N 
ATOM     10  H   UNL     1       2.956   5.338  17.358  0.00  0.00    +0.000 HD
BRANCH   9  11
ATOM     11  C   UNL     1       2.624   7.131  18.388  0.00  0.00    +0.000 A 
ATOM     12  C   UNL     1       2.120   8.336  17.887  0.00  0.00    +0.000 A 
ATOM     13  C   UNL     1       1.412   9.222  18.695  0.00  0.00    +0.000 A 
ATOM     14  C   UNL     1       1.174   8.923  20.037  0.00  0.00    +0.000 A 
ATOM     15  C   UNL     1       1.660   7.709  20.548  0.00  0.00    +0.000 A 
ATOM     16  C   UNL     1       2.374   6.818  19.729  0.00  0.00    +0.000 A 
BRANCH  14  17
ATOM     17  C   UNL     1       0.406   9.888  20.903  0.00  0.00    +0.000 C 
ATOM     18  F   UNL     1      -0.695  10.409  20.298  0.00  0.00    +0.000 F 
ATOM     19  F   UNL     1      -0.041   9.312  22.055  0.00  0.00    +0.000 F 
ATOM     20  F   UNL     1       1.158  10.958  21.289  0.00  0.00    +0.000 F 
ENDBRANCH  14  17
ENDBRANCH   9  11
ENDBRANCH   1   8
BRANCH   5  21
ATOM     21  N   UNL     1       4.859   3.193  17.741  0.00  0.00    +0.000 N 
ATOM     22  H   UNL     1       5.463   2.798  18.458  0.00  0.00    +0.000 HD
BRANCH  21  23
ATOM     23  C   UNL     1       3.552   2.548  17.663  0.00  0.00    +0.000 C 
BRANCH  23  24
ATOM     24  C   UNL     1       2.791   2.802  18.939  0.00  0.00    +0.000 A 
ATOM     25  C   UNL     1       3.376   2.589  20.188  0.00  0.00    +0.000 A 
ATOM     26  C   UNL     1       2.623   2.848  21.322  0.00  0.00    +0.000 A 
ATOM     27  N   UNL     1       1.345   3.287  21.293  0.00  0.00    +0.000 NA
ATOM     28  C   UNL     1       0.796   3.482  20.076  0.00  0.00    +0.000 A 
ATOM     29  C   UNL     1       1.466   3.250  18.886  0.00  0.00    +0.000 A 
ENDBRANCH  23  24
ENDBRANCH  21  23
ENDBRANCH   5  21
TORSDOF 6
ENDMDL
MODEL 2
REMARK VINA RESULT:      -8.2      0.117      1.199
REMARK  Name = 
REMARK  6 active torsions:
REMARK  status: ('A' for Active; 'I' for Inactive)
REMARK    1  A    between atoms: C_2  and  C_14
REMARK    2  A    between atoms: N_3  and  C_4
REMARK    3  A    between atoms: C_7  and  C_8
REMARK    4  A    between atoms: C_18  and  N_19
REMARK    5  A    between atoms: N_19  and  C_20
REMARK    6  A    between atoms: C_20  and  C_21
REMARK                            x       y       z     vdW  Elec       q    Type
REMARK                         _______ _______ _______ _____ _____    ______ ____
ROOT
ATOM      1  C   UNL     1       5.264   5.321  16.374  0.00  0.00    +0.000 A 
ATOM      2  N   UNL     1       5.876   5.541  15.158  0.00  0.00    +0.000 NA
ATOM      3  N   UNL     1       6.360   4.385  14.724  0.00  0.00    +0.000 NA
ATOM      4  N   UNL     1       6.067   3.455  15.647  0.00  0.00    +0.000 N 
ATOM      5  C   UNL     1       5.305   3.963  16.666  0.00  0.00    +0.000 A 
ATOM      6  H   UNL     1       6.380   2.504  15.506  0.00  0.00    +0.000 HD
ENDROOT
BRANCH   1   8
ATOM      7  O   UNL     1       5.444   7.344  17.524  0.00  0.00    +0.000 OA
ATOM      8  C   UNL     1       4.735   6.397  17.201  0.00  0.00    +0.000 C 
ATOM      9  N   UNL     1       3.409   6.245  17.579  0.00  0.00    +0.000 N 
ATOM     10  H   UNL     1       2.954   5.387  17.282  0.00  0.00    +0.000 HD
BRANCH   9  11
ATOM     11  C   UNL     1       2.680   7.145  18.388  0.00  0.00    +0.000 A 
ATOM     12  C   UNL     1       2.404   6.904  19.738  0.00  0.00    +0.000 A 
ATOM     13  C   UNL     1       1.651   7.796  20.499  0.00  0.00    +0.000 A 
ATOM     14  C   UNL     1       1.156   8.970  19.930  0.00  0.00    +0.000 A 
ATOM     15  C   UNL     1       1.440   9.232  18.581  0.00  0.00    +0.000 A 
ATOM     16  C   UNL     1       2.200   8.330  17.818  0.00  0.00    +0.000 A 
BRANCH  14  17
ATOM     17  C   UNL     1       0.342   9.929  20.762  0.00  0.00    +0.000 C 
ATOM     18  F   UNL     1       1.027  11.042  21.138  0.00  0.00    +0.000 F 
ATOM     19  F   UNL     1      -0.764  10.378  20.104  0.00  0.00    +0.000 F 
ATOM     20  F   UNL     1      -0.113   9.365  21.916  0.00  0.00    +0.000 F 
ENDBRANCH  14  17
ENDBRANCH   9  11
ENDBRANCH   1   8
BRANCH   5  21
ATOM     21  N   UNL     1       4.816   3.148  17.639  0.00  0.00    +0.000 N 
ATOM     22  H   UNL     1       5.414   2.677  18.314  0.00  0.00    +0.000 HD
BRANCH  21  23
ATOM     23  C   UNL     1       3.467   2.595  17.572  0.00  0.00    +0.000 C 
BRANCH  23  24
ATOM     24  C   UNL     1       2.749   2.865  18.870  0.00  0.00    +0.000 A 
ATOM     25  C   UNL     1       3.353   2.603  20.101  0.00  0.00    +0.000 A 
ATOM     26  C   UNL     1       2.640   2.879  21.257  0.00  0.00    +0.000 A 
ATOM     27  N   UNL     1       1.385   3.380  21.266  0.00  0.00    +0.000 NA
ATOM     28  C   UNL     1       0.818   3.622  20.065  0.00  0.00    +0.000 A 
ATOM     29  C   UNL     1       1.447   3.377  18.856  0.00  0.00    +0.000 A 
ENDBRANCH  23  24
ENDBRANCH  21  23
ENDBRANCH   5  21
TORSDOF 6
ENDMDL
MODEL 3
REMARK VINA RESULT:      -8.2      0.030      1.181
REMARK  Name = 
REMARK  6 active torsions:
REMARK  status: ('A' for Active; 'I' for Inactive)
REMARK    1  A    between atoms: C_2  and  C_14
REMARK    2  A    between atoms: N_3  and  C_4
REMARK    3  A    between atoms: C_7  and  C_8
REMARK    4  A    between atoms: C_18  and  N_19
REMARK    5  A    between atoms: N_19  and  C_20
REMARK    6  A    between atoms: C_20  and  C_21
REMARK                            x       y       z     vdW  Elec       q    Type
REMARK                         _______ _______ _______ _____ _____    ______ ____
ROOT
ATOM      1  C   UNL     1       5.247   5.342  16.390  0.00  0.00    +0.000 A 
ATOM      2  N   UNL     1       5.842   5.536  15.162  0.00  0.00    +0.000 NA
ATOM      3  N   UNL     1       6.362   4.381  14.768  0.00  0.00    +0.000 NA
ATOM      4  N   UNL     1       6.107   3.478  15.728  0.00  0.00    +0.000 N 
ATOM      5  C   UNL     1       5.335   3.998  16.734  0.00  0.00    +0.000 A 
ATOM      6  H   UNL     1       6.450   2.533  15.621  0.00  0.00    +0.000 HD
ENDROOT
BRANCH   1   8
ATOM      7  O   UNL     1       5.362   7.419  17.449  0.00  0.00    +0.000 OA
ATOM      8  C   UNL     1       4.688   6.431  17.181  0.00  0.00    +0.000 C 
ATOM      9  N   UNL     1       3.376   6.241  17.590  0.00  0.00    +0.000 N 
ATOM     10  H   UNL     1       2.951   5.354  17.339  0.00  0.00    +0.000 HD
BRANCH   9  11
ATOM     11  C   UNL     1       2.623   7.146  18.373  0.00  0.00    +0.000 A 
ATOM     12  C   UNL     1       2.113   8.347  17.869  0.00  0.00    +0.000 A 
ATOM     13  C   UNL     1       1.406   9.234  18.677  0.00  0.00    +0.000 A 
ATOM     14  C   UNL     1       1.176   8.940  20.021  0.00  0.00    +0.000 A 
ATOM     15  C   UNL     1       1.668   7.730  20.534  0.00  0.00    +0.000 A 
ATOM     16  C   UNL     1       2.381   6.838  19.716  0.00  0.00    +0.000 A 
BRANCH  14  17
ATOM     17  C   UNL     1       0.410   9.906  20.887  0.00  0.00    +0.000 C 
ATOM     18  F   UNL     1      -0.063   9.353  22.036  0.00  0.00    +0.000 F 
ATOM     19  F   UNL     1       1.166  10.974  21.272  0.00  0.00    +0.000 F 
ATOM     20  F   UNL     1      -0.678  10.429  20.253  0.00  0.00    +0.000 F 
ENDBRANCH  14  17
ENDBRANCH   9  11
ENDBRANCH   1   8
BRANCH   5  21
ATOM     21  N   UNL     1       4.881   3.205  17.740  0.00  0.00    +0.000 N 
ATOM     22  H   UNL     1       5.490   2.834  18.466  0.00  0.00    +0.000 HD
BRANCH  21  23
ATOM     23  C   UNL     1       3.589   2.529  17.664  0.00  0.00    +0.000 C 
BRANCH  23  24
ATOM     24  C   UNL     1       2.807   2.798  18.923  0.00  0.00    +0.000 A 
ATOM     25  C   UNL     1       1.499   3.283  18.876  0.00  0.00    +0.000 A 
ATOM     26  C   UNL     1       0.834   3.503  20.072  0.00  0.00    +0.000 A 
ATOM     27  N   UNL     1       1.380   3.284  21.289  0.00  0.00    +0.000 NA
ATOM     28  C   UNL     1       2.647   2.820  21.313  0.00  0.00    +0.000 A 
ATOM     29  C   UNL     1       3.394   2.571  20.173  0.00  0.00    +0.000 A 
ENDBRANCH  23  24
ENDBRANCH  21  23
ENDBRANCH   5  21
TORSDOF 6
ENDMDL
MODEL 4
REMARK VINA RESULT:      -8.0      1.992      4.440
REMARK  Name = 
REMARK  6 active torsions:
REMARK  status: ('A' for Active; 'I' for Inactive)
REMARK    1  A    between atoms: C_2  and  C_14
REMARK    2  A    between atoms: N_3  and  C_4
REMARK    3  A    between atoms: C_7  and  C_8
REMARK    4  A    between atoms: C_18  and  N_19
REMARK    5  A    between atoms: N_19  and  C_20
REMARK    6  A    between atoms: C_20  and  C_21
REMARK                            x       y       z     vdW  Elec       q    Type
REMARK                         _______ _______ _______ _____ _____    ______ ____
ROOT
ATOM      1  C   UNL     1       3.558   3.360  19.903  0.00  0.00    +0.000 A 
ATOM      2  N   UNL     1       3.936   2.891  21.143  0.00  0.00    +0.000 NA
ATOM      3  N   UNL     1       4.686   1.812  20.965  0.00  0.00    +0.000 NA
ATOM      4  N   UNL     1       4.776   1.599  19.643  0.00  0.00    +0.000 N 
ATOM      5  C   UNL     1       4.161   2.586  18.918  0.00  0.00    +0.000 A 
ATOM      6  H   UNL     1       5.292   0.797  19.306  0.00  0.00    +0.000 HD
ENDROOT
BRANCH   1   8
ATOM      7  O   UNL     1       1.424   4.242  19.561  0.00  0.00    +0.000 OA
ATOM      8  C   UNL     1       2.619   4.461  19.723  0.00  0.00    +0.000 C 
ATOM      9  N   UNL     1       3.191   5.724  19.743  0.00  0.00    +0.000 N 
ATOM     10  H   UNL     1       4.201   5.758  19.837  0.00  0.00    +0.000 HD
BRANCH   9  11
ATOM     11  C   UNL     1       2.492   6.942  19.579  0.00  0.00    +0.000 A 
ATOM     12  C   UNL     1       1.777   7.554  20.614  0.00  0.00    +0.000 A 
ATOM     13  C   UNL     1       1.068   8.736  20.409  0.00  0.00    +0.000 A 
ATOM     14  C   UNL     1       1.063   9.352  19.157  0.00  0.00    +0.000 A 
ATOM     15  C   UNL     1       1.791   8.756  18.115  0.00  0.00    +0.000 A 
ATOM     16  C   UNL     1       2.504   7.564  18.326  0.00  0.00    +0.000 A 
BRANCH  14  17
ATOM     17  C   UNL     1       0.293  10.631  18.946  0.00  0.00    +0.000 C 
ATOM     18  F   UNL     1      -0.748  10.505  18.080  0.00  0.00    +0.000 F 
ATOM     19  F   UNL     1      -0.243  11.113  20.103  0.00  0.00    +0.000 F 
ATOM     20  F   UNL     1       1.071  11.634  18.449  0.00  0.00    +0.000 F 
ENDBRANCH  14  17
ENDBRANCH   9  11
ENDBRANCH   1   8
BRANCH   5  21
ATOM     21  N   UNL     1       4.241   2.603  17.561  0.00  0.00    +0.000 N 
ATOM     22  H   UNL     1       4.764   1.908  17.032  0.00  0.00    +0.000 HD
BRANCH  21  23
ATOM     23  C   UNL     1       3.907   3.793  16.786  0.00  0.00    +0.000 C 
BRANCH  23  24
ATOM     24  C   UNL     1       5.175   4.494  16.372  0.00  0.00    +0.000 A 
ATOM     25  C   UNL     1       5.903   4.080  15.255  0.00  0.00    +0.000 A 
ATOM     26  C   UNL     1       7.058   4.771  14.927  0.00  0.00    +0.000 A 
ATOM     27  N   UNL     1       7.531   5.824  15.630  0.00  0.00    +0.000 NA
ATOM     28  C   UNL     1       6.816   6.206  16.709  0.00  0.00    +0.000 A 
ATOM     29  C   UNL     1       5.652   5.577  17.119  0.00  0.00    +0.000 A 
ENDBRANCH  23  24
ENDBRANCH  21  23
ENDBRANCH   5  21
TORSDOF 6
ENDMDL
MODEL 5
REMARK VINA RESULT:      -8.0      1.969      4.338
REMARK  Name = 
REMARK  6 active torsions:
REMARK  status: ('A' for Active; 'I' for Inactive)
REMARK    1  A    between atoms: C_2  and  C_14
REMARK    2  A    between atoms: N_3  and  C_4
REMARK    3  A    between atoms: C_7  and  C_8
REMARK    4  A    between atoms: C_18  and  N_19
REMARK    5  A    between atoms: N_19  and  C_20
REMARK    6  A    between atoms: C_20  and  C_21
REMARK                            x       y       z     vdW  Elec       q    Type
REMARK                         _______ _______ _______ _____ _____    ______ ____
ROOT
ATOM      1  C   UNL     1       3.560   3.341  19.916  0.00  0.00    +0.000 A 
ATOM      2  N   UNL     1       3.931   2.872  21.158  0.00  0.00    +0.000 NA
ATOM      3  N   UNL     1       4.697   1.803  20.985  0.00  0.00    +0.000 NA
ATOM      4  N   UNL     1       4.803   1.596  19.662  0.00  0.00    +0.000 N 
ATOM      5  C   UNL     1       4.184   2.579  18.935  0.00  0.00    +0.000 A 
ATOM      6  H   UNL     1       5.333   0.803  19.328  0.00  0.00    +0.000 HD
ENDROOT
BRANCH   1   8
ATOM      7  O   UNL     1       1.426   4.196  19.512  0.00  0.00    +0.000 OA
ATOM      8  C   UNL     1       2.609   4.430  19.731  0.00  0.00    +0.000 C 
ATOM      9  N   UNL     1       3.156   5.702  19.813  0.00  0.00    +0.000 N 
ATOM     10  H   UNL     1       4.161   5.751  19.949  0.00  0.00    +0.000 HD
BRANCH   9  11
ATOM     11  C   UNL     1       2.442   6.912  19.656  0.00  0.00    +0.000 A 
ATOM     12  C   UNL     1       2.405   7.623  18.452  0.00  0.00    +0.000 A 
ATOM     13  C   UNL     1       1.721   8.832  18.341  0.00  0.00    +0.000 A 
ATOM     14  C   UNL     1       1.039   9.364  19.436  0.00  0.00    +0.000 A 
ATOM     15  C   UNL     1       1.054   8.650  20.644  0.00  0.00    +0.000 A 
ATOM     16  C   UNL     1       1.745   7.432  20.752  0.00  0.00    +0.000 A 
BRANCH  14  17
ATOM     17  C   UNL     1       0.302  10.672  19.305  0.00  0.00    +0.000 C 
ATOM     18  F   UNL     1      -0.361  10.810  18.125  0.00  0.00    +0.000 F 
ATOM     19  F   UNL     1      -0.637  10.840  20.280  0.00  0.00    +0.000 F 
ATOM     20  F   UNL     1       1.130  11.751  19.394  0.00  0.00    +0.000 F 
ENDBRANCH  14  17
ENDBRANCH   9  11
ENDBRANCH   1   8
BRANCH   5  21
ATOM     21  N   UNL     1       4.278   2.602  17.579  0.00  0.00    +0.000 N 
ATOM     22  H   UNL     1       4.813   1.914  17.053  0.00  0.00    +0.000 HD
BRANCH  21  23
ATOM     23  C   UNL     1       3.942   3.792  16.805  0.00  0.00    +0.000 C 
BRANCH  23  24
ATOM     24  C   UNL     1       5.209   4.473  16.356  0.00  0.00    +0.000 A 
ATOM     25  C   UNL     1       5.848   5.420  17.159  0.00  0.00    +0.000 A 
ATOM     26  C   UNL     1       7.013   6.004  16.689  0.00  0.00    +0.000 A 
ATOM     27  N   UNL     1       7.568   5.721  15.490  0.00  0.00    +0.000 NA
ATOM     28  C   UNL     1       6.932   4.807  14.727  0.00  0.00    +0.000 A 
ATOM     29  C   UNL     1       5.763   4.170  15.107  0.00  0.00    +0.000 A 
ENDBRANCH  23  24
ENDBRANCH  21  23
ENDBRANCH   5  21
TORSDOF 6
ENDMDL
MODEL 6
REMARK VINA RESULT:      -8.0      0.651      1.040
REMARK  Name = 
REMARK  6 active torsions:
REMARK  status: ('A' for Active; 'I' for Inactive)
REMARK    1  A    between atoms: C_2  and  C_14
REMARK    2  A    between atoms: N_3  and  C_4
REMARK    3  A    between atoms: C_7  and  C_8
REMARK    4  A    between atoms: C_18  and  N_19
REMARK    5  A    between atoms: N_19  and  C_20
REMARK    6  A    between atoms: C_20  and  C_21
REMARK                            x       y       z     vdW  Elec       q    Type
REMARK                         _______ _______ _______ _____ _____    ______ ____
ROOT
ATOM      1  C   UNL     1       5.461   5.262  16.287  0.00  0.00    +0.000 A 
ATOM      2  N   UNL     1       6.279   5.498  15.203  0.00  0.00    +0.000 NA
ATOM      3  N   UNL     1       6.714   4.329  14.752  0.00  0.00    +0.000 NA
ATOM      4  N   UNL     1       6.189   3.375  15.536  0.00  0.00    +0.000 N 
ATOM      5  C   UNL     1       5.323   3.890  16.466  0.00  0.00    +0.000 A 
ATOM      6  H   UNL     1       6.428   2.408  15.365  0.00  0.00    +0.000 HD
ENDROOT
BRANCH   1   8
ATOM      7  O   UNL     1       5.622   7.247  17.504  0.00  0.00    +0.000 OA
ATOM      8  C   UNL     1       4.909   6.330  17.112  0.00  0.00    +0.000 C 
ATOM      9  N   UNL     1       3.559   6.204  17.404  0.00  0.00    +0.000 N 
ATOM     10  H   UNL     1       3.101   5.368  17.055  0.00  0.00    +0.000 HD
BRANCH   9  11
ATOM     11  C   UNL     1       2.805   7.102  18.193  0.00  0.00    +0.000 A 
ATOM     12  C   UNL     1       2.338   8.330  17.712  0.00  0.00    +0.000 A 
ATOM     13  C   UNL     1       1.627   9.208  18.527  0.00  0.00    +0.000 A 
ATOM     14  C   UNL     1       1.351   8.879  19.854  0.00  0.00    +0.000 A 
ATOM     15  C   UNL     1       1.800   7.642  20.343  0.00  0.00    +0.000 A 
ATOM     16  C   UNL     1       2.516   6.759  19.518  0.00  0.00    +0.000 A 
BRANCH  14  17
ATOM     17  C   UNL     1       0.582   9.837  20.727  0.00  0.00    +0.000 C 
ATOM     18  F   UNL     1       0.603   9.509  22.047  0.00  0.00    +0.000 F 
ATOM     19  F   UNL     1       1.063  11.110  20.653  0.00  0.00    +0.000 F 
ATOM     20  F   UNL     1      -0.735   9.915  20.385  0.00  0.00    +0.000 F 
ENDBRANCH  14  17
ENDBRANCH   9  11
ENDBRANCH   1   8
BRANCH   5  21
ATOM     21  N   UNL     1       4.608   3.068  17.278  0.00  0.00    +0.000 N 
ATOM     22  H   UNL     1       3.833   2.500  16.942  0.00  0.00    +0.000 HD
BRANCH  21  23
ATOM     23  C   UNL     1       4.642   3.203  18.731  0.00  0.00    +0.000 C 
BRANCH  23  24
ATOM     24  C   UNL     1       3.239   3.121  19.276  0.00  0.00    +0.000 A 
ATOM     25  C   UNL     1       2.987   3.196  20.647  0.00  0.00    +0.000 A 
ATOM     26  C   UNL     1       1.673   3.119  21.081  0.00  0.00    +0.000 A 
ATOM     27  N   UNL     1       0.615   2.965  20.254  0.00  0.00    +0.000 NA
ATOM     28  C   UNL     1       0.880   2.890  18.933  0.00  0.00    +0.000 A 
ATOM     29  C   UNL     1       2.158   2.954  18.403  0.00  0.00    +0.000 A 
ENDBRANCH  23  24
ENDBRANCH  21  23
ENDBRANCH   5  21
TORSDOF 6
ENDMDL
MODEL 7
REMARK VINA RESULT:      -8.0      1.941      4.349
REMARK  Name = 
REMARK  6 active torsions:
REMARK  status: ('A' for Active; 'I' for Inactive)
REMARK    1  A    between atoms: C_2  and  C_14
REMARK    2  A    between atoms: N_3  and  C_4
REMARK    3  A    between atoms: C_7  and  C_8
REMARK    4  A    between atoms: C_18  and  N_19
REMARK    5  A    between atoms: N_19  and  C_20
REMARK    6  A    between atoms: C_20  and  C_21
REMARK                            x       y       z     vdW  Elec       q    Type
REMARK                         _______ _______ _______ _____ _____    ______ ____
ROOT
ATOM      1  C   UNL     1       3.560   3.319  19.933  0.00  0.00    +0.000 A 
ATOM      2  N   UNL     1       3.971   2.844  21.160  0.00  0.00    +0.000 NA
ATOM      3  N   UNL     1       4.731   1.777  20.956  0.00  0.00    +0.000 NA
ATOM      4  N   UNL     1       4.794   1.577  19.630  0.00  0.00    +0.000 N 
ATOM      5  C   UNL     1       4.150   2.562  18.928  0.00  0.00    +0.000 A 
ATOM      6  H   UNL     1       5.313   0.785  19.274  0.00  0.00    +0.000 HD
ENDROOT
BRANCH   1   8
ATOM      7  O   UNL     1       1.412   4.175  19.610  0.00  0.00    +0.000 OA
ATOM      8  C   UNL     1       2.602   4.408  19.785  0.00  0.00    +0.000 C 
ATOM      9  N   UNL     1       3.152   5.680  19.849  0.00  0.00    +0.000 N 
ATOM     10  H   UNL     1       4.161   5.729  19.949  0.00  0.00    +0.000 HD
BRANCH   9  11
ATOM     11  C   UNL     1       2.433   6.890  19.722  0.00  0.00    +0.000 A 
ATOM     12  C   UNL     1       2.402   7.636  18.538  0.00  0.00    +0.000 A 
ATOM     13  C   UNL     1       1.712   8.844  18.456  0.00  0.00    +0.000 A 
ATOM     14  C   UNL     1       1.018   9.340  19.560  0.00  0.00    +0.000 A 
ATOM     15  C   UNL     1       1.027   8.592  20.748  0.00  0.00    +0.000 A 
ATOM     16  C   UNL     1       1.724   7.375  20.826  0.00  0.00    +0.000 A 
BRANCH  14  17
ATOM     17  C   UNL     1       0.275  10.648  19.460  0.00  0.00    +0.000 C 
ATOM     18  F   UNL     1      -0.879  10.676  20.180  0.00  0.00    +0.000 F 
ATOM     19  F   UNL     1       1.016  11.703  19.905  0.00  0.00    +0.000 F 
ATOM     20  F   UNL     1      -0.078  10.953  18.180  0.00  0.00    +0.000 F 
ENDBRANCH  14  17
ENDBRANCH   9  11
ENDBRANCH   1   8
BRANCH   5  21
ATOM     21  N   UNL     1       4.200   2.593  17.570  0.00  0.00    +0.000 N 
ATOM     22  H   UNL     1       4.704   1.899  17.022  0.00  0.00    +0.000 HD
BRANCH  21  23
ATOM     23  C   UNL     1       3.861   3.795  16.815  0.00  0.00    +0.000 C 
BRANCH  23  24
ATOM     24  C   UNL     1       5.126   4.521  16.434  0.00  0.00    +0.000 A 
ATOM     25  C   UNL     1       5.915   4.092  15.365  0.00  0.00    +0.000 A 
ATOM     26  C   UNL     1       7.062   4.808  15.064  0.00  0.00    +0.000 A 
ATOM     27  N   UNL     1       7.473   5.897  15.751  0.00  0.00    +0.000 NA
ATOM     28  C   UNL     1       6.699   6.292  16.784  0.00  0.00    +0.000 A 
ATOM     29  C   UNL     1       5.537   5.642  17.164  0.00  0.00    +0.000 A 
ENDBRANCH  23  24
ENDBRANCH  21  23
ENDBRANCH   5  21
TORSDOF 6
ENDMDL
MODEL 8
REMARK VINA RESULT:      -8.0      1.400      1.569
REMARK  Name = 
REMARK  6 active torsions:
REMARK  status: ('A' for Active; 'I' for Inactive)
REMARK    1  A    between atoms: C_2  and  C_14
REMARK    2  A    between atoms: N_3  and  C_4
REMARK    3  A    between atoms: C_7  and  C_8
REMARK    4  A    between atoms: C_18  and  N_19
REMARK    5  A    between atoms: N_19  and  C_20
REMARK    6  A    between atoms: C_20  and  C_21
REMARK                            x       y       z     vdW  Elec       q    Type
REMARK                         _______ _______ _______ _____ _____    ______ ____
ROOT
ATOM      1  C   UNL     1       4.497   4.937  17.289  0.00  0.00    +0.000 A 
ATOM      2  N   UNL     1       5.013   5.007  16.012  0.00  0.00    +0.000 NA
ATOM      3  N   UNL     1       6.164   4.349  15.995  0.00  0.00    +0.000 NA
ATOM      4  N   UNL     1       6.376   3.879  17.235  0.00  0.00    +0.000 N 
ATOM      5  C   UNL     1       5.323   4.141  18.072  0.00  0.00    +0.000 A 
ATOM      6  H   UNL     1       7.225   3.367  17.430  0.00  0.00    +0.000 HD
ENDROOT
BRANCH   1   8
ATOM      7  O   UNL     1       2.196   5.136  17.627  0.00  0.00    +0.000 OA
ATOM      8  C   UNL     1       3.301   5.661  17.701  0.00  0.00    +0.000 C 
ATOM      9  N   UNL     1       3.529   6.952  18.156  0.00  0.00    +0.000 N 
ATOM     10  H   UNL     1       4.489   7.278  18.118  0.00  0.00    +0.000 HD
BRANCH   9  11
ATOM     11  C   UNL     1       2.532   7.852  18.598  0.00  0.00    +0.000 A 
ATOM     12  C   UNL     1       1.995   8.852  17.781  0.00  0.00    +0.000 A 
ATOM     13  C   UNL     1       1.039   9.747  18.258  0.00  0.00    +0.000 A 
ATOM     14  C   UNL     1       0.581   9.660  19.573  0.00  0.00    +0.000 A 
ATOM     15  C   UNL     1       1.100   8.650  20.397  0.00  0.00    +0.000 A 
ATOM     16  C   UNL     1       2.063   7.750  19.912  0.00  0.00    +0.000 A 
BRANCH  14  17
ATOM     17  C   UNL     1      -0.453  10.633  20.079  0.00  0.00    +0.000 C 
ATOM     18  F   UNL     1      -1.597  10.646  19.343  0.00  0.00    +0.000 F 
ATOM     19  F   UNL     1      -0.839  10.364  21.359  0.00  0.00    +0.000 F 
ATOM     20  F   UNL     1      -0.002  11.919  20.088  0.00  0.00    +0.000 F 
ENDBRANCH  14  17
ENDBRANCH   9  11
ENDBRANCH   1   8
BRANCH   5  21
ATOM     21  N   UNL     1       5.305   3.646  19.339  0.00  0.00    +0.000 N 
ATOM     22  H   UNL     1       5.951   3.959  20.061  0.00  0.00    +0.000 HD
BRANCH  21  23
ATOM     23  C   UNL     1       4.629   2.395  19.666  0.00  0.00    +0.000 C 
BRANCH  23  24
ATOM     24  C   UNL     1       3.143   2.634  19.747  0.00  0.00    +0.000 A 
ATOM     25  C   UNL     1       2.596   3.480  20.713  0.00  0.00    +0.000 A 
ATOM     26  C   UNL     1       1.222   3.661  20.729  0.00  0.00    +0.000 A 
ATOM     27  N   UNL     1       0.373   3.057  19.868  0.00  0.00    +0.000 NA
ATOM     28  C   UNL     1       0.922   2.239  18.945  0.00  0.00    +0.000 A 
ATOM     29  C   UNL     1       2.281   1.993  18.850  0.00  0.00    +0.000 A 
ENDBRANCH  23  24
ENDBRANCH  21  23
ENDBRANCH   5  21
TORSDOF 6
ENDMDL
MODEL 9
REMARK VINA RESULT:      -8.0      1.989      4.467
REMARK  Name = 
REMARK  6 active torsions:
REMARK  status: ('A' for Active; 'I' for Inactive)
REMARK    1  A    between atoms: C_2  and  C_14
REMARK    2  A    between atoms: N_3  and  C_4
REMARK    3  A    between atoms: C_7  and  C_8
REMARK    4  A    between atoms: C_18  and  N_19
REMARK    5  A    between atoms: N_19  and  C_20
REMARK    6  A    between atoms: C_20  and  C_21
REMARK                            x       y       z     vdW  Elec       q    Type
REMARK                         _______ _______ _______ _____ _____    ______ ____
ROOT
ATOM      1  C   UNL     1       3.582   3.382  19.938  0.00  0.00    +0.000 A 
ATOM      2  N   UNL     1       3.993   2.921  21.170  0.00  0.00    +0.000 NA
ATOM      3  N   UNL     1       4.744   1.845  20.979  0.00  0.00    +0.000 NA
ATOM      4  N   UNL     1       4.803   1.626  19.656  0.00  0.00    +0.000 N 
ATOM      5  C   UNL     1       4.165   2.607  18.942  0.00  0.00    +0.000 A 
ATOM      6  H   UNL     1       5.315   0.826  19.310  0.00  0.00    +0.000 HD
ENDROOT
BRANCH   1   8
ATOM      7  O   UNL     1       1.434   4.253  19.662  0.00  0.00    +0.000 OA
ATOM      8  C   UNL     1       2.634   4.477  19.777  0.00  0.00    +0.000 C 
ATOM      9  N   UNL     1       3.202   5.742  19.756  0.00  0.00    +0.000 N 
ATOM     10  H   UNL     1       4.215   5.781  19.812  0.00  0.00    +0.000 HD
BRANCH   9  11
ATOM     11  C   UNL     1       2.493   6.955  19.600  0.00  0.00    +0.000 A 
ATOM     12  C   UNL     1       1.766   7.551  20.636  0.00  0.00    +0.000 A 
ATOM     13  C   UNL     1       1.048   8.729  20.438  0.00  0.00    +0.000 A 
ATOM     14  C   UNL     1       1.045   9.357  19.193  0.00  0.00    +0.000 A 
ATOM     15  C   UNL     1       1.785   8.778  18.150  0.00  0.00    +0.000 A 
ATOM     16  C   UNL     1       2.507   7.591  18.353  0.00  0.00    +0.000 A 
BRANCH  14  17
ATOM     17  C   UNL     1       0.266  10.631  18.989  0.00  0.00    +0.000 C 
ATOM     18  F   UNL     1      -0.419  11.034  20.093  0.00  0.00    +0.000 F 
ATOM     19  F   UNL     1       1.064  11.681  18.644  0.00  0.00    +0.000 F 
ATOM     20  F   UNL     1      -0.661  10.524  17.995  0.00  0.00    +0.000 F 
ENDBRANCH  14  17
ENDBRANCH   9  11
ENDBRANCH   1   8
BRANCH   5  21
ATOM     21  N   UNL     1       4.212   2.618  17.583  0.00  0.00    +0.000 N 
ATOM     22  H   UNL     1       4.716   1.917  17.045  0.00  0.00    +0.000 HD
BRANCH  21  23
ATOM     23  C   UNL     1       3.870   3.809  16.812  0.00  0.00    +0.000 C 
BRANCH  23  24
ATOM     24  C   UNL     1       5.131   4.542  16.435  0.00  0.00    +0.000 A 
ATOM     25  C   UNL     1       5.504   5.724  17.077  0.00  0.00    +0.000 A 
ATOM     26  C   UNL     1       6.679   6.345  16.686  0.00  0.00    +0.000 A 
ATOM     27  N   UNL     1       7.487   5.880  15.708  0.00  0.00    +0.000 NA
ATOM     28  C   UNL     1       7.107   4.739  15.096  0.00  0.00    +0.000 A 
ATOM     29  C   UNL     1       5.950   4.046  15.414  0.00  0.00    +0.000 A 
ENDBRANCH  23  24
ENDBRANCH  21  23
ENDBRANCH   5  21
TORSDOF 6
ENDMDL
