MODEL 1
REMARK VINA RESULT:      -8.0      0.000      0.000
REMARK  Name = 
REMARK  4 active torsions:
REMARK  status: ('A' for Active; 'I' for Inactive)
REMARK    1  A    between atoms: C_1  and  C_2
REMARK    2  A    between atoms: N_5  and  C_6
REMARK    3  A    between atoms: C_6  and  C_7
REMARK    4  A    between atoms: C_11  and  O_12
REMARK                            x       y       z     vdW  Elec       q    Type
REMARK                         _______ _______ _______ _____ _____    ______ ____
ROOT
ATOM      1  C   UNL     1       4.938   3.788  16.966  0.00  0.00    +0.000 A 
ATOM      2  C   UNL     1       4.953   3.551  15.581  0.00  0.00    +0.000 A 
ATOM      3  C   UNL     1       5.919   4.141  14.780  0.00  0.00    +0.000 A 
ATOM      4 BR   UNL     1       5.918   3.765  12.920  0.00  0.00    +0.000 Br
ATOM      5  C   UNL     1       6.879   4.984  15.345  0.00  0.00    +0.000 A 
ATOM      6  C   UNL     1       6.892   5.268  16.716  0.00  0.00    +0.000 A 
ATOM      7  N   UNL     1       7.829   6.100  17.226  0.00  0.00    +0.000 NA
ATOM      8  C   UNL     1       7.824   6.363  18.546  0.00  0.00    +0.000 A 
ATOM      9  C   UNL     1       6.917   5.823  19.427  0.00  0.00    +0.000 A 
ATOM     10  C   UNL     1       5.959   4.960  18.915  0.00  0.00    +0.000 A 
ATOM     11  C   UNL     1       5.910   4.659  17.538  0.00  0.00    +0.000 A 
ENDROOT
BRANCH   5  12
ATOM     12  O   UNL     1       7.848   5.551  14.542  0.00  0.00    +0.000 OA
ATOM     13  H   UNL     1       8.565   5.870  15.114  0.00  0.00    +0.000 HD
ENDBRANCH   5  12
BRANCH   1  14
ATOM     14  C   UNL     1       3.894   3.055  17.795  0.00  0.00    +0.000 C 
BRANCH  14  19
ATOM     15  C   UNL     1       1.702   3.023  21.879  0.00  0.00    +0.000 C 
ATOM     16  C   UNL     1       1.426   3.438  20.436  0.00  0.00    +0.000 C 
ATOM     17  C   UNL     1       1.481   2.213  19.512  0.00  0.00    +0.000 C 
ATOM     18  C   UNL     1       1.477   2.601  18.033  0.00  0.00    +0.000 C 
ATOM     19  N   UNL     1       2.520   3.574  17.681  0.00  0.00    +0.000 NA
ATOM     20  C   UNL     1       2.344   4.793  18.488  0.00  0.00    +0.000 C 
ATOM     21  C   UNL     1       2.406   4.538  19.997  0.00  0.00    +0.000 C 
ENDBRANCH  14  19
ENDBRANCH   1  14
TORSDOF 3
ENDMDL
MODEL 2
REMARK VINA RESULT:      -7.5      0.887      1.198
REMARK  Name = 
REMARK  4 active torsions:
REMARK  status: ('A' for Active; 'I' for Inactive)
REMARK    1  A    between atoms: C_1  and  C_2
REMARK    2  A    between atoms: N_5  and  C_6
REMARK    3  A    between atoms: C_6  and  C_7
REMARK    4  A    between atoms: C_11  and  O_12
REMARK                            x       y       z     vdW  Elec       q    Type
REMARK                         _______ _______ _______ _____ _____    ______ ____
ROOT
ATOM      1  C   UNL     1       4.338   4.337  16.847  0.00  0.00    +0.000 A 
ATOM      2  C   UNL     1       4.418   4.043  15.475  0.00  0.00    +0.000 A 
ATOM      3  C   UNL     1       5.615   4.205  14.793  0.00  0.00    +0.000 A 
ATOM      4 BR   UNL     1       5.681   3.764  12.949  0.00  0.00    +0.000 Br
ATOM      5  C   UNL     1       6.746   4.672  15.464  0.00  0.00    +0.000 A 
ATOM      6  C   UNL     1       6.711   5.000  16.825  0.00  0.00    +0.000 A 
ATOM      7  N   UNL     1       7.823   5.462  17.439  0.00  0.00    +0.000 NA
ATOM      8  C   UNL     1       7.770   5.774  18.748  0.00  0.00    +0.000 A 
ATOM      9  C   UNL     1       6.637   5.641  19.516  0.00  0.00    +0.000 A 
ATOM     10  C   UNL     1       5.493   5.157  18.898  0.00  0.00    +0.000 A 
ATOM     11  C   UNL     1       5.490   4.827  17.526  0.00  0.00    +0.000 A 
ENDROOT
BRANCH   5  12
ATOM     12  O   UNL     1       7.938   4.813  14.781  0.00  0.00    +0.000 OA
ATOM     13  H   UNL     1       8.662   4.761  15.425  0.00  0.00    +0.000 HD
ENDBRANCH   5  12
BRANCH   1  14
ATOM     14  C   UNL     1       3.014   4.070  17.547  0.00  0.00    +0.000 C 
BRANCH  14  19
ATOM     15  C   UNL     1       2.053   3.179  21.994  0.00  0.00    +0.000 C 
ATOM     16  C   UNL     1       2.112   2.431  20.664  0.00  0.00    +0.000 C 
ATOM     17  C   UNL     1       3.544   2.447  20.109  0.00  0.00    +0.000 C 
ATOM     18  C   UNL     1       3.611   1.950  18.665  0.00  0.00    +0.000 C 
ATOM     19  N   UNL     1       2.688   2.649  17.762  0.00  0.00    +0.000 NA
ATOM     20  C   UNL     1       1.309   2.488  18.250  0.00  0.00    +0.000 C 
ATOM     21  C   UNL     1       1.100   3.024  19.670  0.00  0.00    +0.000 C 
ENDBRANCH  14  19
ENDBRANCH   1  14
TORSDOF 3
ENDMDL
MODEL 3
REMARK VINA RESULT:      -7.4      1.143      1.587
REMARK  Name = 
REMARK  4 active torsions:
REMARK  status: ('A' for Active; 'I' for Inactive)
REMARK    1  A    between atoms: C_1  and  C_2
REMARK    2  A    between atoms: N_5  and  C_6
REMARK    3  A    between atoms: C_6  and  C_7
REMARK    4  A    between atoms: C_11  and  O_12
REMARK                            x       y       z     vdW  Elec       q    Type
REMARK                         _______ _______ _______ _____ _____    ______ ____
ROOT
ATOM      1  C   UNL     1       4.780   4.336  16.203  0.00  0.00    +0.000 A 
ATOM      2  C   UNL     1       4.930   3.798  14.913  0.00  0.00    +0.000 A 
ATOM      3  C   UNL     1       6.015   4.158  14.127  0.00  0.00    +0.000 A 
ATOM      4 BR   UNL     1       6.191   3.380  12.405  0.00  0.00    +0.000 Br
ATOM      5  C   UNL     1       6.960   5.065  14.609  0.00  0.00    +0.000 A 
ATOM      6  C   UNL     1       6.842   5.645  15.878  0.00  0.00    +0.000 A 
ATOM      7  N   UNL     1       7.770   6.530  16.307  0.00  0.00    +0.000 NA
ATOM      8  C   UNL     1       7.639   7.080  17.529  0.00  0.00    +0.000 A 
ATOM      9  C   UNL     1       6.607   6.784  18.389  0.00  0.00    +0.000 A 
ATOM     10  C   UNL     1       5.656   5.868  17.963  0.00  0.00    +0.000 A 
ATOM     11  C   UNL     1       5.738   5.273  16.687  0.00  0.00    +0.000 A 
ENDROOT
BRANCH   5  12
ATOM     12  O   UNL     1       8.046   5.402  13.826  0.00  0.00    +0.000 OA
ATOM     13  H   UNL     1       7.855   5.130  12.913  0.00  0.00    +0.000 HD
ENDBRANCH   5  12
BRANCH   1  14
ATOM     14  C   UNL     1       3.606   3.846  17.037  0.00  0.00    +0.000 C 
BRANCH  14  19
ATOM     15  C   UNL     1       1.017   3.577  20.873  0.00  0.00    +0.000 C 
ATOM     16  C   UNL     1       2.030   2.723  20.114  0.00  0.00    +0.000 C 
ATOM     17  C   UNL     1       3.395   3.424  20.079  0.00  0.00    +0.000 C 
ATOM     18  C   UNL     1       4.370   2.749  19.114  0.00  0.00    +0.000 C 
ATOM     19  N   UNL     1       3.829   2.581  17.759  0.00  0.00    +0.000 NA
ATOM     20  C   UNL     1       2.596   1.779  17.820  0.00  0.00    +0.000 C 
ATOM     21  C   UNL     1       1.510   2.400  18.704  0.00  0.00    +0.000 C 
ENDBRANCH  14  19
ENDBRANCH   1  14
TORSDOF 3
ENDMDL
MODEL 4
REMARK VINA RESULT:      -6.4      3.916      5.661
REMARK  Name = 
REMARK  4 active torsions:
REMARK  status: ('A' for Active; 'I' for Inactive)
REMARK    1  A    between atoms: C_1  and  C_2
REMARK    2  A    between atoms: N_5  and  C_6
REMARK    3  A    between atoms: C_6  and  C_7
REMARK    4  A    between atoms: C_11  and  O_12
REMARK                            x       y       z     vdW  Elec       q    Type
REMARK                         _______ _______ _______ _____ _____    ______ ____
ROOT
ATOM      1  C   UNL     1       2.707   6.315  18.970  0.00  0.00    +0.000 A 
ATOM      2  C   UNL     1       3.828   6.602  18.172  0.00  0.00    +0.000 A 
ATOM      3  C   UNL     1       4.866   5.687  18.070  0.00  0.00    +0.000 A 
ATOM      4 BR   UNL     1       6.343   6.105  16.955  0.00  0.00    +0.000 Br
ATOM      5  C   UNL     1       4.807   4.479  18.767  0.00  0.00    +0.000 A 
ATOM      6  C   UNL     1       3.722   4.158  19.591  0.00  0.00    +0.000 A 
ATOM      7  N   UNL     1       3.705   2.984  20.262  0.00  0.00    +0.000 NA
ATOM      8  C   UNL     1       2.654   2.693  21.052  0.00  0.00    +0.000 A 
ATOM      9  C   UNL     1       1.572   3.526  21.215  0.00  0.00    +0.000 A 
ATOM     10  C   UNL     1       1.574   4.728  20.522  0.00  0.00    +0.000 A 
ATOM     11  C   UNL     1       2.656   5.088  19.692  0.00  0.00    +0.000 A 
ENDROOT
BRANCH   5  12
ATOM     12  O   UNL     1       5.837   3.567  18.643  0.00  0.00    +0.000 OA
ATOM     13  H   UNL     1       6.665   4.062  18.535  0.00  0.00    +0.000 HD
ENDBRANCH   5  12
BRANCH   1  14
ATOM     14  C   UNL     1       1.575   7.331  18.983  0.00  0.00    +0.000 C 
BRANCH  14  19
ATOM     15  C   UNL     1      -1.960  10.292  18.504  0.00  0.00    +0.000 C 
ATOM     16  C   UNL     1      -0.494  10.320  18.930  0.00  0.00    +0.000 C 
ATOM     17  C   UNL     1       0.407   9.904  17.759  0.00  0.00    +0.000 C 
ATOM     18  C   UNL     1       1.851   9.657  18.197  0.00  0.00    +0.000 C 
ATOM     19  N   UNL     1       1.969   8.712  19.315  0.00  0.00    +0.000 NA
ATOM     20  C   UNL     1       1.209   9.220  20.468  0.00  0.00    +0.000 C 
ATOM     21  C   UNL     1      -0.279   9.435  20.168  0.00  0.00    +0.000 C 
ENDBRANCH  14  19
ENDBRANCH   1  14
TORSDOF 3
ENDMDL
MODEL 5
REMARK VINA RESULT:      -6.4      4.280      5.498
REMARK  Name = 
REMARK  4 active torsions:
REMARK  status: ('A' for Active; 'I' for Inactive)
REMARK    1  A    between atoms: C_1  and  C_2
REMARK    2  A    between atoms: N_5  and  C_6
REMARK    3  A    between atoms: C_6  and  C_7
REMARK    4  A    between atoms: C_11  and  O_12
REMARK                            x       y       z     vdW  Elec       q    Type
REMARK                         _______ _______ _______ _____ _____    ______ ____
ROOT
ATOM      1  C   UNL     1       2.655   5.957  18.684  0.00  0.00    +0.000 A 
ATOM      2  C   UNL     1       2.224   5.055  19.671  0.00  0.00    +0.000 A 
ATOM      3  C   UNL     1       3.010   3.962  20.010  0.00  0.00    +0.000 A 
ATOM      4 BR   UNL     1       2.402   2.789  21.372  0.00  0.00    +0.000 Br
ATOM      5  C   UNL     1       4.229   3.748  19.365  0.00  0.00    +0.000 A 
ATOM      6  C   UNL     1       4.690   4.607  18.360  0.00  0.00    +0.000 A 
ATOM      7  N   UNL     1       5.870   4.361  17.747  0.00  0.00    +0.000 NA
ATOM      8  C   UNL     1       6.296   5.196  16.781  0.00  0.00    +0.000 A 
ATOM      9  C   UNL     1       5.599   6.311  16.378  0.00  0.00    +0.000 A 
ATOM     10  C   UNL     1       4.392   6.578  17.008  0.00  0.00    +0.000 A 
ATOM     11  C   UNL     1       3.893   5.729  18.017  0.00  0.00    +0.000 A 
ENDROOT
BRANCH   5  12
ATOM     12  O   UNL     1       5.012   2.669  19.723  0.00  0.00    +0.000 OA
ATOM     13  H   UNL     1       4.443   1.882  19.756  0.00  0.00    +0.000 HD
ENDBRANCH   5  12
BRANCH   1  14
ATOM     14  C   UNL     1       1.778   7.170  18.410  0.00  0.00    +0.000 C 
BRANCH  14  19
ATOM     15  C   UNL     1      -1.633  10.295  18.712  0.00  0.00    +0.000 C 
ATOM     16  C   UNL     1      -0.154  10.178  19.071  0.00  0.00    +0.000 C 
ATOM     17  C   UNL     1       0.688   9.985  17.802  0.00  0.00    +0.000 C 
ATOM     18  C   UNL     1       2.133   9.598  18.117  0.00  0.00    +0.000 C 
ATOM     19  N   UNL     1       2.246   8.434  19.006  0.00  0.00    +0.000 NA
ATOM     20  C   UNL     1       1.548   8.716  20.272  0.00  0.00    +0.000 C 
ATOM     21  C   UNL     1       0.063   9.044  20.087  0.00  0.00    +0.000 C 
ENDBRANCH  14  19
ENDBRANCH   1  14
TORSDOF 3
ENDMDL
MODEL 6
REMARK VINA RESULT:      -6.3      3.479      6.310
REMARK  Name = 
REMARK  4 active torsions:
REMARK  status: ('A' for Active; 'I' for Inactive)
REMARK    1  A    between atoms: C_1  and  C_2
REMARK    2  A    between atoms: N_5  and  C_6
REMARK    3  A    between atoms: C_6  and  C_7
REMARK    4  A    between atoms: C_11  and  O_12
REMARK                            x       y       z     vdW  Elec       q    Type
REMARK                         _______ _______ _______ _____ _____    ______ ____
ROOT
ATOM      1  C   UNL     1       3.427   5.342  18.146  0.00  0.00    +0.000 A 
ATOM      2  C   UNL     1       2.995   6.674  18.022  0.00  0.00    +0.000 A 
ATOM      3  C   UNL     1       2.276   7.275  19.045  0.00  0.00    +0.000 A 
ATOM      4 BR   UNL     1       1.743   9.085  18.844  0.00  0.00    +0.000 Br
ATOM      5  C   UNL     1       1.967   6.556  20.201  0.00  0.00    +0.000 A 
ATOM      6  C   UNL     1       2.356   5.220  20.362  0.00  0.00    +0.000 A 
ATOM      7  N   UNL     1       2.028   4.551  21.490  0.00  0.00    +0.000 NA
ATOM      8  C   UNL     1       2.408   3.266  21.626  0.00  0.00    +0.000 A 
ATOM      9  C   UNL     1       3.131   2.583  20.677  0.00  0.00    +0.000 A 
ATOM     10  C   UNL     1       3.482   3.264  19.521  0.00  0.00    +0.000 A 
ATOM     11  C   UNL     1       3.099   4.606  19.321  0.00  0.00    +0.000 A 
ENDROOT
BRANCH   5  12
ATOM     12  O   UNL     1       1.267   7.169  21.221  0.00  0.00    +0.000 OA
ATOM     13  H   UNL     1       1.861   7.803  21.655  0.00  0.00    +0.000 HD
ENDBRANCH   5  12
BRANCH   1  14
ATOM     14  C   UNL     1       4.270   4.768  17.018  0.00  0.00    +0.000 C 
BRANCH  14  19
ATOM     15  C   UNL     1       6.156   3.602  12.946  0.00  0.00    +0.000 C 
ATOM     16  C   UNL     1       6.484   4.485  14.148  0.00  0.00    +0.000 C 
ATOM     17  C   UNL     1       6.636   3.627  15.412  0.00  0.00    +0.000 C 
ATOM     18  C   UNL     1       6.700   4.473  16.683  0.00  0.00    +0.000 C 
ATOM     19  N   UNL     1       5.580   5.413  16.817  0.00  0.00    +0.000 NA
ATOM     20  C   UNL     1       5.556   6.315  15.653  0.00  0.00    +0.000 C 
ATOM     21  C   UNL     1       5.416   5.578  14.317  0.00  0.00    +0.000 C 
ENDBRANCH  14  19
ENDBRANCH   1  14
TORSDOF 3
ENDMDL
MODEL 7
REMARK VINA RESULT:      -6.3      2.295      3.075
REMARK  Name = 
REMARK  4 active torsions:
REMARK  status: ('A' for Active; 'I' for Inactive)
REMARK    1  A    between atoms: C_1  and  C_2
REMARK    2  A    between atoms: N_5  and  C_6
REMARK    3  A    between atoms: C_6  and  C_7
REMARK    4  A    between atoms: C_11  and  O_12
REMARK                            x       y       z     vdW  Elec       q    Type
REMARK                         _______ _______ _______ _____ _____    ______ ____
ROOT
ATOM      1  C   UNL     1       4.985   4.888  18.403  0.00  0.00    +0.000 A 
ATOM      2  C   UNL     1       5.840   4.539  17.344  0.00  0.00    +0.000 A 
ATOM      3  C   UNL     1       5.860   5.298  16.183  0.00  0.00    +0.000 A 
ATOM      4 BR   UNL     1       7.055   4.806  14.793  0.00  0.00    +0.000 Br
ATOM      5  C   UNL     1       5.023   6.408  16.055  0.00  0.00    +0.000 A 
ATOM      6  C   UNL     1       4.138   6.782  17.074  0.00  0.00    +0.000 A 
ATOM      7  N   UNL     1       3.333   7.856  16.910  0.00  0.00    +0.000 NA
ATOM      8  C   UNL     1       2.486   8.199  17.900  0.00  0.00    +0.000 A 
ATOM      9  C   UNL     1       2.395   7.521  19.092  0.00  0.00    +0.000 A 
ATOM     10  C   UNL     1       3.225   6.424  19.274  0.00  0.00    +0.000 A 
ATOM     11  C   UNL     1       4.121   6.013  18.265  0.00  0.00    +0.000 A 
ENDROOT
BRANCH   5  12
ATOM     12  O   UNL     1       5.065   7.167  14.903  0.00  0.00    +0.000 OA
ATOM     13  H   UNL     1       4.284   7.743  14.893  0.00  0.00    +0.000 HD
ENDBRANCH   5  12
BRANCH   1  14
ATOM     14  C   UNL     1       5.062   4.055  19.674  0.00  0.00    +0.000 C 
BRANCH  14  19
ATOM     15  C   UNL     1       0.542   3.312  20.388  0.00  0.00    +0.000 C 
ATOM     16  C   UNL     1       1.788   2.513  20.013  0.00  0.00    +0.000 C 
ATOM     17  C   UNL     1       2.814   2.561  21.154  0.00  0.00    +0.000 C 
ATOM     18  C   UNL     1       4.175   2.007  20.734  0.00  0.00    +0.000 C 
ATOM     19  N   UNL     1       4.711   2.632  19.518  0.00  0.00    +0.000 NA
ATOM     20  C   UNL     1       3.762   2.437  18.409  0.00  0.00    +0.000 C 
ATOM     21  C   UNL     1       2.375   3.023  18.687  0.00  0.00    +0.000 C 
ENDBRANCH  14  19
ENDBRANCH   1  14
TORSDOF 3
ENDMDL
MODEL 8
REMARK VINA RESULT:      -6.3      3.722      5.388
REMARK  Name = 
REMARK  4 active torsions:
REMARK  status: ('A' for Active; 'I' for Inactive)
REMARK    1  A    between atoms: C_1  and  C_2
REMARK    2  A    between atoms: N_5  and  C_6
REMARK    3  A    between atoms: C_6  and  C_7
REMARK    4  A    between atoms: C_11  and  O_12
REMARK                            x       y       z     vdW  Elec       q    Type
REMARK                         _______ _______ _______ _____ _____    ______ ____
ROOT
ATOM      1  C   UNL     1       2.993   6.317  18.083  0.00  0.00    +0.000 A 
ATOM      2  C   UNL     1       4.273   6.849  17.849  0.00  0.00    +0.000 A 
ATOM      3  C   UNL     1       5.339   6.007  17.564  0.00  0.00    +0.000 A 
ATOM      4 BR   UNL     1       7.040   6.774  17.223  0.00  0.00    +0.000 Br
ATOM      5  C   UNL     1       5.148   4.625  17.518  0.00  0.00    +0.000 A 
ATOM      6  C   UNL     1       3.897   4.046  17.765  0.00  0.00    +0.000 A 
ATOM      7  N   UNL     1       3.752   2.703  17.725  0.00  0.00    +0.000 NA
ATOM      8  C   UNL     1       2.542   2.165  17.968  0.00  0.00    +0.000 A 
ATOM      9  C   UNL     1       1.421   2.910  18.251  0.00  0.00    +0.000 A 
ATOM     10  C   UNL     1       1.557   4.290  18.284  0.00  0.00    +0.000 A 
ATOM     11  C   UNL     1       2.804   4.905  18.050  0.00  0.00    +0.000 A 
ENDROOT
BRANCH   5  12
ATOM     12  O   UNL     1       6.211   3.798  17.214  0.00  0.00    +0.000 OA
ATOM     13  H   UNL     1       6.980   4.357  17.016  0.00  0.00    +0.000 HD
ENDBRANCH   5  12
BRANCH   1  14
ATOM     14  C   UNL     1       1.856   7.299  18.322  0.00  0.00    +0.000 C 
BRANCH  14  19
ATOM     15  C   UNL     1      -1.739  10.205  18.673  0.00  0.00    +0.000 C 
ATOM     16  C   UNL     1      -0.253  10.175  19.025  0.00  0.00    +0.000 C 
ATOM     17  C   UNL     1       0.592  10.048  17.750  0.00  0.00    +0.000 C 
ATOM     18  C   UNL     1       2.059   9.747  18.054  0.00  0.00    +0.000 C 
ATOM     19  N   UNL     1       2.249   8.583  18.930  0.00  0.00    +0.000 NA
ATOM     20  C   UNL     1       1.541   8.807  20.202  0.00  0.00    +0.000 C 
ATOM     21  C   UNL     1       0.038   9.046  20.027  0.00  0.00    +0.000 C 
ENDBRANCH  14  19
ENDBRANCH   1  14
TORSDOF 3
ENDMDL
MODEL 9
REMARK VINA RESULT:      -6.3      3.821      5.034
REMARK  Name = 
REMARK  4 active torsions:
REMARK  status: ('A' for Active; 'I' for Inactive)
REMARK    1  A    between atoms: C_1  and  C_2
REMARK    2  A    between atoms: N_5  and  C_6
REMARK    3  A    between atoms: C_6  and  C_7
REMARK    4  A    between atoms: C_11  and  O_12
REMARK                            x       y       z     vdW  Elec       q    Type
REMARK                         _______ _______ _______ _____ _____    ______ ____
ROOT
ATOM      1  C   UNL     1       2.509   6.476  19.882  0.00  0.00    +0.000 A 
ATOM      2  C   UNL     1       1.618   7.510  20.217  0.00  0.00    +0.000 A 
ATOM      3  C   UNL     1       1.466   8.603  19.376  0.00  0.00    +0.000 A 
ATOM      4 BR   UNL     1       0.227   9.957  19.854  0.00  0.00    +0.000 Br
ATOM      5  C   UNL     1       2.207   8.686  18.195  0.00  0.00    +0.000 A 
ATOM      6  C   UNL     1       3.123   7.692  17.829  0.00  0.00    +0.000 A 
ATOM      7  N   UNL     1       3.832   7.813  16.685  0.00  0.00    +0.000 NA
ATOM      8  C   UNL     1       4.711   6.849  16.351  0.00  0.00    +0.000 A 
ATOM      9  C   UNL     1       4.928   5.723  17.110  0.00  0.00    +0.000 A 
ATOM     10  C   UNL     1       4.197   5.584  18.281  0.00  0.00    +0.000 A 
ATOM     11  C   UNL     1       3.274   6.570  18.684  0.00  0.00    +0.000 A 
ENDROOT
BRANCH   5  12
ATOM     12  O   UNL     1       2.035   9.769  17.355  0.00  0.00    +0.000 OA
ATOM     13  H   UNL     1       1.836   9.432  16.466  0.00  0.00    +0.000 HD
ENDBRANCH   5  12
BRANCH   1  14
ATOM     14  C   UNL     1       2.575   5.275  20.814  0.00  0.00    +0.000 C 
BRANCH  14  19
ATOM     15  C   UNL     1       3.498   1.380  18.475  0.00  0.00    +0.000 C 
ATOM     16  C   UNL     1       2.335   2.007  19.241  0.00  0.00    +0.000 C 
ATOM     17  C   UNL     1       1.883   3.303  18.553  0.00  0.00    +0.000 C 
ATOM     18  C   UNL     1       0.908   4.107  19.414  0.00  0.00    +0.000 C 
ATOM     19  N   UNL     1       1.408   4.376  20.768  0.00  0.00    +0.000 NA
ATOM     20  C   UNL     1       1.693   3.101  21.447  0.00  0.00    +0.000 C 
ATOM     21  C   UNL     1       2.722   2.237  20.711  0.00  0.00    +0.000 C 
ENDBRANCH  14  19
ENDBRANCH   1  14
TORSDOF 3
ENDMDL
