MODEL 1
REMARK VINA RESULT:      -8.9      0.000      0.000
REMARK  Name = 
REMARK  7 active torsions:
REMARK  status: ('A' for Active; 'I' for Inactive)
REMARK    1  A    between atoms: C_1  and  N_2
REMARK    2  A    between atoms: N_2  and  C_3
REMARK    3  A    between atoms: C_3  and  C_4
REMARK    4  A    between atoms: C_6  and  O_7
REMARK    5  A    between atoms: O_7  and  C_8
REMARK    6  A    between atoms: C_21  and  C_22
REMARK    7  A    between atoms: N_26  and  C_27
REMARK                            x       y       z     vdW  Elec       q    Type
REMARK                         _______ _______ _______ _____ _____    ______ ____
ROOT
ATOM      1  C   UNL     1       5.708   5.349  16.541  0.00  0.00    +0.000 A 
ATOM      2  C   UNL     1       5.370   6.695  16.390  0.00  0.00    +0.000 A 
ATOM      3  C   UNL     1       4.280   7.251  17.069  0.00  0.00    +0.000 A 
ATOM      4  C   UNL     1       3.484   6.398  17.852  0.00  0.00    +0.000 A 
ATOM      5  C   UNL     1       3.748   5.023  17.932  0.00  0.00    +0.000 A 
ATOM      6  C   UNL     1       2.760   4.449  18.771  0.00  0.00    +0.000 A 
ATOM      7  C   UNL     1       1.997   5.477  19.271  0.00  0.00    +0.000 A 
ATOM      8  N   UNL     1       2.428   6.673  18.725  0.00  0.00    +0.000 N 
ATOM      9  C   UNL     1       1.988   7.942  19.147  0.00  0.00    +0.000 C 
ATOM     10  O   UNL     1       2.059   8.229  20.334  0.00  0.00    +0.000 OA
ATOM     11  N   UNL     1       1.378   8.620  18.115  0.00  0.00    +0.000 N 
ATOM     12  C   UNL     1       0.708   9.791  18.396  0.00  0.00    +0.000 A 
ATOM     13  C   UNL     1       1.168  10.887  19.157  0.00  0.00    +0.000 A 
ATOM     14  C   UNL     1       0.125  11.793  19.169  0.00  0.00    +0.000 A 
ATOM     15  N   UNL     1      -0.903  11.156  18.533  0.00  0.00    +0.000 N 
ATOM     16  C   UNL     1      -2.301  11.527  18.499  0.00  0.00    +0.000 C 
ATOM     17  N   UNL     1      -0.522  10.007  17.928  0.00  0.00    +0.000 NA
ATOM     18  C   UNL     1       4.869   4.492  17.260  0.00  0.00    +0.000 A 
ATOM     19  H   UNL     1       0.958   8.074  17.374  0.00  0.00    +0.000 HD
ENDROOT
BRANCH  14  20
ATOM     20  C   UNL     1      -0.001  13.147  19.732  0.00  0.00    +0.000 C 
ATOM     21  F   UNL     1       1.186  13.640  20.158  0.00  0.00    +0.000 F 
ATOM     22  F   UNL     1      -0.483  14.023  18.813  0.00  0.00    +0.000 F 
ATOM     23  F   UNL     1      -0.850  13.180  20.788  0.00  0.00    +0.000 F 
ENDBRANCH  14  20
BRANCH   1  24
ATOM     24  O   UNL     1       6.843   4.776  16.003  0.00  0.00    +0.000 OA
BRANCH  24  27
ATOM     25  C   UNL     1       6.509   3.585  12.574  0.00  0.00    +0.000 A 
ATOM     26  C   UNL     1       6.218   3.701  13.919  0.00  0.00    +0.000 A 
ATOM     27  C   UNL     1       6.941   4.634  14.631  0.00  0.00    +0.000 A 
ATOM     28  N   UNL     1       7.792   5.494  14.043  0.00  0.00    +0.000 NA
ATOM     29  C   UNL     1       7.951   5.347  12.721  0.00  0.00    +0.000 A 
ATOM     30  N   UNL     1       7.376   4.410  11.952  0.00  0.00    +0.000 NA
BRANCH  25  31
ATOM     31  C   UNL     1       5.836   2.503  11.754  0.00  0.00    +0.000 C 
BRANCH  31  33
ATOM     32  C   UNL     1       6.004   0.203  11.036  0.00  0.00    +0.000 C 
ATOM     33  N   UNL     1       6.744   1.427  11.330  0.00  0.00    +0.000 NA
ATOM     34  H   UNL     1       7.225   1.729  10.483  0.00  0.00    +0.000 HD
ENDBRANCH  31  33
ENDBRANCH  25  31
ENDBRANCH  24  27
ENDBRANCH   1  24
TORSDOF 5
ENDMDL
MODEL 2
REMARK VINA RESULT:      -8.9      4.644     10.203
REMARK  Name = 
REMARK  7 active torsions:
REMARK  status: ('A' for Active; 'I' for Inactive)
REMARK    1  A    between atoms: C_1  and  N_2
REMARK    2  A    between atoms: N_2  and  C_3
REMARK    3  A    between atoms: C_3  and  C_4
REMARK    4  A    between atoms: C_6  and  O_7
REMARK    5  A    between atoms: O_7  and  C_8
REMARK    6  A    between atoms: C_21  and  C_22
REMARK    7  A    between atoms: N_26  and  C_27
REMARK                            x       y       z     vdW  Elec       q    Type
REMARK                         _______ _______ _______ _____ _____    ______ ____
ROOT
ATOM      1  C   UNL     1       0.176  11.163  19.484  0.00  0.00    +0.000 A 
ATOM      2  C   UNL     1       1.077  10.904  18.449  0.00  0.00    +0.000 A 
ATOM      3  C   UNL     1       1.777   9.695  18.381  0.00  0.00    +0.000 A 
ATOM      4  C   UNL     1       1.608   8.773  19.428  0.00  0.00    +0.000 A 
ATOM      5  C   UNL     1       0.787   9.061  20.528  0.00  0.00    +0.000 A 
ATOM      6  C   UNL     1       0.851   7.950  21.407  0.00  0.00    +0.000 A 
ATOM      7  C   UNL     1       1.598   6.978  20.788  0.00  0.00    +0.000 A 
ATOM      8  N   UNL     1       2.065   7.461  19.578  0.00  0.00    +0.000 N 
ATOM      9  C   UNL     1       2.715   6.675  18.607  0.00  0.00    +0.000 C 
ATOM     10  O   UNL     1       2.174   5.650  18.216  0.00  0.00    +0.000 OA
ATOM     11  N   UNL     1       3.987   7.144  18.365  0.00  0.00    +0.000 N 
ATOM     12  C   UNL     1       4.840   6.381  17.597  0.00  0.00    +0.000 A 
ATOM     13  C   UNL     1       4.570   5.779  16.349  0.00  0.00    +0.000 A 
ATOM     14  C   UNL     1       5.726   5.106  16.006  0.00  0.00    +0.000 A 
ATOM     15  N   UNL     1       6.550   5.245  17.088  0.00  0.00    +0.000 N 
ATOM     16  C   UNL     1       7.768   4.522  17.384  0.00  0.00    +0.000 C 
ATOM     17  N   UNL     1       6.089   6.138  17.994  0.00  0.00    +0.000 NA
ATOM     18  C   UNL     1       0.070  10.275  20.558  0.00  0.00    +0.000 A 
ATOM     19  H   UNL     1       4.449   7.659  19.104  0.00  0.00    +0.000 HD
ENDROOT
BRANCH  14  20
ATOM     20  C   UNL     1       6.106   4.341  14.807  0.00  0.00    +0.000 C 
ATOM     21  F   UNL     1       6.282   3.024  15.071  0.00  0.00    +0.000 F 
ATOM     22  F   UNL     1       5.153   4.425  13.844  0.00  0.00    +0.000 F 
ATOM     23  F   UNL     1       7.259   4.797  14.259  0.00  0.00    +0.000 F 
ENDBRANCH  14  20
BRANCH   1  24
ATOM     24  O   UNL     1      -0.638  12.277  19.535  0.00  0.00    +0.000 OA
BRANCH  24  27
ATOM     25  C   UNL     1      -3.775  11.634  17.792  0.00  0.00    +0.000 A 
ATOM     26  C   UNL     1      -2.417  11.582  18.037  0.00  0.00    +0.000 A 
ATOM     27  C   UNL     1      -1.977  12.149  19.214  0.00  0.00    +0.000 A 
ATOM     28  N   UNL     1      -2.820  12.608  20.156  0.00  0.00    +0.000 NA
ATOM     29  C   UNL     1      -4.123  12.549  19.853  0.00  0.00    +0.000 A 
ATOM     30  N   UNL     1      -4.651  12.113  18.699  0.00  0.00    +0.000 NA
BRANCH  25  31
ATOM     31  C   UNL     1      -4.316  11.135  16.468  0.00  0.00    +0.000 C 
BRANCH  31  33
ATOM     32  C   UNL     1      -3.192  10.169  14.559  0.00  0.00    +0.000 C 
ATOM     33  N   UNL     1      -3.423  11.389  15.327  0.00  0.00    +0.000 NA
ATOM     34  H   UNL     1      -3.868  12.078  14.720  0.00  0.00    +0.000 HD
ENDBRANCH  31  33
ENDBRANCH  25  31
ENDBRANCH  24  27
ENDBRANCH   1  24
TORSDOF 5
ENDMDL
MODEL 3
REMARK VINA RESULT:      -8.7      3.629      5.674
REMARK  Name = 
REMARK  7 active torsions:
REMARK  status: ('A' for Active; 'I' for Inactive)
REMARK    1  A    between atoms: C_1  and  N_2
REMARK    2  A    between atoms: N_2  and  C_3
REMARK    3  A    between atoms: C_3  and  C_4
REMARK    4  A    between atoms: C_6  and  O_7
REMARK    5  A    between atoms: O_7  and  C_8
REMARK    6  A    between atoms: C_21  and  C_22
REMARK    7  A    between atoms: N_26  and  C_27
REMARK                            x       y       z     vdW  Elec       q    Type
REMARK                         _______ _______ _______ _____ _____    ______ ____
ROOT
ATOM      1  C   UNL     1       2.364   6.365  19.688  0.00  0.00    +0.000 A 
ATOM      2  C   UNL     1       1.720   6.769  20.858  0.00  0.00    +0.000 A 
ATOM      3  C   UNL     1       1.100   8.021  20.951  0.00  0.00    +0.000 A 
ATOM      4  C   UNL     1       1.209   8.895  19.857  0.00  0.00    +0.000 A 
ATOM      5  C   UNL     1       1.941   8.545  18.713  0.00  0.00    +0.000 A 
ATOM      6  C   UNL     1       1.876   9.641  17.816  0.00  0.00    +0.000 A 
ATOM      7  C   UNL     1       1.029  10.573  18.364  0.00  0.00    +0.000 A 
ATOM      8  N   UNL     1       0.609  10.132  19.607  0.00  0.00    +0.000 N 
ATOM      9  C   UNL     1      -0.398  10.753  20.370  0.00  0.00    +0.000 C 
ATOM     10  O   UNL     1      -1.489  10.961  19.855  0.00  0.00    +0.000 OA
ATOM     11  N   UNL     1       0.094  11.180  21.583  0.00  0.00    +0.000 N 
ATOM     12  C   UNL     1      -0.696  11.986  22.373  0.00  0.00    +0.000 A 
ATOM     13  C   UNL     1      -2.049  11.790  22.726  0.00  0.00    +0.000 A 
ATOM     14  C   UNL     1      -2.391  12.879  23.502  0.00  0.00    +0.000 A 
ATOM     15  N   UNL     1      -1.293  13.693  23.472  0.00  0.00    +0.000 N 
ATOM     16  C   UNL     1      -1.194  15.076  23.883  0.00  0.00    +0.000 C 
ATOM     17  N   UNL     1      -0.209  13.100  22.920  0.00  0.00    +0.000 NA
ATOM     18  C   UNL     1       2.533   7.267  18.634  0.00  0.00    +0.000 A 
ATOM     19  H   UNL     1       1.083  11.386  21.645  0.00  0.00    +0.000 HD
ENDROOT
BRANCH  14  20
ATOM     20  C   UNL     1      -3.626  13.231  24.221  0.00  0.00    +0.000 C 
ATOM     21  F   UNL     1      -4.459  13.993  23.473  0.00  0.00    +0.000 F 
ATOM     22  F   UNL     1      -4.323  12.123  24.581  0.00  0.00    +0.000 F 
ATOM     23  F   UNL     1      -3.370  13.920  25.361  0.00  0.00    +0.000 F 
ENDBRANCH  14  20
BRANCH   1  24
ATOM     24  O   UNL     1       2.878   5.098  19.492  0.00  0.00    +0.000 OA
BRANCH  24  27
ATOM     25  C   UNL     1       6.098   5.386  17.806  0.00  0.00    +0.000 A 
ATOM     26  C   UNL     1       5.166   5.541  18.813  0.00  0.00    +0.000 A 
ATOM     27  C   UNL     1       3.944   4.930  18.627  0.00  0.00    +0.000 A 
ATOM     28  N   UNL     1       3.697   4.104  17.595  0.00  0.00    +0.000 NA
ATOM     29  C   UNL     1       4.692   3.962  16.709  0.00  0.00    +0.000 A 
ATOM     30  N   UNL     1       5.878   4.588  16.741  0.00  0.00    +0.000 NA
BRANCH  25  31
ATOM     31  C   UNL     1       7.418   6.123  17.889  0.00  0.00    +0.000 C 
BRANCH  31  33
ATOM     32  C   UNL     1       8.044   8.456  17.831  0.00  0.00    +0.000 C 
ATOM     33  N   UNL     1       7.468   7.346  17.076  0.00  0.00    +0.000 NA
ATOM     34  H   UNL     1       8.056   7.167  16.262  0.00  0.00    +0.000 HD
ENDBRANCH  31  33
ENDBRANCH  25  31
ENDBRANCH  24  27
ENDBRANCH   1  24
TORSDOF 5
ENDMDL
MODEL 4
REMARK VINA RESULT:      -8.7      0.749      1.162
REMARK  Name = 
REMARK  7 active torsions:
REMARK  status: ('A' for Active; 'I' for Inactive)
REMARK    1  A    between atoms: C_1  and  N_2
REMARK    2  A    between atoms: N_2  and  C_3
REMARK    3  A    between atoms: C_3  and  C_4
REMARK    4  A    between atoms: C_6  and  O_7
REMARK    5  A    between atoms: O_7  and  C_8
REMARK    6  A    between atoms: C_21  and  C_22
REMARK    7  A    between atoms: N_26  and  C_27
REMARK                            x       y       z     vdW  Elec       q    Type
REMARK                         _______ _______ _______ _____ _____    ______ ____
ROOT
ATOM      1  C   UNL     1       5.614   5.292  16.523  0.00  0.00    +0.000 A 
ATOM      2  C   UNL     1       5.281   6.635  16.344  0.00  0.00    +0.000 A 
ATOM      3  C   UNL     1       4.209   7.216  17.032  0.00  0.00    +0.000 A 
ATOM      4  C   UNL     1       3.426   6.389  17.855  0.00  0.00    +0.000 A 
ATOM      5  C   UNL     1       3.684   5.015  17.966  0.00  0.00    +0.000 A 
ATOM      6  C   UNL     1       2.712   4.470  18.842  0.00  0.00    +0.000 A 
ATOM      7  C   UNL     1       1.967   5.515  19.332  0.00  0.00    +0.000 A 
ATOM      8  N   UNL     1       2.393   6.694  18.744  0.00  0.00    +0.000 N 
ATOM      9  C   UNL     1       1.969   7.976  19.141  0.00  0.00    +0.000 C 
ATOM     10  O   UNL     1       2.069   8.295  20.318  0.00  0.00    +0.000 OA
ATOM     11  N   UNL     1       1.340   8.631  18.106  0.00  0.00    +0.000 N 
ATOM     12  C   UNL     1       0.682   9.813  18.370  0.00  0.00    +0.000 A 
ATOM     13  C   UNL     1       1.166  10.926  19.092  0.00  0.00    +0.000 A 
ATOM     14  C   UNL     1       0.129  11.838  19.102  0.00  0.00    +0.000 A 
ATOM     15  N   UNL     1      -0.917  11.191  18.507  0.00  0.00    +0.000 N 
ATOM     16  C   UNL     1      -2.313  11.570  18.495  0.00  0.00    +0.000 C 
ATOM     17  N   UNL     1      -0.556  10.024  17.925  0.00  0.00    +0.000 NA
ATOM     18  C   UNL     1       4.787   4.460  17.283  0.00  0.00    +0.000 A 
ATOM     19  H   UNL     1       0.899   8.068  17.389  0.00  0.00    +0.000 HD
ENDROOT
BRANCH  14  20
ATOM     20  C   UNL     1       0.024  13.207  19.631  0.00  0.00    +0.000 C 
ATOM     21  F   UNL     1      -0.821  13.288  20.687  0.00  0.00    +0.000 F 
ATOM     22  F   UNL     1       1.228  13.669  20.055  0.00  0.00    +0.000 F 
ATOM     23  F   UNL     1      -0.423  14.080  18.695  0.00  0.00    +0.000 F 
ENDBRANCH  14  20
BRANCH   1  24
ATOM     24  O   UNL     1       6.734   4.698  15.975  0.00  0.00    +0.000 OA
BRANCH  24  27
ATOM     25  C   UNL     1       6.318   3.681  12.499  0.00  0.00    +0.000 A 
ATOM     26  C   UNL     1       6.020   3.783  13.843  0.00  0.00    +0.000 A 
ATOM     27  C   UNL     1       6.838   4.595  14.600  0.00  0.00    +0.000 A 
ATOM     28  N   UNL     1       7.796   5.367  14.056  0.00  0.00    +0.000 NA
ATOM     29  C   UNL     1       7.959   5.249  12.732  0.00  0.00    +0.000 A 
ATOM     30  N   UNL     1       7.288   4.418  11.920  0.00  0.00    +0.000 NA
BRANCH  25  31
ATOM     31  C   UNL     1       5.534   2.720  11.630  0.00  0.00    +0.000 C 
BRANCH  31  33
ATOM     32  C   UNL     1       3.800   3.875  10.407  0.00  0.00    +0.000 C 
ATOM     33  N   UNL     1       4.097   3.023  11.555  0.00  0.00    +0.000 NA
ATOM     34  H   UNL     1       3.589   2.145  11.450  0.00  0.00    +0.000 HD
ENDBRANCH  31  33
ENDBRANCH  25  31
ENDBRANCH  24  27
ENDBRANCH   1  24
TORSDOF 5
ENDMDL
MODEL 5
REMARK VINA RESULT:      -8.5      3.254      5.245
REMARK  Name = 
REMARK  7 active torsions:
REMARK  status: ('A' for Active; 'I' for Inactive)
REMARK    1  A    between atoms: C_1  and  N_2
REMARK    2  A    between atoms: N_2  and  C_3
REMARK    3  A    between atoms: C_3  and  C_4
REMARK    4  A    between atoms: C_6  and  O_7
REMARK    5  A    between atoms: O_7  and  C_8
REMARK    6  A    between atoms: C_21  and  C_22
REMARK    7  A    between atoms: N_26  and  C_27
REMARK                            x       y       z     vdW  Elec       q    Type
REMARK                         _______ _______ _______ _____ _____    ______ ____
ROOT
ATOM      1  C   UNL     1       2.248   6.479  19.608  0.00  0.00    +0.000 A 
ATOM      2  C   UNL     1       1.592   6.870  20.776  0.00  0.00    +0.000 A 
ATOM      3  C   UNL     1       1.003   8.135  20.890  0.00  0.00    +0.000 A 
ATOM      4  C   UNL     1       1.157   9.034  19.821  0.00  0.00    +0.000 A 
ATOM      5  C   UNL     1       1.902   8.694  18.682  0.00  0.00    +0.000 A 
ATOM      6  C   UNL     1       1.884   9.814  17.813  0.00  0.00    +0.000 A 
ATOM      7  C   UNL     1       1.051  10.754  18.370  0.00  0.00    +0.000 A 
ATOM      8  N   UNL     1       0.596  10.293  19.592  0.00  0.00    +0.000 N 
ATOM      9  C   UNL     1      -0.410  10.921  20.352  0.00  0.00    +0.000 C 
ATOM     10  O   UNL     1      -1.484  11.172  19.822  0.00  0.00    +0.000 OA
ATOM     11  N   UNL     1       0.070  11.303  21.585  0.00  0.00    +0.000 N 
ATOM     12  C   UNL     1      -0.714  12.110  22.380  0.00  0.00    +0.000 A 
ATOM     13  C   UNL     1      -2.078  11.941  22.702  0.00  0.00    +0.000 A 
ATOM     14  C   UNL     1      -2.406  13.020  23.500  0.00  0.00    +0.000 A 
ATOM     15  N   UNL     1      -1.287  13.804  23.512  0.00  0.00    +0.000 N 
ATOM     16  C   UNL     1      -1.159  15.173  23.961  0.00  0.00    +0.000 C 
ATOM     17  N   UNL     1      -0.208  13.196  22.965  0.00  0.00    +0.000 NA
ATOM     18  C   UNL     1       2.461   7.402  18.581  0.00  0.00    +0.000 A 
ATOM     19  H   UNL     1       1.063  11.481  21.671  0.00  0.00    +0.000 HD
ENDROOT
BRANCH  14  20
ATOM     20  C   UNL     1      -3.645  13.386  24.204  0.00  0.00    +0.000 C 
ATOM     21  F   UNL     1      -3.421  13.733  25.494  0.00  0.00    +0.000 F 
ATOM     22  F   UNL     1      -4.257  14.444  23.613  0.00  0.00    +0.000 F 
ATOM     23  F   UNL     1      -4.542  12.370  24.214  0.00  0.00    +0.000 F 
ENDBRANCH  14  20
BRANCH   1  24
ATOM     24  O   UNL     1       2.732   5.204  19.388  0.00  0.00    +0.000 OA
BRANCH  24  27
ATOM     25  C   UNL     1       5.533   4.299  17.238  0.00  0.00    +0.000 A 
ATOM     26  C   UNL     1       4.218   4.516  17.596  0.00  0.00    +0.000 A 
ATOM     27  C   UNL     1       3.996   5.046  18.849  0.00  0.00    +0.000 A 
ATOM     28  N   UNL     1       4.995   5.470  19.644  0.00  0.00    +0.000 NA
ATOM     29  C   UNL     1       6.235   5.281  19.175  0.00  0.00    +0.000 A 
ATOM     30  N   UNL     1       6.564   4.684  18.019  0.00  0.00    +0.000 NA
BRANCH  25  31
ATOM     31  C   UNL     1       5.847   3.614  15.924  0.00  0.00    +0.000 C 
BRANCH  31  33
ATOM     32  C   UNL     1       6.226   3.994  13.569  0.00  0.00    +0.000 C 
ATOM     33  N   UNL     1       6.450   4.502  14.919  0.00  0.00    +0.000 NA
ATOM     34  H   UNL     1       6.012   5.420  14.999  0.00  0.00    +0.000 HD
ENDBRANCH  31  33
ENDBRANCH  25  31
ENDBRANCH  24  27
ENDBRANCH   1  24
TORSDOF 5
ENDMDL
MODEL 6
REMARK VINA RESULT:      -8.5      4.919     11.623
REMARK  Name = 
REMARK  7 active torsions:
REMARK  status: ('A' for Active; 'I' for Inactive)
REMARK    1  A    between atoms: C_1  and  N_2
REMARK    2  A    between atoms: N_2  and  C_3
REMARK    3  A    between atoms: C_3  and  C_4
REMARK    4  A    between atoms: C_6  and  O_7
REMARK    5  A    between atoms: O_7  and  C_8
REMARK    6  A    between atoms: C_21  and  C_22
REMARK    7  A    between atoms: N_26  and  C_27
REMARK                            x       y       z     vdW  Elec       q    Type
REMARK                         _______ _______ _______ _____ _____    ______ ____
ROOT
ATOM      1  C   UNL     1      -2.916  11.418  18.087  0.00  0.00    +0.000 A 
ATOM      2  C   UNL     1      -2.423  10.279  17.449  0.00  0.00    +0.000 A 
ATOM      3  C   UNL     1      -1.190   9.722  17.807  0.00  0.00    +0.000 A 
ATOM      4  C   UNL     1      -0.421  10.387  18.777  0.00  0.00    +0.000 A 
ATOM      5  C   UNL     1      -0.855  11.590  19.353  0.00  0.00    +0.000 A 
ATOM      6  C   UNL     1       0.148  12.009  20.264  0.00  0.00    +0.000 A 
ATOM      7  C   UNL     1       1.099  11.019  20.314  0.00  0.00    +0.000 A 
ATOM      8  N   UNL     1       0.765  10.020  19.417  0.00  0.00    +0.000 N 
ATOM      9  C   UNL     1       1.423   8.778  19.333  0.00  0.00    +0.000 C 
ATOM     10  O   UNL     1       1.544   8.102  20.346  0.00  0.00    +0.000 OA
ATOM     11  N   UNL     1       1.980   8.598  18.087  0.00  0.00    +0.000 N 
ATOM     12  C   UNL     1       2.832   7.533  17.888  0.00  0.00    +0.000 A 
ATOM     13  C   UNL     1       2.625   6.184  18.249  0.00  0.00    +0.000 A 
ATOM     14  C   UNL     1       3.772   5.518  17.864  0.00  0.00    +0.000 A 
ATOM     15  N   UNL     1       4.615   6.496  17.417  0.00  0.00    +0.000 N 
ATOM     16  C   UNL     1       6.034   6.402  17.151  0.00  0.00    +0.000 C 
ATOM     17  N   UNL     1       4.008   7.699  17.284  0.00  0.00    +0.000 NA
ATOM     18  C   UNL     1      -2.114  12.115  18.996  0.00  0.00    +0.000 A 
ATOM     19  H   UNL     1       2.224   9.424  17.555  0.00  0.00    +0.000 HD
ENDROOT
BRANCH  14  20
ATOM     20  C   UNL     1       4.150   4.096  17.906  0.00  0.00    +0.000 C 
ATOM     21  F   UNL     1       5.125   3.849  18.812  0.00  0.00    +0.000 F 
ATOM     22  F   UNL     1       3.093   3.312  18.241  0.00  0.00    +0.000 F 
ATOM     23  F   UNL     1       4.599   3.656  16.705  0.00  0.00    +0.000 F 
ENDBRANCH  14  20
BRANCH   1  24
ATOM     24  O   UNL     1      -4.178  11.936  17.870  0.00  0.00    +0.000 OA
BRANCH  24  27
ATOM     25  C   UNL     1      -6.450  11.854  20.720  0.00  0.00    +0.000 A 
ATOM     26  C   UNL     1      -5.490  12.362  19.868  0.00  0.00    +0.000 A 
ATOM     27  C   UNL     1      -5.198  11.614  18.747  0.00  0.00    +0.000 A 
ATOM     28  N   UNL     1      -5.897  10.516  18.407  0.00  0.00    +0.000 NA
ATOM     29  C   UNL     1      -6.857  10.146  19.263  0.00  0.00    +0.000 A 
ATOM     30  N   UNL     1      -7.154  10.741  20.429  0.00  0.00    +0.000 NA
BRANCH  25  31
ATOM     31  C   UNL     1      -6.740  12.563  22.027  0.00  0.00    +0.000 C 
BRANCH  31  33
ATOM     32  C   UNL     1      -5.961  12.530  24.314  0.00  0.00    +0.000 C 
ATOM     33  N   UNL     1      -5.572  12.675  22.914  0.00  0.00    +0.000 NA
ATOM     34  H   UNL     1      -4.918  11.929  22.678  0.00  0.00    +0.000 HD
ENDBRANCH  31  33
ENDBRANCH  25  31
ENDBRANCH  24  27
ENDBRANCH   1  24
TORSDOF 5
ENDMDL
MODEL 7
REMARK VINA RESULT:      -8.3      4.609     10.983
REMARK  Name = 
REMARK  7 active torsions:
REMARK  status: ('A' for Active; 'I' for Inactive)
REMARK    1  A    between atoms: C_1  and  N_2
REMARK    2  A    between atoms: N_2  and  C_3
REMARK    3  A    between atoms: C_3  and  C_4
REMARK    4  A    between atoms: C_6  and  O_7
REMARK    5  A    between atoms: O_7  and  C_8
REMARK    6  A    between atoms: C_21  and  C_22
REMARK    7  A    between atoms: N_26  and  C_27
REMARK                            x       y       z     vdW  Elec       q    Type
REMARK                         _______ _______ _______ _____ _____    ______ ____
ROOT
ATOM      1  C   UNL     1       0.220  11.336  19.289  0.00  0.00    +0.000 A 
ATOM      2  C   UNL     1       1.120  11.035  18.266  0.00  0.00    +0.000 A 
ATOM      3  C   UNL     1       1.803   9.814  18.236  0.00  0.00    +0.000 A 
ATOM      4  C   UNL     1       1.617   8.926  19.309  0.00  0.00    +0.000 A 
ATOM      5  C   UNL     1       0.796   9.257  20.397  0.00  0.00    +0.000 A 
ATOM      6  C   UNL     1       0.841   8.172  21.308  0.00  0.00    +0.000 A 
ATOM      7  C   UNL     1       1.577   7.171  20.721  0.00  0.00    +0.000 A 
ATOM      8  N   UNL     1       2.054   7.613  19.499  0.00  0.00    +0.000 N 
ATOM      9  C   UNL     1       2.697   6.789  18.555  0.00  0.00    +0.000 C 
ATOM     10  O   UNL     1       2.143   5.761  18.192  0.00  0.00    +0.000 OA
ATOM     11  N   UNL     1       3.976   7.232  18.304  0.00  0.00    +0.000 N 
ATOM     12  C   UNL     1       4.820   6.435  17.562  0.00  0.00    +0.000 A 
ATOM     13  C   UNL     1       4.547   5.800  16.331  0.00  0.00    +0.000 A 
ATOM     14  C   UNL     1       5.694   5.101  16.013  0.00  0.00    +0.000 A 
ATOM     15  N   UNL     1       6.516   5.260  17.093  0.00  0.00    +0.000 N 
ATOM     16  C   UNL     1       7.722   4.529  17.415  0.00  0.00    +0.000 C 
ATOM     17  N   UNL     1       6.064   6.185  17.971  0.00  0.00    +0.000 NA
ATOM     18  C   UNL     1       0.097  10.482  20.389  0.00  0.00    +0.000 A 
ATOM     19  H   UNL     1       4.443   7.762  19.029  0.00  0.00    +0.000 HD
ENDROOT
BRANCH  14  20
ATOM     20  C   UNL     1       6.067   4.296  14.839  0.00  0.00    +0.000 C 
ATOM     21  F   UNL     1       7.222   4.716  14.271  0.00  0.00    +0.000 F 
ATOM     22  F   UNL     1       6.243   2.990  15.168  0.00  0.00    +0.000 F 
ATOM     23  F   UNL     1       5.112   4.331  13.876  0.00  0.00    +0.000 F 
ENDBRANCH  14  20
BRANCH   1  24
ATOM     24  O   UNL     1      -0.579  12.463  19.304  0.00  0.00    +0.000 OA
BRANCH  24  27
ATOM     25  C   UNL     1      -4.159  12.446  19.991  0.00  0.00    +0.000 A 
ATOM     26  C   UNL     1      -2.828  12.769  20.164  0.00  0.00    +0.000 A 
ATOM     27  C   UNL     1      -1.950  12.319  19.201  0.00  0.00    +0.000 A 
ATOM     28  N   UNL     1      -2.362  11.716  18.071  0.00  0.00    +0.000 NA
ATOM     29  C   UNL     1      -3.681  11.511  17.965  0.00  0.00    +0.000 A 
ATOM     30  N   UNL     1      -4.608  11.817  18.885  0.00  0.00    +0.000 NA
BRANCH  25  31
ATOM     31  C   UNL     1      -5.162  12.808  21.067  0.00  0.00    +0.000 C 
BRANCH  31  33
ATOM     32  C   UNL     1      -7.400  12.406  21.885  0.00  0.00    +0.000 C 
ATOM     33  N   UNL     1      -6.230  11.813  21.242  0.00  0.00    +0.000 NA
ATOM     34  H   UNL     1      -6.504  11.470  20.321  0.00  0.00    +0.000 HD
ENDBRANCH  31  33
ENDBRANCH  25  31
ENDBRANCH  24  27
ENDBRANCH   1  24
TORSDOF 5
ENDMDL
MODEL 8
REMARK VINA RESULT:      -8.1      4.662     10.705
REMARK  Name = 
REMARK  7 active torsions:
REMARK  status: ('A' for Active; 'I' for Inactive)
REMARK    1  A    between atoms: C_1  and  N_2
REMARK    2  A    between atoms: N_2  and  C_3
REMARK    3  A    between atoms: C_3  and  C_4
REMARK    4  A    between atoms: C_6  and  O_7
REMARK    5  A    between atoms: O_7  and  C_8
REMARK    6  A    between atoms: C_21  and  C_22
REMARK    7  A    between atoms: N_26  and  C_27
REMARK                            x       y       z     vdW  Elec       q    Type
REMARK                         _______ _______ _______ _____ _____    ______ ____
ROOT
ATOM      1  C   UNL     1       0.155  11.390  19.237  0.00  0.00    +0.000 A 
ATOM      2  C   UNL     1       1.050  11.066  18.217  0.00  0.00    +0.000 A 
ATOM      3  C   UNL     1       1.741   9.850  18.215  0.00  0.00    +0.000 A 
ATOM      4  C   UNL     1       1.568   8.990  19.313  0.00  0.00    +0.000 A 
ATOM      5  C   UNL     1       0.753   9.345  20.397  0.00  0.00    +0.000 A 
ATOM      6  C   UNL     1       0.810   8.286  21.337  0.00  0.00    +0.000 A 
ATOM      7  C   UNL     1       1.549   7.274  20.772  0.00  0.00    +0.000 A 
ATOM      8  N   UNL     1       2.015   7.685  19.536  0.00  0.00    +0.000 N 
ATOM      9  C   UNL     1       2.657   6.841  18.610  0.00  0.00    +0.000 C 
ATOM     10  O   UNL     1       2.107   5.799  18.278  0.00  0.00    +0.000 OA
ATOM     11  N   UNL     1       3.931   7.284  18.338  0.00  0.00    +0.000 N 
ATOM     12  C   UNL     1       4.776   6.473  17.612  0.00  0.00    +0.000 A 
ATOM     13  C   UNL     1       4.499   5.803  16.401  0.00  0.00    +0.000 A 
ATOM     14  C   UNL     1       5.649   5.103  16.094  0.00  0.00    +0.000 A 
ATOM     15  N   UNL     1       6.477   5.297  17.164  0.00  0.00    +0.000 N 
ATOM     16  C   UNL     1       7.690   4.583  17.498  0.00  0.00    +0.000 C 
ATOM     17  N   UNL     1       6.025   6.243  18.020  0.00  0.00    +0.000 NA
ATOM     18  C   UNL     1       0.045  10.565  20.360  0.00  0.00    +0.000 A 
ATOM     19  H   UNL     1       4.400   7.837  19.046  0.00  0.00    +0.000 HD
ENDROOT
BRANCH  14  20
ATOM     20  C   UNL     1       6.019   4.269  14.940  0.00  0.00    +0.000 C 
ATOM     21  F   UNL     1       7.229   4.601  14.431  0.00  0.00    +0.000 F 
ATOM     22  F   UNL     1       6.082   2.955  15.277  0.00  0.00    +0.000 F 
ATOM     23  F   UNL     1       5.119   4.371  13.931  0.00  0.00    +0.000 F 
ENDBRANCH  14  20
BRANCH   1  24
ATOM     24  O   UNL     1      -0.651  12.511  19.226  0.00  0.00    +0.000 OA
BRANCH  24  27
ATOM     25  C   UNL     1      -4.188  11.720  18.831  0.00  0.00    +0.000 A 
ATOM     26  C   UNL     1      -2.833  11.676  18.568  0.00  0.00    +0.000 A 
ATOM     27  C   UNL     1      -2.011  12.367  19.433  0.00  0.00    +0.000 A 
ATOM     28  N   UNL     1      -2.466  12.943  20.560  0.00  0.00    +0.000 NA
ATOM     29  C   UNL     1      -3.788  12.868  20.762  0.00  0.00    +0.000 A 
ATOM     30  N   UNL     1      -4.687  12.311  19.936  0.00  0.00    +0.000 NA
BRANCH  25  31
ATOM     31  C   UNL     1      -5.159  11.081  17.860  0.00  0.00    +0.000 C 
BRANCH  31  33
ATOM     32  C   UNL     1      -6.395  13.021  17.122  0.00  0.00    +0.000 C 
ATOM     33  N   UNL     1      -5.505  11.936  16.716  0.00  0.00    +0.000 NA
ATOM     34  H   UNL     1      -4.645  12.341  16.347  0.00  0.00    +0.000 HD
ENDBRANCH  31  33
ENDBRANCH  25  31
ENDBRANCH  24  27
ENDBRANCH   1  24
TORSDOF 5
ENDMDL
MODEL 9
REMARK VINA RESULT:      -8.0      4.965     12.063
REMARK  Name = 
REMARK  7 active torsions:
REMARK  status: ('A' for Active; 'I' for Inactive)
REMARK    1  A    between atoms: C_1  and  N_2
REMARK    2  A    between atoms: N_2  and  C_3
REMARK    3  A    between atoms: C_3  and  C_4
REMARK    4  A    between atoms: C_6  and  O_7
REMARK    5  A    between atoms: O_7  and  C_8
REMARK    6  A    between atoms: C_21  and  C_22
REMARK    7  A    between atoms: N_26  and  C_27
REMARK                            x       y       z     vdW  Elec       q    Type
REMARK                         _______ _______ _______ _____ _____    ______ ____
ROOT
ATOM      1  C   UNL     1      -3.104  11.704  18.771  0.00  0.00    +0.000 A 
ATOM      2  C   UNL     1      -2.675  10.588  18.051  0.00  0.00    +0.000 A 
ATOM      3  C   UNL     1      -1.444   9.978  18.320  0.00  0.00    +0.000 A 
ATOM      4  C   UNL     1      -0.613  10.568  19.287  0.00  0.00    +0.000 A 
ATOM      5  C   UNL     1      -0.983  11.749  19.946  0.00  0.00    +0.000 A 
ATOM      6  C   UNL     1       0.072  12.091  20.830  0.00  0.00    +0.000 A 
ATOM      7  C   UNL     1       0.994  11.073  20.783  0.00  0.00    +0.000 A 
ATOM      8  N   UNL     1       0.590  10.134  19.851  0.00  0.00    +0.000 N 
ATOM      9  C   UNL     1       1.205   8.880  19.670  0.00  0.00    +0.000 C 
ATOM     10  O   UNL     1       1.351   8.147  20.639  0.00  0.00    +0.000 OA
ATOM     11  N   UNL     1       1.699   8.753  18.392  0.00  0.00    +0.000 N 
ATOM     12  C   UNL     1       2.509   7.677  18.098  0.00  0.00    +0.000 A 
ATOM     13  C   UNL     1       2.277   6.316  18.396  0.00  0.00    +0.000 A 
ATOM     14  C   UNL     1       3.385   5.641  17.923  0.00  0.00    +0.000 A 
ATOM     15  N   UNL     1       4.237   6.618  17.489  0.00  0.00    +0.000 N 
ATOM     16  C   UNL     1       5.638   6.499  17.153  0.00  0.00    +0.000 C 
ATOM     17  N   UNL     1       3.661   7.843  17.449  0.00  0.00    +0.000 NA
ATOM     18  C   UNL     1      -2.241  12.328  19.677  0.00  0.00    +0.000 A 
ATOM     19  H   UNL     1       1.944   9.599  17.893  0.00  0.00    +0.000 HD
ENDROOT
BRANCH  14  20
ATOM     20  C   UNL     1       3.721   4.209  17.871  0.00  0.00    +0.000 C 
ATOM     21  F   UNL     1       4.112   3.816  16.636  0.00  0.00    +0.000 F 
ATOM     22  F   UNL     1       4.738   3.908  18.720  0.00  0.00    +0.000 F 
ATOM     23  F   UNL     1       2.671   3.429  18.226  0.00  0.00    +0.000 F 
ENDBRANCH  14  20
BRANCH   1  24
ATOM     24  O   UNL     1      -4.358  12.268  18.641  0.00  0.00    +0.000 OA
BRANCH  24  27
ATOM     25  C   UNL     1      -6.160  12.382  21.808  0.00  0.00    +0.000 A 
ATOM     26  C   UNL     1      -5.243  12.759  20.847  0.00  0.00    +0.000 A 
ATOM     27  C   UNL     1      -5.288  12.081  19.648  0.00  0.00    +0.000 A 
ATOM     28  N   UNL     1      -6.254  11.193  19.353  0.00  0.00    +0.000 NA
ATOM     29  C   UNL     1      -7.140  10.948  20.327  0.00  0.00    +0.000 A 
ATOM     30  N   UNL     1      -7.128  11.475  21.562  0.00  0.00    +0.000 NA
BRANCH  25  31
ATOM     31  C   UNL     1      -6.095  13.003  23.188  0.00  0.00    +0.000 C 
BRANCH  31  33
ATOM     32  C   UNL     1      -6.695  15.298  23.645  0.00  0.00    +0.000 C 
ATOM     33  N   UNL     1      -7.195  13.937  23.472  0.00  0.00    +0.000 NA
ATOM     34  H   UNL     1      -7.838  13.925  22.681  0.00  0.00    +0.000 HD
ENDBRANCH  31  33
ENDBRANCH  25  31
ENDBRANCH  24  27
ENDBRANCH   1  24
TORSDOF 5
ENDMDL
