MODEL 1
REMARK VINA RESULT:      -8.4      0.000      0.000
REMARK  Name = 
REMARK  2 active torsions:
REMARK  status: ('A' for Active; 'I' for Inactive)
REMARK    1  A    between atoms: C_1  and  N_2
REMARK    2  A    between atoms: C_3  and  C_4
REMARK                            x       y       z     vdW  Elec       q    Type
REMARK                         _______ _______ _______ _____ _____    ______ ____
ROOT
ATOM      1  C   UNL     1       0.949   8.296  21.292  0.00  0.00    +0.000 C 
ATOM      2  N   UNL     1       1.453   8.328  19.945  0.00  0.00    +0.000 N 
ATOM      3  C   UNL     1       2.137   7.354  19.257  0.00  0.00    +0.000 A 
ATOM      4  N   UNL     1       2.573   7.876  18.124  0.00  0.00    +0.000 NA
ATOM      5  N   UNL     1       2.164   9.187  18.067  0.00  0.00    +0.000 NA
ATOM      6  C   UNL     1       1.446   9.446  19.141  0.00  0.00    +0.000 A 
ATOM      7  N   UNL     1       0.844  10.604  19.533  0.00  0.00    +0.000 N 
ATOM      8  C   UNL     1       1.377  11.862  19.034  0.00  0.00    +0.000 C 
ATOM      9  C   UNL     1       0.212  12.608  18.405  0.00  0.00    +0.000 C 
ATOM     10  C   UNL     1      -1.070  11.911  18.867  0.00  0.00    +0.000 C 
ATOM     11  C   UNL     1      -1.959  12.798  19.747  0.00  0.00    +0.000 C 
ATOM     12  N   UNL     1      -3.289  12.361  19.458  0.00  0.00    +0.000 N 
ATOM     13  C   UNL     1      -3.384  11.733  18.236  0.00  0.00    +0.000 C 
ATOM     14  O   UNL     1      -4.426  11.414  17.692  0.00  0.00    +0.000 OA
ATOM     15  C   UNL     1      -1.996  11.577  17.675  0.00  0.00    +0.000 C 
ATOM     16  C   UNL     1      -0.619  10.641  19.616  0.00  0.00    +0.000 C 
ATOM     17  H   UNL     1      -4.135  12.700  19.905  0.00  0.00    +0.000 HD
ENDROOT
BRANCH   3  18
ATOM     18  C   UNL     1       2.373   5.930  19.677  0.00  0.00    +0.000 A 
ATOM     19  N   UNL     1       2.078   5.489  20.914  0.00  0.00    +0.000 NA
ATOM     20  N   UNL     1       2.415   4.189  20.902  0.00  0.00    +0.000 N 
ATOM     21  C   UNL     1       2.875   3.770  19.697  0.00  0.00    +0.000 A 
ATOM     22  C   UNL     1       2.897   4.879  18.879  0.00  0.00    +0.000 A 
ATOM     23  C   UNL     1       3.384   4.814  17.475  0.00  0.00    +0.000 C 
ATOM     24  C   UNL     1       4.243   3.542  17.269  0.00  0.00    +0.000 C 
ATOM     25  C   UNL     1       3.560   2.286  17.844  0.00  0.00    +0.000 C 
ATOM     26  C   UNL     1       3.315   2.394  19.361  0.00  0.00    +0.000 C 
ATOM     27  H   UNL     1       2.305   3.653  21.756  0.00  0.00    +0.000 HD
ENDBRANCH   3  18
TORSDOF 1
ENDMDL
MODEL 2
REMARK VINA RESULT:      -8.3      1.068      1.287
REMARK  Name = 
REMARK  2 active torsions:
REMARK  status: ('A' for Active; 'I' for Inactive)
REMARK    1  A    between atoms: C_1  and  N_2
REMARK    2  A    between atoms: C_3  and  C_4
REMARK                            x       y       z     vdW  Elec       q    Type
REMARK                         _______ _______ _______ _____ _____    ______ ____
ROOT
ATOM      1  C   UNL     1       1.089   8.621  20.736  0.00  0.00    +0.000 C 
ATOM      2  N   UNL     1       1.471   8.867  19.370  0.00  0.00    +0.000 N 
ATOM      3  C   UNL     1       2.248   8.095  18.540  0.00  0.00    +0.000 A 
ATOM      4  N   UNL     1       2.500   8.790  17.445  0.00  0.00    +0.000 NA
ATOM      5  N   UNL     1       1.877  10.011  17.555  0.00  0.00    +0.000 NA
ATOM      6  C   UNL     1       1.214  10.038  18.693  0.00  0.00    +0.000 A 
ATOM      7  N   UNL     1       0.464  11.033  19.244  0.00  0.00    +0.000 N 
ATOM      8  C   UNL     1       0.739  12.406  18.850  0.00  0.00    +0.000 C 
ATOM      9  C   UNL     1      -0.579  12.996  18.380  0.00  0.00    +0.000 C 
ATOM     10  C   UNL     1      -1.688  12.047  18.845  0.00  0.00    +0.000 C 
ATOM     11  C   UNL     1      -2.637  12.681  19.869  0.00  0.00    +0.000 C 
ATOM     12  N   UNL     1      -3.896  12.050  19.619  0.00  0.00    +0.000 N 
ATOM     13  C   UNL     1      -3.984  11.534  18.346  0.00  0.00    +0.000 C 
ATOM     14  O   UNL     1      -4.999  11.094  17.837  0.00  0.00    +0.000 OA
ATOM     15  C   UNL     1      -2.638  11.674  17.685  0.00  0.00    +0.000 C 
ATOM     16  C   UNL     1      -0.974  10.810  19.423  0.00  0.00    +0.000 C 
ATOM     17  H   UNL     1      -4.747  12.195  20.153  0.00  0.00    +0.000 HD
ENDROOT
BRANCH   3  18
ATOM     18  C   UNL     1       2.749   6.699  18.789  0.00  0.00    +0.000 A 
ATOM     19  N   UNL     1       2.296   5.946  19.808  0.00  0.00    +0.000 NA
ATOM     20  N   UNL     1       2.960   4.785  19.696  0.00  0.00    +0.000 N 
ATOM     21  C   UNL     1       3.790   4.749  18.624  0.00  0.00    +0.000 A 
ATOM     22  C   UNL     1       3.710   5.988  18.025  0.00  0.00    +0.000 A 
ATOM     23  C   UNL     1       4.518   6.337  16.825  0.00  0.00    +0.000 C 
ATOM     24  C   UNL     1       5.710   5.358  16.684  0.00  0.00    +0.000 C 
ATOM     25  C   UNL     1       5.271   3.889  16.842  0.00  0.00    +0.000 C 
ATOM     26  C   UNL     1       4.649   3.608  18.224  0.00  0.00    +0.000 C 
ATOM     27  H   UNL     1       2.796   4.065  20.392  0.00  0.00    +0.000 HD
ENDBRANCH   3  18
TORSDOF 1
ENDMDL
MODEL 3
REMARK VINA RESULT:      -8.3      1.351      1.770
REMARK  Name = 
REMARK  2 active torsions:
REMARK  status: ('A' for Active; 'I' for Inactive)
REMARK    1  A    between atoms: C_1  and  N_2
REMARK    2  A    between atoms: C_3  and  C_4
REMARK                            x       y       z     vdW  Elec       q    Type
REMARK                         _______ _______ _______ _____ _____    ______ ____
ROOT
ATOM      1  C   UNL     1       1.403   8.322  20.795  0.00  0.00    +0.000 C 
ATOM      2  N   UNL     1       1.787   8.488  19.418  0.00  0.00    +0.000 N 
ATOM      3  C   UNL     1       2.575   7.676  18.639  0.00  0.00    +0.000 A 
ATOM      4  N   UNL     1       2.823   8.306  17.503  0.00  0.00    +0.000 NA
ATOM      5  N   UNL     1       2.186   9.524  17.538  0.00  0.00    +0.000 NA
ATOM      6  C   UNL     1       1.520   9.613  18.670  0.00  0.00    +0.000 A 
ATOM      7  N   UNL     1       0.757  10.631  19.158  0.00  0.00    +0.000 N 
ATOM      8  C   UNL     1       1.019  11.981  18.682  0.00  0.00    +0.000 C 
ATOM      9  C   UNL     1      -0.304  12.527  18.174  0.00  0.00    +0.000 C 
ATOM     10  C   UNL     1      -1.404  11.596  18.692  0.00  0.00    +0.000 C 
ATOM     11  C   UNL     1      -2.363  12.280  19.674  0.00  0.00    +0.000 C 
ATOM     12  N   UNL     1      -3.614  11.622  19.460  0.00  0.00    +0.000 N 
ATOM     13  C   UNL     1      -3.693  11.029  18.220  0.00  0.00    +0.000 C 
ATOM     14  O   UNL     1      -4.702  10.547  17.737  0.00  0.00    +0.000 OA
ATOM     15  C   UNL     1      -2.347  11.142  17.555  0.00  0.00    +0.000 C 
ATOM     16  C   UNL     1      -0.679  10.404  19.347  0.00  0.00    +0.000 C 
ATOM     17  H   UNL     1      -4.469  11.789  19.982  0.00  0.00    +0.000 HD
ENDROOT
BRANCH   3  18
ATOM     18  C   UNL     1       3.090   6.304  18.973  0.00  0.00    +0.000 A 
ATOM     19  N   UNL     1       4.346   5.919  18.680  0.00  0.00    +0.000 NA
ATOM     20  N   UNL     1       4.431   4.658  19.133  0.00  0.00    +0.000 N 
ATOM     21  C   UNL     1       3.294   4.233  19.739  0.00  0.00    +0.000 A 
ATOM     22  C   UNL     1       2.383   5.261  19.627  0.00  0.00    +0.000 A 
ATOM     23  C   UNL     1       0.995   5.145  20.150  0.00  0.00    +0.000 C 
ATOM     24  C   UNL     1       0.631   3.655  20.363  0.00  0.00    +0.000 C 
ATOM     25  C   UNL     1       1.739   2.892  21.114  0.00  0.00    +0.000 C 
ATOM     26  C   UNL     1       3.077   2.899  20.350  0.00  0.00    +0.000 C 
ATOM     27  H   UNL     1       5.297   4.149  18.988  0.00  0.00    +0.000 HD
ENDBRANCH   3  18
TORSDOF 1
ENDMDL
MODEL 4
REMARK VINA RESULT:      -8.2      2.709      3.781
REMARK  Name = 
REMARK  2 active torsions:
REMARK  status: ('A' for Active; 'I' for Inactive)
REMARK    1  A    between atoms: C_1  and  N_2
REMARK    2  A    between atoms: C_3  and  C_4
REMARK                            x       y       z     vdW  Elec       q    Type
REMARK                         _______ _______ _______ _____ _____    ______ ____
ROOT
ATOM      1  C   UNL     1       1.529   9.014  17.707  0.00  0.00    +0.000 C 
ATOM      2  N   UNL     1       1.535   8.823  19.133  0.00  0.00    +0.000 N 
ATOM      3  C   UNL     1       1.899   7.711  19.852  0.00  0.00    +0.000 A 
ATOM      4  N   UNL     1       1.566   7.908  21.116  0.00  0.00    +0.000 NA
ATOM      5  N   UNL     1       0.996   9.154  21.223  0.00  0.00    +0.000 NA
ATOM      6  C   UNL     1       1.022   9.727  20.037  0.00  0.00    +0.000 A 
ATOM      7  N   UNL     1       0.561  10.948  19.645  0.00  0.00    +0.000 N 
ATOM      8  C   UNL     1      -0.504  11.565  20.419  0.00  0.00    +0.000 C 
ATOM      9  C   UNL     1      -0.015  12.952  20.801  0.00  0.00    +0.000 C 
ATOM     10  C   UNL     1       1.208  13.253  19.931  0.00  0.00    +0.000 C 
ATOM     11  C   UNL     1       0.989  14.421  18.962  0.00  0.00    +0.000 C 
ATOM     12  N   UNL     1       2.283  15.016  18.830  0.00  0.00    +0.000 N 
ATOM     13  C   UNL     1       3.107  14.728  19.894  0.00  0.00    +0.000 C 
ATOM     14  O   UNL     1       4.194  15.240  20.097  0.00  0.00    +0.000 OA
ATOM     15  C   UNL     1       2.405  13.735  20.782  0.00  0.00    +0.000 C 
ATOM     16  C   UNL     1       1.528  11.947  19.180  0.00  0.00    +0.000 C 
ATOM     17  H   UNL     1       2.520  15.791  18.218  0.00  0.00    +0.000 HD
ENDROOT
BRANCH   3  18
ATOM     18  C   UNL     1       2.564   6.464  19.339  0.00  0.00    +0.000 A 
ATOM     19  N   UNL     1       3.660   6.505  18.559  0.00  0.00    +0.000 NA
ATOM     20  N   UNL     1       3.956   5.218  18.318  0.00  0.00    +0.000 N 
ATOM     21  C   UNL     1       3.119   4.354  18.944  0.00  0.00    +0.000 A 
ATOM     22  C   UNL     1       2.176   5.123  19.592  0.00  0.00    +0.000 A 
ATOM     23  C   UNL     1       1.059   4.514  20.365  0.00  0.00    +0.000 C 
ATOM     24  C   UNL     1       0.863   3.038  19.943  0.00  0.00    +0.000 C 
ATOM     25  C   UNL     1       2.197   2.269  19.898  0.00  0.00    +0.000 C 
ATOM     26  C   UNL     1       3.189   2.874  18.886  0.00  0.00    +0.000 C 
ATOM     27  H   UNL     1       4.743   5.008  17.714  0.00  0.00    +0.000 HD
ENDBRANCH   3  18
TORSDOF 1
ENDMDL
MODEL 5
REMARK VINA RESULT:      -7.7      2.304      2.920
REMARK  Name = 
REMARK  2 active torsions:
REMARK  status: ('A' for Active; 'I' for Inactive)
REMARK    1  A    between atoms: C_1  and  N_2
REMARK    2  A    between atoms: C_3  and  C_4
REMARK                            x       y       z     vdW  Elec       q    Type
REMARK                         _______ _______ _______ _____ _____    ______ ____
ROOT
ATOM      1  C   UNL     1       1.362   9.427  22.484  0.00  0.00    +0.000 C 
ATOM      2  N   UNL     1       1.108   9.716  21.098  0.00  0.00    +0.000 N 
ATOM      3  C   UNL     1       1.388   8.951  19.992  0.00  0.00    +0.000 A 
ATOM      4  N   UNL     1       1.164   9.682  18.914  0.00  0.00    +0.000 NA
ATOM      5  N   UNL     1       0.725  10.921  19.318  0.00  0.00    +0.000 NA
ATOM      6  C   UNL     1       0.643  10.926  20.632  0.00  0.00    +0.000 A 
ATOM      7  N   UNL     1       0.275  11.926  21.482  0.00  0.00    +0.000 N 
ATOM      8  C   UNL     1       0.422  13.302  21.035  0.00  0.00    +0.000 C 
ATOM      9  C   UNL     1      -0.932  13.966  21.218  0.00  0.00    +0.000 C 
ATOM     10  C   UNL     1      -1.768  13.044  22.109  0.00  0.00    +0.000 C 
ATOM     11  C   UNL     1      -2.123  13.670  23.463  0.00  0.00    +0.000 C 
ATOM     12  N   UNL     1      -3.394  13.104  23.790  0.00  0.00    +0.000 N 
ATOM     13  C   UNL     1      -4.070  12.648  22.681  0.00  0.00    +0.000 C 
ATOM     14  O   UNL     1      -5.229  12.273  22.672  0.00  0.00    +0.000 OA
ATOM     15  C   UNL     1      -3.155  12.761  21.490  0.00  0.00    +0.000 C 
ATOM     16  C   UNL     1      -0.943  11.754  22.281  0.00  0.00    +0.000 C 
ATOM     17  H   UNL     1      -3.909  13.259  24.652  0.00  0.00    +0.000 HD
ENDROOT
BRANCH   3  18
ATOM     18  C   UNL     1       1.868   7.526  19.961  0.00  0.00    +0.000 A 
ATOM     19  N   UNL     1       1.532   6.636  20.912  0.00  0.00    +0.000 NA
ATOM     20  N   UNL     1       2.132   5.494  20.539  0.00  0.00    +0.000 N 
ATOM     21  C   UNL     1       2.806   5.607  19.367  0.00  0.00    +0.000 A 
ATOM     22  C   UNL     1       2.689   6.922  18.973  0.00  0.00    +0.000 A 
ATOM     23  C   UNL     1       3.337   7.435  17.736  0.00  0.00    +0.000 C 
ATOM     24  C   UNL     1       4.462   6.470  17.286  0.00  0.00    +0.000 C 
ATOM     25  C   UNL     1       3.996   5.001  17.288  0.00  0.00    +0.000 C 
ATOM     26  C   UNL     1       3.560   4.526  18.687  0.00  0.00    +0.000 C 
ATOM     27  H   UNL     1       2.039   4.681  21.138  0.00  0.00    +0.000 HD
ENDBRANCH   3  18
TORSDOF 1
ENDMDL
MODEL 6
REMARK VINA RESULT:      -7.7      2.797      3.818
REMARK  Name = 
REMARK  2 active torsions:
REMARK  status: ('A' for Active; 'I' for Inactive)
REMARK    1  A    between atoms: C_1  and  N_2
REMARK    2  A    between atoms: C_3  and  C_4
REMARK                            x       y       z     vdW  Elec       q    Type
REMARK                         _______ _______ _______ _____ _____    ______ ____
ROOT
ATOM      1  C   UNL     1       1.312   8.980  17.605  0.00  0.00    +0.000 C 
ATOM      2  N   UNL     1       1.496   8.744  19.013  0.00  0.00    +0.000 N 
ATOM      3  C   UNL     1       1.924   7.602  19.646  0.00  0.00    +0.000 A 
ATOM      4  N   UNL     1       1.760   7.765  20.948  0.00  0.00    +0.000 NA
ATOM      5  N   UNL     1       1.237   9.018  21.164  0.00  0.00    +0.000 NA
ATOM      6  C   UNL     1       1.125   9.628  20.002  0.00  0.00    +0.000 A 
ATOM      7  N   UNL     1       0.646  10.869  19.708  0.00  0.00    +0.000 N 
ATOM      8  C   UNL     1      -0.296  11.482  20.632  0.00  0.00    +0.000 C 
ATOM      9  C   UNL     1       0.270  12.846  20.988  0.00  0.00    +0.000 C 
ATOM     10  C   UNL     1       1.379  13.151  19.977  0.00  0.00    +0.000 C 
ATOM     11  C   UNL     1       1.065  14.354  19.079  0.00  0.00    +0.000 C 
ATOM     12  N   UNL     1       2.344  14.927  18.798  0.00  0.00    +0.000 N 
ATOM     13  C   UNL     1       3.291  14.589  19.738  0.00  0.00    +0.000 C 
ATOM     14  O   UNL     1       4.407  15.073  19.815  0.00  0.00    +0.000 OA
ATOM     15  C   UNL     1       2.685  13.582  20.680  0.00  0.00    +0.000 C 
ATOM     16  C   UNL     1       1.569  11.863  19.152  0.00  0.00    +0.000 C 
ATOM     17  H   UNL     1       2.519  15.716  18.184  0.00  0.00    +0.000 HD
ENDROOT
BRANCH   3  18
ATOM     18  C   UNL     1       2.487   6.359  19.015  0.00  0.00    +0.000 A 
ATOM     19  N   UNL     1       2.027   5.131  19.315  0.00  0.00    +0.000 NA
ATOM     20  N   UNL     1       2.758   4.297  18.558  0.00  0.00    +0.000 N 
ATOM     21  C   UNL     1       3.640   4.944  17.756  0.00  0.00    +0.000 A 
ATOM     22  C   UNL     1       3.522   6.286  18.047  0.00  0.00    +0.000 A 
ATOM     23  C   UNL     1       4.367   7.314  17.381  0.00  0.00    +0.000 C 
ATOM     24  C   UNL     1       5.616   6.649  16.751  0.00  0.00    +0.000 C 
ATOM     25  C   UNL     1       5.250   5.393  15.936  0.00  0.00    +0.000 C 
ATOM     26  C   UNL     1       4.578   4.308  16.800  0.00  0.00    +0.000 C 
ATOM     27  H   UNL     1       2.600   3.299  18.646  0.00  0.00    +0.000 HD
ENDBRANCH   3  18
TORSDOF 1
ENDMDL
MODEL 7
REMARK VINA RESULT:      -7.6      3.512      8.351
REMARK  Name = 
REMARK  2 active torsions:
REMARK  status: ('A' for Active; 'I' for Inactive)
REMARK    1  A    between atoms: C_1  and  N_2
REMARK    2  A    between atoms: C_3  and  C_4
REMARK                            x       y       z     vdW  Elec       q    Type
REMARK                         _______ _______ _______ _____ _____    ______ ____
ROOT
ATOM      1  C   UNL     1       1.812   7.975  21.058  0.00  0.00    +0.000 C 
ATOM      2  N   UNL     1       1.711   8.371  19.678  0.00  0.00    +0.000 N 
ATOM      3  C   UNL     1       1.298   9.572  19.154  0.00  0.00    +0.000 A 
ATOM      4  N   UNL     1       1.177   9.433  17.845  0.00  0.00    +0.000 NA
ATOM      5  N   UNL     1       1.522   8.144  17.514  0.00  0.00    +0.000 NA
ATOM      6  C   UNL     1       1.892   7.518  18.612  0.00  0.00    +0.000 A 
ATOM      7  N   UNL     1       2.301   6.230  18.789  0.00  0.00    +0.000 N 
ATOM      8  C   UNL     1       1.873   5.230  17.823  0.00  0.00    +0.000 C 
ATOM      9  C   UNL     1       3.131   4.539  17.326  0.00  0.00    +0.000 C 
ATOM     10  C   UNL     1       4.261   4.917  18.287  0.00  0.00    +0.000 C 
ATOM     11  C   UNL     1       4.820   3.720  19.067  0.00  0.00    +0.000 C 
ATOM     12  N   UNL     1       6.197   4.046  19.272  0.00  0.00    +0.000 N 
ATOM     13  C   UNL     1       6.665   4.961  18.357  0.00  0.00    +0.000 C 
ATOM     14  O   UNL     1       7.832   5.279  18.218  0.00  0.00    +0.000 OA
ATOM     15  C   UNL     1       5.502   5.438  17.528  0.00  0.00    +0.000 C 
ATOM     16  C   UNL     1       3.677   5.986  19.232  0.00  0.00    +0.000 C 
ATOM     17  H   UNL     1       6.864   3.494  19.803  0.00  0.00    +0.000 HD
ENDROOT
BRANCH   3  18
ATOM     18  C   UNL     1       1.021  10.850  19.897  0.00  0.00    +0.000 A 
ATOM     19  N   UNL     1       1.602  12.016  19.558  0.00  0.00    +0.000 NA
ATOM     20  N   UNL     1       1.107  12.909  20.430  0.00  0.00    +0.000 N 
ATOM     21  C   UNL     1       0.204  12.372  21.287  0.00  0.00    +0.000 A 
ATOM     22  C   UNL     1       0.143  11.025  20.998  0.00  0.00    +0.000 A 
ATOM     23  C   UNL     1      -0.726  10.093  21.766  0.00  0.00    +0.000 C 
ATOM     24  C   UNL     1      -1.120  10.728  23.121  0.00  0.00    +0.000 C 
ATOM     25  C   UNL     1      -1.607  12.181  22.958  0.00  0.00    +0.000 C 
ATOM     26  C   UNL     1      -0.526  13.098  22.354  0.00  0.00    +0.000 C 
ATOM     27  H   UNL     1       1.437  13.867  20.379  0.00  0.00    +0.000 HD
ENDBRANCH   3  18
TORSDOF 1
ENDMDL
MODEL 8
REMARK VINA RESULT:      -7.4      2.808      4.078
REMARK  Name = 
REMARK  2 active torsions:
REMARK  status: ('A' for Active; 'I' for Inactive)
REMARK    1  A    between atoms: C_1  and  N_2
REMARK    2  A    between atoms: C_3  and  C_4
REMARK                            x       y       z     vdW  Elec       q    Type
REMARK                         _______ _______ _______ _____ _____    ______ ____
ROOT
ATOM      1  C   UNL     1      -0.669  10.031  19.227  0.00  0.00    +0.000 C 
ATOM      2  N   UNL     1       0.132   9.866  20.411  0.00  0.00    +0.000 N 
ATOM      3  C   UNL     1       1.157   8.981  20.642  0.00  0.00    +0.000 A 
ATOM      4  N   UNL     1       1.479   9.045  21.923  0.00  0.00    +0.000 NA
ATOM      5  N   UNL     1       0.672   9.981  22.524  0.00  0.00    +0.000 NA
ATOM      6  C   UNL     1      -0.106  10.513  21.604  0.00  0.00    +0.000 A 
ATOM      7  N   UNL     1      -1.075  11.464  21.720  0.00  0.00    +0.000 N 
ATOM      8  C   UNL     1      -1.724  11.635  23.011  0.00  0.00    +0.000 C 
ATOM      9  C   UNL     1      -1.597  13.106  23.369  0.00  0.00    +0.000 C 
ATOM     10  C   UNL     1      -1.176  13.844  22.095  0.00  0.00    +0.000 C 
ATOM     11  C   UNL     1      -2.232  14.834  21.592  0.00  0.00    +0.000 C 
ATOM     12  N   UNL     1      -1.472  15.875  20.973  0.00  0.00    +0.000 N 
ATOM     13  C   UNL     1      -0.177  15.930  21.437  0.00  0.00    +0.000 C 
ATOM     14  O   UNL     1       0.619  16.818  21.189  0.00  0.00    +0.000 OA
ATOM     15  C   UNL     1       0.051  14.751  22.345  0.00  0.00    +0.000 C 
ATOM     16  C   UNL     1      -0.878  12.752  21.049  0.00  0.00    +0.000 C 
ATOM     17  H   UNL     1      -1.854  16.678  20.483  0.00  0.00    +0.000 HD
ENDROOT
BRANCH   3  18
ATOM     18  C   UNL     1       1.830   8.077  19.647  0.00  0.00    +0.000 A 
ATOM     19  N   UNL     1       2.364   8.543  18.502  0.00  0.00    +0.000 NA
ATOM     20  N   UNL     1       2.870   7.458  17.895  0.00  0.00    +0.000 N 
ATOM     21  C   UNL     1       2.718   6.323  18.622  0.00  0.00    +0.000 A 
ATOM     22  C   UNL     1       2.015   6.674  19.754  0.00  0.00    +0.000 A 
ATOM     23  C   UNL     1       1.625   5.672  20.783  0.00  0.00    +0.000 C 
ATOM     24  C   UNL     1       1.690   4.245  20.187  0.00  0.00    +0.000 C 
ATOM     25  C   UNL     1       3.004   4.001  19.418  0.00  0.00    +0.000 C 
ATOM     26  C   UNL     1       3.178   4.968  18.232  0.00  0.00    +0.000 C 
ATOM     27  H   UNL     1       3.302   7.570  16.984  0.00  0.00    +0.000 HD
ENDBRANCH   3  18
TORSDOF 1
ENDMDL
MODEL 9
REMARK VINA RESULT:      -7.4      2.862      3.884
REMARK  Name = 
REMARK  2 active torsions:
REMARK  status: ('A' for Active; 'I' for Inactive)
REMARK    1  A    between atoms: C_1  and  N_2
REMARK    2  A    between atoms: C_3  and  C_4
REMARK                            x       y       z     vdW  Elec       q    Type
REMARK                         _______ _______ _______ _____ _____    ______ ____
ROOT
ATOM      1  C   UNL     1       0.811   9.284  18.447  0.00  0.00    +0.000 C 
ATOM      2  N   UNL     1       1.133   9.266  19.850  0.00  0.00    +0.000 N 
ATOM      3  C   UNL     1       1.527   8.205  20.629  0.00  0.00    +0.000 A 
ATOM      4  N   UNL     1       1.527   8.598  21.892  0.00  0.00    +0.000 NA
ATOM      5  N   UNL     1       1.146   9.918  21.933  0.00  0.00    +0.000 NA
ATOM      6  C   UNL     1       0.956  10.336  20.699  0.00  0.00    +0.000 A 
ATOM      7  N   UNL     1       0.559  11.555  20.239  0.00  0.00    +0.000 N 
ATOM      8  C   UNL     1      -0.214  12.410  21.127  0.00  0.00    +0.000 C 
ATOM      9  C   UNL     1       0.508  13.746  21.181  0.00  0.00    +0.000 C 
ATOM     10  C   UNL     1       1.516  13.759  20.029  0.00  0.00    +0.000 C 
ATOM     11  C   UNL     1       1.211  14.823  18.969  0.00  0.00    +0.000 C 
ATOM     12  N   UNL     1       2.496  15.202  18.469  0.00  0.00    +0.000 N 
ATOM     13  C   UNL     1       3.510  14.925  19.358  0.00  0.00    +0.000 C 
ATOM     14  O   UNL     1       4.665  15.293  19.240  0.00  0.00    +0.000 OA
ATOM     15  C   UNL     1       2.928  14.158  20.516  0.00  0.00    +0.000 C 
ATOM     16  C   UNL     1       1.497  12.340  19.430  0.00  0.00    +0.000 C 
ATOM     17  H   UNL     1       2.669  15.856  17.712  0.00  0.00    +0.000 HD
ENDROOT
BRANCH   3  18
ATOM     18  C   UNL     1       1.902   6.823  20.175  0.00  0.00    +0.000 A 
ATOM     19  N   UNL     1       1.413   5.717  20.765  0.00  0.00    +0.000 NA
ATOM     20  N   UNL     1       1.962   4.696  20.087  0.00  0.00    +0.000 N 
ATOM     21  C   UNL     1       2.751   5.103  19.062  0.00  0.00    +0.000 A 
ATOM     22  C   UNL     1       2.768   6.481  19.104  0.00  0.00    +0.000 A 
ATOM     23  C   UNL     1       3.567   7.289  18.143  0.00  0.00    +0.000 C 
ATOM     24  C   UNL     1       4.657   6.407  17.485  0.00  0.00    +0.000 C 
ATOM     25  C   UNL     1       4.087   5.065  16.983  0.00  0.00    +0.000 C 
ATOM     26  C   UNL     1       3.486   4.221  18.123  0.00  0.00    +0.000 C 
ATOM     27  H   UNL     1       1.753   3.749  20.386  0.00  0.00    +0.000 HD
ENDBRANCH   3  18
TORSDOF 1
ENDMDL
