MODEL 1
REMARK VINA RESULT:     -10.2      0.000      0.000
REMARK  Name = 
REMARK  6 active torsions:
REMARK  status: ('A' for Active; 'I' for Inactive)
REMARK    1  A    between atoms: C_1  and  C_2
REMARK    2  A    between atoms: C_14  and  C_15
REMARK    3  A    between atoms: C_16  and  C_17
REMARK    4  A    between atoms: C_22  and  O_23
REMARK    5  A    between atoms: O_23  and  C_24
REMARK    6  A    between atoms: C_24  and  C_25
REMARK                            x       y       z     vdW  Elec       q    Type
REMARK                         _______ _______ _______ _____ _____    ______ ____
ROOT
ATOM      1  C   UNL     1       2.176   7.645  19.298  0.00  0.00    +0.000 A 
ATOM      2  C   UNL     1       2.114   8.492  18.207  0.00  0.00    +0.000 A 
ATOM      3  C   UNL     1       1.498   9.712  18.373  0.00  0.00    +0.000 A 
ATOM      4  C   UNL     1       0.963  10.040  19.614  0.00  0.00    +0.000 A 
ATOM      5  C   UNL     1       0.289  11.245  19.766  0.00  0.00    +0.000 A 
ATOM      6  C   UNL     1      -0.348  11.545  20.961  0.00  0.00    +0.000 A 
ATOM      7  C   UNL     1      -0.195  10.694  22.056  0.00  0.00    +0.000 A 
ATOM      8  C   UNL     1       0.519   9.499  21.909  0.00  0.00    +0.000 A 
ATOM      9  C   UNL     1       1.075   9.134  20.686  0.00  0.00    +0.000 A 
ATOM     10  N   UNL     1       1.682   7.950  20.525  0.00  0.00    +0.000 NA
ENDROOT
BRANCH   1  12
ATOM     11  C   UNL     1       4.103   6.138  19.446  0.00  0.00    +0.000 C 
ATOM     12  C   UNL     1       2.826   6.354  19.116  0.00  0.00    +0.000 C 
BRANCH  11  26
ATOM     13  C   UNL     1       7.742   6.644  18.667  0.00  0.00    +0.000 C 
ATOM     14  C   UNL     1       6.468   6.366  17.885  0.00  0.00    +0.000 C 
ATOM     15  O   UNL     1       6.665   6.518  16.482  0.00  0.00    +0.000 OA
ATOM     16  C   UNL     1       5.814   5.661  15.844  0.00  0.00    +0.000 C 
ATOM     17  O   UNL     1       5.397   5.828  14.709  0.00  0.00    +0.000 OA
ATOM     18  C   UNL     1       5.611   4.438  16.699  0.00  0.00    +0.000 C 
ATOM     19  C   UNL     1       4.285   3.710  16.497  0.00  0.00    +0.000 C 
ATOM     20  C   UNL     1       3.864   2.896  17.732  0.00  0.00    +0.000 C 
ATOM     21  C   UNL     1       2.543   2.135  17.478  0.00  0.00    +0.000 C 
ATOM     22  C   UNL     1       1.904   1.535  18.741  0.00  0.00    +0.000 C 
ATOM     23  C   UNL     1       1.857   2.494  19.927  0.00  0.00    +0.000 C 
ATOM     24  C   UNL     1       3.221   3.122  20.165  0.00  0.00    +0.000 C 
ATOM     25  C   UNL     1       3.650   3.863  18.890  0.00  0.00    +0.000 C 
ATOM     26  C   UNL     1       4.804   4.840  19.165  0.00  0.00    +0.000 C 
ATOM     27  C   UNL     1       5.913   4.948  18.099  0.00  0.00    +0.000 C 
ENDBRANCH  11  26
ENDBRANCH   1  12
BRANCH   6  28
ATOM     28  O   UNL     1      -1.162  12.628  21.124  0.00  0.00    +0.000 OA
BRANCH  28  29
ATOM     29  C   UNL     1      -2.505  12.390  20.683  0.00  0.00    +0.000 C 
BRANCH  29  30
ATOM     30  C   UNL     1      -3.442  12.591  21.834  0.00  0.00    +0.000 A 
ATOM     31  C   UNL     1      -2.995  12.434  23.149  0.00  0.00    +0.000 A 
ATOM     32  C   UNL     1      -3.876  12.619  24.210  0.00  0.00    +0.000 A 
ATOM     33  C   UNL     1      -5.209  12.951  23.965  0.00  0.00    +0.000 A 
ATOM     34  C   UNL     1      -5.661  13.102  22.655  0.00  0.00    +0.000 A 
ATOM     35  C   UNL     1      -4.783  12.920  21.590  0.00  0.00    +0.000 A 
ENDBRANCH  29  30
ENDBRANCH  28  29
ENDBRANCH   6  28
TORSDOF 5
ENDMDL
MODEL 2
REMARK VINA RESULT:     -10.2      0.632      1.181
REMARK  Name = 
REMARK  6 active torsions:
REMARK  status: ('A' for Active; 'I' for Inactive)
REMARK    1  A    between atoms: C_1  and  C_2
REMARK    2  A    between atoms: C_14  and  C_15
REMARK    3  A    between atoms: C_16  and  C_17
REMARK    4  A    between atoms: C_22  and  O_23
REMARK    5  A    between atoms: O_23  and  C_24
REMARK    6  A    between atoms: C_24  and  C_25
REMARK                            x       y       z     vdW  Elec       q    Type
REMARK                         _______ _______ _______ _____ _____    ______ ____
ROOT
ATOM      1  C   UNL     1       2.230   7.662  19.156  0.00  0.00    +0.000 A 
ATOM      2  C   UNL     1       2.218   8.482  18.043  0.00  0.00    +0.000 A 
ATOM      3  C   UNL     1       1.612   9.712  18.155  0.00  0.00    +0.000 A 
ATOM      4  C   UNL     1       1.036  10.078  19.367  0.00  0.00    +0.000 A 
ATOM      5  C   UNL     1       0.372  11.294  19.464  0.00  0.00    +0.000 A 
ATOM      6  C   UNL     1      -0.306  11.631  20.627  0.00  0.00    +0.000 A 
ATOM      7  C   UNL     1      -0.203  10.807  21.747  0.00  0.00    +0.000 A 
ATOM      8  C   UNL     1       0.501   9.601  21.657  0.00  0.00    +0.000 A 
ATOM      9  C   UNL     1       1.097   9.198  20.465  0.00  0.00    +0.000 A 
ATOM     10  N   UNL     1       1.696   8.004  20.356  0.00  0.00    +0.000 NA
ENDROOT
BRANCH   1  12
ATOM     11  C   UNL     1       4.145   6.147  19.377  0.00  0.00    +0.000 C 
ATOM     12  C   UNL     1       2.871   6.359  19.031  0.00  0.00    +0.000 C 
BRANCH  11  26
ATOM     13  C   UNL     1       7.805   6.589  18.660  0.00  0.00    +0.000 C 
ATOM     14  C   UNL     1       6.544   6.299  17.860  0.00  0.00    +0.000 C 
ATOM     15  O   UNL     1       6.772   6.403  16.457  0.00  0.00    +0.000 OA
ATOM     16  C   UNL     1       5.925   5.535  15.829  0.00  0.00    +0.000 C 
ATOM     17  O   UNL     1       5.534   5.670  14.681  0.00  0.00    +0.000 OA
ATOM     18  C   UNL     1       5.690   4.342  16.719  0.00  0.00    +0.000 C 
ATOM     19  C   UNL     1       4.361   3.623  16.512  0.00  0.00    +0.000 C 
ATOM     20  C   UNL     1       3.905   2.854  17.764  0.00  0.00    +0.000 C 
ATOM     21  C   UNL     1       2.581   2.099  17.506  0.00  0.00    +0.000 C 
ATOM     22  C   UNL     1       1.908   1.548  18.774  0.00  0.00    +0.000 C 
ATOM     23  C   UNL     1       1.847   2.546  19.927  0.00  0.00    +0.000 C 
ATOM     24  C   UNL     1       3.213   3.166  20.174  0.00  0.00    +0.000 C 
ATOM     25  C   UNL     1       3.677   3.861  18.885  0.00  0.00    +0.000 C 
ATOM     26  C   UNL     1       4.837   4.834  19.153  0.00  0.00    +0.000 C 
ATOM     27  C   UNL     1       5.969   4.895  18.108  0.00  0.00    +0.000 C 
ENDBRANCH  11  26
ENDBRANCH   1  12
BRANCH   6  28
ATOM     28  O   UNL     1      -1.112  12.728  20.732  0.00  0.00    +0.000 OA
BRANCH  28  29
ATOM     29  C   UNL     1      -2.114  12.784  19.710  0.00  0.00    +0.000 C 
BRANCH  29  30
ATOM     30  C   UNL     1      -3.468  12.707  20.344  0.00  0.00    +0.000 A 
ATOM     31  C   UNL     1      -4.594  12.388  19.578  0.00  0.00    +0.000 A 
ATOM     32  C   UNL     1      -5.848  12.323  20.177  0.00  0.00    +0.000 A 
ATOM     33  C   UNL     1      -5.987  12.586  21.541  0.00  0.00    +0.000 A 
ATOM     34  C   UNL     1      -4.870  12.911  22.307  0.00  0.00    +0.000 A 
ATOM     35  C   UNL     1      -3.612  12.975  21.713  0.00  0.00    +0.000 A 
ENDBRANCH  29  30
ENDBRANCH  28  29
ENDBRANCH   6  28
TORSDOF 5
ENDMDL
MODEL 3
REMARK VINA RESULT:     -10.2      1.361      1.883
REMARK  Name = 
REMARK  6 active torsions:
REMARK  status: ('A' for Active; 'I' for Inactive)
REMARK    1  A    between atoms: C_1  and  C_2
REMARK    2  A    between atoms: C_14  and  C_15
REMARK    3  A    between atoms: C_16  and  C_17
REMARK    4  A    between atoms: C_22  and  O_23
REMARK    5  A    between atoms: O_23  and  C_24
REMARK    6  A    between atoms: C_24  and  C_25
REMARK                            x       y       z     vdW  Elec       q    Type
REMARK                         _______ _______ _______ _____ _____    ______ ____
ROOT
ATOM      1  C   UNL     1       2.207   7.531  19.298  0.00  0.00    +0.000 A 
ATOM      2  C   UNL     1       2.200   8.382  18.209  0.00  0.00    +0.000 A 
ATOM      3  C   UNL     1       1.547   9.586  18.336  0.00  0.00    +0.000 A 
ATOM      4  C   UNL     1       0.921   9.897  19.539  0.00  0.00    +0.000 A 
ATOM      5  C   UNL     1       0.211  11.085  19.649  0.00  0.00    +0.000 A 
ATOM      6  C   UNL     1      -0.513  11.364  20.800  0.00  0.00    +0.000 A 
ATOM      7  C   UNL     1      -0.415  10.512  21.899  0.00  0.00    +0.000 A 
ATOM      8  C   UNL     1       0.334   9.334  21.797  0.00  0.00    +0.000 A 
ATOM      9  C   UNL     1       0.981   8.988  20.613  0.00  0.00    +0.000 A 
ATOM     10  N   UNL     1       1.625   7.818  20.490  0.00  0.00    +0.000 NA
ENDROOT
BRANCH   1  12
ATOM     11  C   UNL     1       4.217   6.127  19.336  0.00  0.00    +0.000 C 
ATOM     12  C   UNL     1       2.899   6.256  19.157  0.00  0.00    +0.000 C 
BRANCH  11  26
ATOM     13  C   UNL     1       7.851   6.688  18.573  0.00  0.00    +0.000 C 
ATOM     14  C   UNL     1       6.588   6.367  17.787  0.00  0.00    +0.000 C 
ATOM     15  O   UNL     1       6.793   6.490  16.383  0.00  0.00    +0.000 OA
ATOM     16  C   UNL     1       5.965   5.601  15.758  0.00  0.00    +0.000 C 
ATOM     17  O   UNL     1       5.553   5.734  14.617  0.00  0.00    +0.000 OA
ATOM     18  C   UNL     1       5.779   4.394  16.640  0.00  0.00    +0.000 C 
ATOM     19  C   UNL     1       4.470   3.636  16.445  0.00  0.00    +0.000 C 
ATOM     20  C   UNL     1       4.056   2.843  17.696  0.00  0.00    +0.000 C 
ATOM     21  C   UNL     1       2.751   2.050  17.449  0.00  0.00    +0.000 C 
ATOM     22  C   UNL     1       2.114   1.466  18.721  0.00  0.00    +0.000 C 
ATOM     23  C   UNL     1       2.039   2.452  19.885  0.00  0.00    +0.000 C 
ATOM     24  C   UNL     1       3.389   3.112  20.118  0.00  0.00    +0.000 C 
ATOM     25  C   UNL     1       3.813   3.832  18.829  0.00  0.00    +0.000 C 
ATOM     26  C   UNL     1       4.945   4.837  19.091  0.00  0.00    +0.000 C 
ATOM     27  C   UNL     1       6.060   4.943  18.030  0.00  0.00    +0.000 C 
ENDBRANCH  11  26
ENDBRANCH   1  12
BRANCH   6  28
ATOM     28  O   UNL     1      -1.361  12.428  20.910  0.00  0.00    +0.000 OA
BRANCH  28  29
ATOM     29  C   UNL     1      -1.784  12.939  19.640  0.00  0.00    +0.000 C 
BRANCH  29  30
ATOM     30  C   UNL     1      -3.097  12.319  19.274  0.00  0.00    +0.000 A 
ATOM     31  C   UNL     1      -3.190  11.447  18.184  0.00  0.00    +0.000 A 
ATOM     32  C   UNL     1      -4.415  10.880  17.850  0.00  0.00    +0.000 A 
ATOM     33  C   UNL     1      -5.556  11.187  18.593  0.00  0.00    +0.000 A 
ATOM     34  C   UNL     1      -5.470  12.060  19.675  0.00  0.00    +0.000 A 
ATOM     35  C   UNL     1      -4.245  12.629  20.016  0.00  0.00    +0.000 A 
ENDBRANCH  29  30
ENDBRANCH  28  29
ENDBRANCH   6  28
TORSDOF 5
ENDMDL
MODEL 4
REMARK VINA RESULT:     -10.1      2.076      3.745
REMARK  Name = 
REMARK  6 active torsions:
REMARK  status: ('A' for Active; 'I' for Inactive)
REMARK    1  A    between atoms: C_1  and  C_2
REMARK    2  A    between atoms: C_14  and  C_15
REMARK    3  A    between atoms: C_16  and  C_17
REMARK    4  A    between atoms: C_22  and  O_23
REMARK    5  A    between atoms: O_23  and  C_24
REMARK    6  A    between atoms: C_24  and  C_25
REMARK                            x       y       z     vdW  Elec       q    Type
REMARK                         _______ _______ _______ _____ _____    ______ ____
ROOT
ATOM      1  C   UNL     1       1.826   8.302  18.959  0.00  0.00    +0.000 A 
ATOM      2  C   UNL     1       1.496   9.454  18.270  0.00  0.00    +0.000 A 
ATOM      3  C   UNL     1       0.852  10.455  18.961  0.00  0.00    +0.000 A 
ATOM      4  C   UNL     1       0.556  10.270  20.307  0.00  0.00    +0.000 A 
ATOM      5  C   UNL     1      -0.146  11.255  20.989  0.00  0.00    +0.000 A 
ATOM      6  C   UNL     1      -0.550  11.046  22.301  0.00  0.00    +0.000 A 
ATOM      7  C   UNL     1      -0.130   9.901  22.977  0.00  0.00    +0.000 A 
ATOM      8  C   UNL     1       0.613   8.928  22.296  0.00  0.00    +0.000 A 
ATOM      9  C   UNL     1       0.935   9.075  20.949  0.00  0.00    +0.000 A 
ATOM     10  N   UNL     1       1.570   8.104  20.277  0.00  0.00    +0.000 NA
ENDROOT
BRANCH   1  12
ATOM     11  C   UNL     1       2.329   5.947  18.496  0.00  0.00    +0.000 C 
ATOM     12  C   UNL     1       2.506   7.243  18.222  0.00  0.00    +0.000 C 
BRANCH  11  26
ATOM     13  C   UNL     1       0.396   2.732  18.326  0.00  0.00    +0.000 C 
ATOM     14  C   UNL     1       1.532   3.302  19.162  0.00  0.00    +0.000 C 
ATOM     15  O   UNL     1       1.818   2.483  20.293  0.00  0.00    +0.000 OA
ATOM     16  C   UNL     1       3.148   2.612  20.578  0.00  0.00    +0.000 C 
ATOM     17  O   UNL     1       3.631   2.434  21.684  0.00  0.00    +0.000 OA
ATOM     18  C   UNL     1       3.906   2.853  19.299  0.00  0.00    +0.000 C 
ATOM     19  C   UNL     1       5.214   3.625  19.449  0.00  0.00    +0.000 C 
ATOM     20  C   UNL     1       5.622   4.352  18.156  0.00  0.00    +0.000 C 
ATOM     21  C   UNL     1       6.972   5.084  18.328  0.00  0.00    +0.000 C 
ATOM     22  C   UNL     1       7.310   6.065  17.193  0.00  0.00    +0.000 C 
ATOM     23  C   UNL     1       6.150   6.973  16.793  0.00  0.00    +0.000 C 
ATOM     24  C   UNL     1       4.889   6.158  16.549  0.00  0.00    +0.000 C 
ATOM     25  C   UNL     1       4.549   5.384  17.831  0.00  0.00    +0.000 C 
ATOM     26  C   UNL     1       3.104   4.861  17.809  0.00  0.00    +0.000 C 
ATOM     27  C   UNL     1       2.850   3.453  18.385  0.00  0.00    +0.000 C 
ENDBRANCH  11  26
ENDBRANCH   1  12
BRANCH   6  28
ATOM     28  O   UNL     1      -1.380  11.896  22.972  0.00  0.00    +0.000 OA
BRANCH  28  29
ATOM     29  C   UNL     1      -2.313  12.560  22.112  0.00  0.00    +0.000 C 
BRANCH  29  30
ATOM     30  C   UNL     1      -3.647  12.623  22.790  0.00  0.00    +0.000 A 
ATOM     31  C   UNL     1      -3.758  12.373  24.161  0.00  0.00    +0.000 A 
ATOM     32  C   UNL     1      -5.003  12.429  24.781  0.00  0.00    +0.000 A 
ATOM     33  C   UNL     1      -6.144  12.726  24.034  0.00  0.00    +0.000 A 
ATOM     34  C   UNL     1      -6.040  12.970  22.666  0.00  0.00    +0.000 A 
ATOM     35  C   UNL     1      -4.796  12.916  22.042  0.00  0.00    +0.000 A 
ENDBRANCH  29  30
ENDBRANCH  28  29
ENDBRANCH   6  28
TORSDOF 5
ENDMDL
MODEL 5
REMARK VINA RESULT:     -10.0      2.228      3.187
REMARK  Name = 
REMARK  6 active torsions:
REMARK  status: ('A' for Active; 'I' for Inactive)
REMARK    1  A    between atoms: C_1  and  C_2
REMARK    2  A    between atoms: C_14  and  C_15
REMARK    3  A    between atoms: C_16  and  C_17
REMARK    4  A    between atoms: C_22  and  O_23
REMARK    5  A    between atoms: O_23  and  C_24
REMARK    6  A    between atoms: C_24  and  C_25
REMARK                            x       y       z     vdW  Elec       q    Type
REMARK                         _______ _______ _______ _____ _____    ______ ____
ROOT
ATOM      1  C   UNL     1       2.209   7.889  18.932  0.00  0.00    +0.000 A 
ATOM      2  C   UNL     1       2.354   8.651  17.787  0.00  0.00    +0.000 A 
ATOM      3  C   UNL     1       1.804   9.912  17.779  0.00  0.00    +0.000 A 
ATOM      4  C   UNL     1       1.126  10.366  18.906  0.00  0.00    +0.000 A 
ATOM      5  C   UNL     1       0.520  11.615  18.877  0.00  0.00    +0.000 A 
ATOM      6  C   UNL     1      -0.254  12.042  19.947  0.00  0.00    +0.000 A 
ATOM      7  C   UNL     1      -0.310  11.272  21.108  0.00  0.00    +0.000 A 
ATOM      8  C   UNL     1       0.337  10.031  21.148  0.00  0.00    +0.000 A 
ATOM      9  C   UNL     1       1.030   9.541  20.044  0.00  0.00    +0.000 A 
ATOM     10  N   UNL     1       1.573   8.316  20.053  0.00  0.00    +0.000 NA
ENDROOT
BRANCH   1  12
ATOM     11  C   UNL     1       4.059   6.320  19.289  0.00  0.00    +0.000 C 
ATOM     12  C   UNL     1       2.791   6.553  18.935  0.00  0.00    +0.000 C 
BRANCH  11  26
ATOM     13  C   UNL     1       7.745   6.526  18.597  0.00  0.00    +0.000 C 
ATOM     14  C   UNL     1       6.481   6.225  17.804  0.00  0.00    +0.000 C 
ATOM     15  O   UNL     1       6.731   6.193  16.402  0.00  0.00    +0.000 OA
ATOM     16  C   UNL     1       5.852   5.312  15.839  0.00  0.00    +0.000 C 
ATOM     17  O   UNL     1       5.482   5.362  14.677  0.00  0.00    +0.000 OA
ATOM     18  C   UNL     1       5.549   4.216  16.827  0.00  0.00    +0.000 C 
ATOM     19  C   UNL     1       4.189   3.543  16.663  0.00  0.00    +0.000 C 
ATOM     20  C   UNL     1       3.682   2.911  17.970  0.00  0.00    +0.000 C 
ATOM     21  C   UNL     1       2.326   2.199  17.757  0.00  0.00    +0.000 C 
ATOM     22  C   UNL     1       1.613   1.794  19.058  0.00  0.00    +0.000 C 
ATOM     23  C   UNL     1       1.585   2.893  20.117  0.00  0.00    +0.000 C 
ATOM     24  C   UNL     1       2.976   3.468  20.331  0.00  0.00    +0.000 C 
ATOM     25  C   UNL     1       3.489   4.023  18.993  0.00  0.00    +0.000 C 
ATOM     26  C   UNL     1       4.690   4.961  19.194  0.00  0.00    +0.000 C 
ATOM     27  C   UNL     1       5.836   4.877  18.166  0.00  0.00    +0.000 C 
ENDBRANCH  11  26
ENDBRANCH   1  12
BRANCH   6  28
ATOM     28  O   UNL     1      -1.009  13.179  19.917  0.00  0.00    +0.000 OA
BRANCH  28  29
ATOM     29  C   UNL     1      -0.428  14.254  20.666  0.00  0.00    +0.000 C 
BRANCH  29  30
ATOM     30  C   UNL     1       0.091  15.290  19.716  0.00  0.00    +0.000 A 
ATOM     31  C   UNL     1       1.451  15.340  19.396  0.00  0.00    +0.000 A 
ATOM     32  C   UNL     1       1.924  16.309  18.516  0.00  0.00    +0.000 A 
ATOM     33  C   UNL     1       1.044  17.238  17.959  0.00  0.00    +0.000 A 
ATOM     34  C   UNL     1      -0.311  17.196  18.280  0.00  0.00    +0.000 A 
ATOM     35  C   UNL     1      -0.789  16.227  19.159  0.00  0.00    +0.000 A 
ENDBRANCH  29  30
ENDBRANCH  28  29
ENDBRANCH   6  28
TORSDOF 5
ENDMDL
MODEL 6
REMARK VINA RESULT:      -9.9      0.823      1.195
REMARK  Name = 
REMARK  6 active torsions:
REMARK  status: ('A' for Active; 'I' for Inactive)
REMARK    1  A    between atoms: C_1  and  C_2
REMARK    2  A    between atoms: C_14  and  C_15
REMARK    3  A    between atoms: C_16  and  C_17
REMARK    4  A    between atoms: C_22  and  O_23
REMARK    5  A    between atoms: O_23  and  C_24
REMARK    6  A    between atoms: C_24  and  C_25
REMARK                            x       y       z     vdW  Elec       q    Type
REMARK                         _______ _______ _______ _____ _____    ______ ____
ROOT
ATOM      1  C   UNL     1       2.261   7.604  19.127  0.00  0.00    +0.000 A 
ATOM      2  C   UNL     1       2.195   8.429  18.020  0.00  0.00    +0.000 A 
ATOM      3  C   UNL     1       1.563   9.643  18.158  0.00  0.00    +0.000 A 
ATOM      4  C   UNL     1       1.016   9.989  19.389  0.00  0.00    +0.000 A 
ATOM      5  C   UNL     1       0.326  11.188  19.513  0.00  0.00    +0.000 A 
ATOM      6  C   UNL     1      -0.322  11.503  20.699  0.00  0.00    +0.000 A 
ATOM      7  C   UNL     1      -0.166  10.676  21.811  0.00  0.00    +0.000 A 
ATOM      8  C   UNL     1       0.564   9.487  21.692  0.00  0.00    +0.000 A 
ATOM      9  C   UNL     1       1.132   9.105  20.479  0.00  0.00    +0.000 A 
ATOM     10  N   UNL     1       1.755   7.926  20.345  0.00  0.00    +0.000 NA
ENDROOT
BRANCH   1  12
ATOM     11  C   UNL     1       4.197   6.117  19.343  0.00  0.00    +0.000 C 
ATOM     12  C   UNL     1       2.928   6.317  18.975  0.00  0.00    +0.000 C 
BRANCH  11  26
ATOM     13  C   UNL     1       7.833   6.659  18.574  0.00  0.00    +0.000 C 
ATOM     14  C   UNL     1       6.567   6.346  17.791  0.00  0.00    +0.000 C 
ATOM     15  O   UNL     1       6.770   6.472  16.386  0.00  0.00    +0.000 OA
ATOM     16  C   UNL     1       5.935   5.590  15.761  0.00  0.00    +0.000 C 
ATOM     17  O   UNL     1       5.522   5.728  14.621  0.00  0.00    +0.000 OA
ATOM     18  C   UNL     1       5.745   4.382  16.641  0.00  0.00    +0.000 C 
ATOM     19  C   UNL     1       4.430   3.631  16.446  0.00  0.00    +0.000 C 
ATOM     20  C   UNL     1       4.014   2.837  17.696  0.00  0.00    +0.000 C 
ATOM     21  C   UNL     1       2.705   2.052  17.450  0.00  0.00    +0.000 C 
ATOM     22  C   UNL     1       2.068   1.469  18.721  0.00  0.00    +0.000 C 
ATOM     23  C   UNL     1       2.000   2.452  19.887  0.00  0.00    +0.000 C 
ATOM     24  C   UNL     1       3.354   3.104  20.120  0.00  0.00    +0.000 C 
ATOM     25  C   UNL     1       3.780   3.824  18.832  0.00  0.00    +0.000 C 
ATOM     26  C   UNL     1       4.918   4.823  19.094  0.00  0.00    +0.000 C 
ATOM     27  C   UNL     1       6.031   4.925  18.031  0.00  0.00    +0.000 C 
ENDBRANCH  11  26
ENDBRANCH   1  12
BRANCH   6  28
ATOM     28  O   UNL     1      -1.151  12.579  20.835  0.00  0.00    +0.000 OA
BRANCH  28  29
ATOM     29  C   UNL     1      -0.723  13.487  21.859  0.00  0.00    +0.000 C 
BRANCH  29  30
ATOM     30  C   UNL     1      -1.795  13.594  22.899  0.00  0.00    +0.000 A 
ATOM     31  C   UNL     1      -2.940  12.795  22.823  0.00  0.00    +0.000 A 
ATOM     32  C   UNL     1      -3.932  12.907  23.792  0.00  0.00    +0.000 A 
ATOM     33  C   UNL     1      -3.792  13.822  24.836  0.00  0.00    +0.000 A 
ATOM     34  C   UNL     1      -2.656  14.626  24.913  0.00  0.00    +0.000 A 
ATOM     35  C   UNL     1      -1.659  14.517  23.946  0.00  0.00    +0.000 A 
ENDBRANCH  29  30
ENDBRANCH  28  29
ENDBRANCH   6  28
TORSDOF 5
ENDMDL
MODEL 7
REMARK VINA RESULT:      -9.9      2.004      3.832
REMARK  Name = 
REMARK  6 active torsions:
REMARK  status: ('A' for Active; 'I' for Inactive)
REMARK    1  A    between atoms: C_1  and  C_2
REMARK    2  A    between atoms: C_14  and  C_15
REMARK    3  A    between atoms: C_16  and  C_17
REMARK    4  A    between atoms: C_22  and  O_23
REMARK    5  A    between atoms: O_23  and  C_24
REMARK    6  A    between atoms: C_24  and  C_25
REMARK                            x       y       z     vdW  Elec       q    Type
REMARK                         _______ _______ _______ _____ _____    ______ ____
ROOT
ATOM      1  C   UNL     1       1.643   8.696  18.990  0.00  0.00    +0.000 A 
ATOM      2  C   UNL     1       1.342   9.912  18.406  0.00  0.00    +0.000 A 
ATOM      3  C   UNL     1       0.700  10.855  19.175  0.00  0.00    +0.000 A 
ATOM      4  C   UNL     1       0.377  10.552  20.493  0.00  0.00    +0.000 A 
ATOM      5  C   UNL     1      -0.324  11.481  21.251  0.00  0.00    +0.000 A 
ATOM      6  C   UNL     1      -0.754  11.158  22.531  0.00  0.00    +0.000 A 
ATOM      7  C   UNL     1      -0.363   9.950  23.105  0.00  0.00    +0.000 A 
ATOM      8  C   UNL     1       0.378   9.032  22.350  0.00  0.00    +0.000 A 
ATOM      9  C   UNL     1       0.727   9.298  21.028  0.00  0.00    +0.000 A 
ATOM     10  N   UNL     1       1.359   8.383  20.280  0.00  0.00    +0.000 NA
ENDROOT
BRANCH   1  12
ATOM     11  C   UNL     1       2.828   6.573  18.680  0.00  0.00    +0.000 C 
ATOM     12  C   UNL     1       2.321   7.700  18.171  0.00  0.00    +0.000 C 
BRANCH  11  26
ATOM     13  C   UNL     1       0.806   3.536  17.788  0.00  0.00    +0.000 C 
ATOM     14  C   UNL     1       1.895   3.890  18.790  0.00  0.00    +0.000 C 
ATOM     15  O   UNL     1       2.069   2.867  19.766  0.00  0.00    +0.000 OA
ATOM     16  C   UNL     1       3.377   2.880  20.159  0.00  0.00    +0.000 C 
ATOM     17  O   UNL     1       3.771   2.481  21.243  0.00  0.00    +0.000 OA
ATOM     18  C   UNL     1       4.237   3.314  19.000  0.00  0.00    +0.000 C 
ATOM     19  C   UNL     1       5.555   3.984  19.378  0.00  0.00    +0.000 C 
ATOM     20  C   UNL     1       6.081   4.914  18.272  0.00  0.00    +0.000 C 
ATOM     21  C   UNL     1       7.439   5.539  18.667  0.00  0.00    +0.000 C 
ATOM     22  C   UNL     1       7.893   6.693  17.758  0.00  0.00    +0.000 C 
ATOM     23  C   UNL     1       6.798   7.712  17.455  0.00  0.00    +0.000 C 
ATOM     24  C   UNL     1       5.532   7.016  16.981  0.00  0.00    +0.000 C 
ATOM     25  C   UNL     1       5.072   6.037  18.073  0.00  0.00    +0.000 C 
ATOM     26  C   UNL     1       3.615   5.595  17.856  0.00  0.00    +0.000 C 
ATOM     27  C   UNL     1       3.272   4.119  18.144  0.00  0.00    +0.000 C 
ENDBRANCH  11  26
ENDBRANCH   1  12
BRANCH   6  28
ATOM     28  O   UNL     1      -1.584  11.956  23.264  0.00  0.00    +0.000 OA
BRANCH  28  29
ATOM     29  C   UNL     1      -2.302  12.902  22.462  0.00  0.00    +0.000 C 
BRANCH  29  30
ATOM     30  C   UNL     1      -3.759  12.826  22.800  0.00  0.00    +0.000 A 
ATOM     31  C   UNL     1      -4.727  12.921  21.794  0.00  0.00    +0.000 A 
ATOM     32  C   UNL     1      -6.078  12.854  22.120  0.00  0.00    +0.000 A 
ATOM     33  C   UNL     1      -6.471  12.702  23.450  0.00  0.00    +0.000 A 
ATOM     34  C   UNL     1      -5.512  12.614  24.457  0.00  0.00    +0.000 A 
ATOM     35  C   UNL     1      -4.158  12.678  24.136  0.00  0.00    +0.000 A 
ENDBRANCH  29  30
ENDBRANCH  28  29
ENDBRANCH   6  28
TORSDOF 5
ENDMDL
MODEL 8
REMARK VINA RESULT:      -9.7      1.132      1.416
REMARK  Name = 
REMARK  6 active torsions:
REMARK  status: ('A' for Active; 'I' for Inactive)
REMARK    1  A    between atoms: C_1  and  C_2
REMARK    2  A    between atoms: C_14  and  C_15
REMARK    3  A    between atoms: C_16  and  C_17
REMARK    4  A    between atoms: C_22  and  O_23
REMARK    5  A    between atoms: O_23  and  C_24
REMARK    6  A    between atoms: C_24  and  C_25
REMARK                            x       y       z     vdW  Elec       q    Type
REMARK                         _______ _______ _______ _____ _____    ______ ____
ROOT
ATOM      1  C   UNL     1       1.941   8.079  19.329  0.00  0.00    +0.000 A 
ATOM      2  C   UNL     1       1.842   8.588  18.047  0.00  0.00    +0.000 A 
ATOM      3  C   UNL     1       1.036   9.686  17.850  0.00  0.00    +0.000 A 
ATOM      4  C   UNL     1       0.356  10.233  18.933  0.00  0.00    +0.000 A 
ATOM      5  C   UNL     1      -0.504  11.303  18.725  0.00  0.00    +0.000 A 
ATOM      6  C   UNL     1      -1.277  11.794  19.768  0.00  0.00    +0.000 A 
ATOM      7  C   UNL     1      -1.088  11.299  21.057  0.00  0.00    +0.000 A 
ATOM      8  C   UNL     1      -0.190  10.245  21.270  0.00  0.00    +0.000 A 
ATOM      9  C   UNL     1       0.515   9.672  20.215  0.00  0.00    +0.000 A 
ATOM     10  N   UNL     1       1.307   8.607  20.407  0.00  0.00    +0.000 NA
ENDROOT
BRANCH   1  12
ATOM     11  C   UNL     1       3.716   6.533  18.643  0.00  0.00    +0.000 C 
ATOM     12  C   UNL     1       2.794   6.915  19.532  0.00  0.00    +0.000 C 
BRANCH  11  26
ATOM     13  C   UNL     1       7.364   7.110  17.961  0.00  0.00    +0.000 C 
ATOM     14  C   UNL     1       6.178   6.505  17.223  0.00  0.00    +0.000 C 
ATOM     15  O   UNL     1       6.478   6.258  15.853  0.00  0.00    +0.000 OA
ATOM     16  C   UNL     1       5.741   5.181  15.449  0.00  0.00    +0.000 C 
ATOM     17  O   UNL     1       5.407   4.974  14.294  0.00  0.00    +0.000 OA
ATOM     18  C   UNL     1       5.552   4.247  16.616  0.00  0.00    +0.000 C 
ATOM     19  C   UNL     1       4.299   3.378  16.562  0.00  0.00    +0.000 C 
ATOM     20  C   UNL     1       3.836   2.925  17.957  0.00  0.00    +0.000 C 
ATOM     21  C   UNL     1       2.593   2.009  17.863  0.00  0.00    +0.000 C 
ATOM     22  C   UNL     1       1.896   1.749  19.209  0.00  0.00    +0.000 C 
ATOM     23  C   UNL     1       1.688   3.004  20.052  0.00  0.00    +0.000 C 
ATOM     24  C   UNL     1       2.983   3.791  20.172  0.00  0.00    +0.000 C 
ATOM     25  C   UNL     1       3.463   4.164  18.761  0.00  0.00    +0.000 C 
ATOM     26  C   UNL     1       4.523   5.277  18.801  0.00  0.00    +0.000 C 
ATOM     27  C   UNL     1       5.705   5.167  17.816  0.00  0.00    +0.000 C 
ENDBRANCH  11  26
ENDBRANCH   1  12
BRANCH   6  28
ATOM     28  O   UNL     1      -2.257  12.728  19.597  0.00  0.00    +0.000 OA
BRANCH  28  29
ATOM     29  C   UNL     1      -3.409  12.212  18.920  0.00  0.00    +0.000 C 
BRANCH  29  30
ATOM     30  C   UNL     1      -4.591  12.284  19.836  0.00  0.00    +0.000 A 
ATOM     31  C   UNL     1      -4.482  12.901  21.086  0.00  0.00    +0.000 A 
ATOM     32  C   UNL     1      -5.586  12.959  21.932  0.00  0.00    +0.000 A 
ATOM     33  C   UNL     1      -6.800  12.393  21.540  0.00  0.00    +0.000 A 
ATOM     34  C   UNL     1      -6.911  11.772  20.298  0.00  0.00    +0.000 A 
ATOM     35  C   UNL     1      -5.811  11.713  19.447  0.00  0.00    +0.000 A 
ENDBRANCH  29  30
ENDBRANCH  28  29
ENDBRANCH   6  28
TORSDOF 5
ENDMDL
MODEL 9
REMARK VINA RESULT:      -9.7      2.122      3.945
REMARK  Name = 
REMARK  6 active torsions:
REMARK  status: ('A' for Active; 'I' for Inactive)
REMARK    1  A    between atoms: C_1  and  C_2
REMARK    2  A    between atoms: C_14  and  C_15
REMARK    3  A    between atoms: C_16  and  C_17
REMARK    4  A    between atoms: C_22  and  O_23
REMARK    5  A    between atoms: O_23  and  C_24
REMARK    6  A    between atoms: C_24  and  C_25
REMARK                            x       y       z     vdW  Elec       q    Type
REMARK                         _______ _______ _______ _____ _____    ______ ____
ROOT
ATOM      1  C   UNL     1       1.820   7.791  19.834  0.00  0.00    +0.000 A 
ATOM      2  C   UNL     1       1.433   7.569  21.142  0.00  0.00    +0.000 A 
ATOM      3  C   UNL     1       0.641   8.516  21.749  0.00  0.00    +0.000 A 
ATOM      4  C   UNL     1       0.268   9.650  21.034  0.00  0.00    +0.000 A 
ATOM      5  C   UNL     1      -0.482  10.634  21.665  0.00  0.00    +0.000 A 
ATOM      6  C   UNL     1      -0.771  11.822  21.009  0.00  0.00    +0.000 A 
ATOM      7  C   UNL     1      -0.425  11.969  19.666  0.00  0.00    +0.000 A 
ATOM      8  C   UNL     1       0.297  10.957  19.022  0.00  0.00    +0.000 A 
ATOM      9  C   UNL     1       0.687   9.804  19.699  0.00  0.00    +0.000 A 
ATOM     10  N   UNL     1       1.452   8.876  19.106  0.00  0.00    +0.000 NA
ENDROOT
BRANCH   1  12
ATOM     11  C   UNL     1       2.170   5.843  18.386  0.00  0.00    +0.000 C 
ATOM     12  C   UNL     1       2.661   6.786  19.196  0.00  0.00    +0.000 C 
BRANCH  11  26
ATOM     13  C   UNL     1       0.353   2.558  18.299  0.00  0.00    +0.000 C 
ATOM     14  C   UNL     1       1.419   3.214  19.164  0.00  0.00    +0.000 C 
ATOM     15  O   UNL     1       1.663   2.473  20.355  0.00  0.00    +0.000 OA
ATOM     16  C   UNL     1       2.969   2.665  20.708  0.00  0.00    +0.000 C 
ATOM     17  O   UNL     1       3.391   2.568  21.849  0.00  0.00    +0.000 OA
ATOM     18  C   UNL     1       3.794   2.858  19.463  0.00  0.00    +0.000 C 
ATOM     19  C   UNL     1       5.066   3.683  19.641  0.00  0.00    +0.000 C 
ATOM     20  C   UNL     1       5.526   4.347  18.332  0.00  0.00    +0.000 C 
ATOM     21  C   UNL     1       6.840   5.135  18.537  0.00  0.00    +0.000 C 
ATOM     22  C   UNL     1       7.213   6.059  17.366  0.00  0.00    +0.000 C 
ATOM     23  C   UNL     1       6.051   6.901  16.846  0.00  0.00    +0.000 C 
ATOM     24  C   UNL     1       4.833   6.031  16.580  0.00  0.00    +0.000 C 
ATOM     25  C   UNL     1       4.443   5.321  17.885  0.00  0.00    +0.000 C 
ATOM     26  C   UNL     1       3.019   4.746  17.811  0.00  0.00    +0.000 C 
ATOM     27  C   UNL     1       2.775   3.367  18.455  0.00  0.00    +0.000 C 
ENDBRANCH  11  26
ENDBRANCH   1  12
BRANCH   6  28
ATOM     28  O   UNL     1      -1.357  12.892  21.622  0.00  0.00    +0.000 OA
BRANCH  28  29
ATOM     29  C   UNL     1      -1.773  12.608  22.963  0.00  0.00    +0.000 C 
BRANCH  29  30
ATOM     30  C   UNL     1      -3.264  12.715  23.048  0.00  0.00    +0.000 A 
ATOM     31  C   UNL     1      -3.920  12.538  24.270  0.00  0.00    +0.000 A 
ATOM     32  C   UNL     1      -5.307  12.635  24.337  0.00  0.00    +0.000 A 
ATOM     33  C   UNL     1      -6.047  12.899  23.184  0.00  0.00    +0.000 A 
ATOM     34  C   UNL     1      -5.398  13.070  21.962  0.00  0.00    +0.000 A 
ATOM     35  C   UNL     1      -4.011  12.976  21.890  0.00  0.00    +0.000 A 
ENDBRANCH  29  30
ENDBRANCH  28  29
ENDBRANCH   6  28
TORSDOF 5
ENDMDL
