MODEL 1
REMARK VINA RESULT:      -9.4      0.000      0.000
REMARK  Name = 
REMARK  5 active torsions:
REMARK  status: ('A' for Active; 'I' for Inactive)
REMARK    1  A    between atoms: C_2  and  C_3
REMARK    2  A    between atoms: C_3  and  N_4
REMARK    3  A    between atoms: N_10  and  C_11
REMARK    4  A    between atoms: C_14  and  N_15
REMARK    5  A    between atoms: C_22  and  C_23
REMARK                            x       y       z     vdW  Elec       q    Type
REMARK                         _______ _______ _______ _____ _____    ______ ____
ROOT
ATOM      1  N   UNL     1       1.938   7.641  19.836  0.00  0.00    +0.000 N 
ATOM      2  C   UNL     1       2.179   6.294  19.962  0.00  0.00    +0.000 A 
ATOM      3  C   UNL     1       1.342   5.427  20.848  0.00  0.00    +0.000 A 
ATOM      4  C   UNL     1       1.624   4.125  20.935  0.00  0.00    +0.000 A 
ATOM      5  C   UNL     1       2.688   3.600  20.183  0.00  0.00    +0.000 A 
ATOM      6  N   UNL     1       3.146   2.371  20.100  0.00  0.00    +0.000 NA
ATOM      7  C   UNL     1       4.166   2.443  19.194  0.00  0.00    +0.000 A 
ATOM      8  C   UNL     1       4.353   3.729  18.710  0.00  0.00    +0.000 A 
ATOM      9  N   UNL     1       3.390   4.479  19.373  0.00  0.00    +0.000 N 
ATOM     10  N   UNL     1       3.173   5.829  19.248  0.00  0.00    +0.000 NA
ATOM     11  H   UNL     1       2.574   8.124  19.209  0.00  0.00    +0.000 HD
ENDROOT
BRANCH   8  12
ATOM     12  C   UNL     1       5.315   4.216  17.716  0.00  0.00    +0.000 A 
ATOM     13  C   UNL     1       6.447   4.934  18.135  0.00  0.00    +0.000 A 
ATOM     14  C   UNL     1       7.414   5.350  17.215  0.00  0.00    +0.000 A 
ATOM     15  C   UNL     1       7.261   5.057  15.862  0.00  0.00    +0.000 A 
ATOM     16  C   UNL     1       6.136   4.355  15.436  0.00  0.00    +0.000 A 
ATOM     17 CL   UNL     1       5.941   3.992  13.764  0.00  0.00    +0.000 Cl
ATOM     18  C   UNL     1       5.169   3.935  16.351  0.00  0.00    +0.000 A 
ENDBRANCH   8  12
BRANCH   1  22
ATOM     19  C   UNL     1      -0.111  10.770  22.019  0.00  0.00    +0.000 C 
ATOM     20  C   UNL     1       0.366   9.497  22.741  0.00  0.00    +0.000 C 
ATOM     21  C   UNL     1       1.444   8.743  21.970  0.00  0.00    +0.000 C 
ATOM     22  C   UNL     1       0.959   8.432  20.551  0.00  0.00    +0.000 C 
ATOM     23  C   UNL     1       0.683   9.740  19.810  0.00  0.00    +0.000 C 
ATOM     24  C   UNL     1      -0.406  10.545  20.525  0.00  0.00    +0.000 C 
BRANCH  19  27
ATOM     25  O   UNL     1      -0.834  13.543  22.025  0.00  0.00    +0.000 OA
ATOM     26  C   UNL     1      -1.510  12.737  22.673  0.00  0.00    +0.000 C 
ATOM     27  N   UNL     1      -1.242  11.383  22.716  0.00  0.00    +0.000 N 
ATOM     28  H   UNL     1      -1.724  10.843  23.424  0.00  0.00    +0.000 HD
BRANCH  26  29
ATOM     29  C   UNL     1      -2.691  13.212  23.521  0.00  0.00    +0.000 C 
BRANCH  29  30
ATOM     30  N   UNL     1      -3.937  12.519  23.134  0.00  0.00    +0.000 NA
ATOM     31  C   UNL     1      -4.294  12.810  21.724  0.00  0.00    +0.000 C 
ATOM     32  C   UNL     1      -4.931  14.194  21.484  0.00  0.00    +0.000 C 
ATOM     33  O   UNL     1      -6.070  14.398  22.325  0.00  0.00    +0.000 OA
ATOM     34  C   UNL     1      -5.704  14.269  23.703  0.00  0.00    +0.000 C 
ATOM     35  C   UNL     1      -5.100  12.885  23.984  0.00  0.00    +0.000 C 
ENDBRANCH  29  30
ENDBRANCH  26  29
ENDBRANCH  19  27
ENDBRANCH   1  22
TORSDOF 5
ENDMDL
MODEL 2
REMARK VINA RESULT:      -9.3      0.591      1.049
REMARK  Name = 
REMARK  5 active torsions:
REMARK  status: ('A' for Active; 'I' for Inactive)
REMARK    1  A    between atoms: C_2  and  C_3
REMARK    2  A    between atoms: C_3  and  N_4
REMARK    3  A    between atoms: N_10  and  C_11
REMARK    4  A    between atoms: C_14  and  N_15
REMARK    5  A    between atoms: C_22  and  C_23
REMARK                            x       y       z     vdW  Elec       q    Type
REMARK                         _______ _______ _______ _____ _____    ______ ____
ROOT
ATOM      1  N   UNL     1       1.976   7.673  19.794  0.00  0.00    +0.000 N 
ATOM      2  C   UNL     1       2.150   6.315  19.916  0.00  0.00    +0.000 A 
ATOM      3  C   UNL     1       1.243   5.482  20.764  0.00  0.00    +0.000 A 
ATOM      4  C   UNL     1       1.462   4.167  20.849  0.00  0.00    +0.000 A 
ATOM      5  C   UNL     1       2.527   3.599  20.130  0.00  0.00    +0.000 A 
ATOM      6  N   UNL     1       2.931   2.351  20.053  0.00  0.00    +0.000 NA
ATOM      7  C   UNL     1       3.984   2.383  19.184  0.00  0.00    +0.000 A 
ATOM      8  C   UNL     1       4.248   3.663  18.718  0.00  0.00    +0.000 A 
ATOM      9  N   UNL     1       3.297   4.451  19.354  0.00  0.00    +0.000 N 
ATOM     10  N   UNL     1       3.147   5.811  19.233  0.00  0.00    +0.000 NA
ATOM     11  H   UNL     1       2.655   8.131  19.194  0.00  0.00    +0.000 HD
ENDROOT
BRANCH   8  12
ATOM     12  C   UNL     1       5.265   4.111  17.763  0.00  0.00    +0.000 A 
ATOM     13  C   UNL     1       6.435   4.733  18.232  0.00  0.00    +0.000 A 
ATOM     14  C   UNL     1       7.452   5.109  17.349  0.00  0.00    +0.000 A 
ATOM     15  C   UNL     1       7.311   4.872  15.983  0.00  0.00    +0.000 A 
ATOM     16  C   UNL     1       6.151   4.266  15.508  0.00  0.00    +0.000 A 
ATOM     17 CL   UNL     1       5.973   3.972  13.821  0.00  0.00    +0.000 Cl
ATOM     18  C   UNL     1       5.135   3.886  16.387  0.00  0.00    +0.000 A 
ENDBRANCH   8  12
BRANCH   1  22
ATOM     19  C   UNL     1      -0.005  10.880  21.926  0.00  0.00    +0.000 C 
ATOM     20  C   UNL     1       0.392   9.583  22.656  0.00  0.00    +0.000 C 
ATOM     21  C   UNL     1       1.461   8.787  21.917  0.00  0.00    +0.000 C 
ATOM     22  C   UNL     1       1.009   8.503  20.481  0.00  0.00    +0.000 C 
ATOM     23  C   UNL     1       0.815   9.825  19.739  0.00  0.00    +0.000 C 
ATOM     24  C   UNL     1      -0.261  10.674  20.422  0.00  0.00    +0.000 C 
BRANCH  19  27
ATOM     25  O   UNL     1      -0.149  13.615  22.766  0.00  0.00    +0.000 OA
ATOM     26  C   UNL     1      -1.109  12.865  22.972  0.00  0.00    +0.000 C 
ATOM     27  N   UNL     1      -1.131  11.538  22.590  0.00  0.00    +0.000 N 
ATOM     28  H   UNL     1      -1.869  10.963  22.975  0.00  0.00    +0.000 HD
BRANCH  26  29
ATOM     29  C   UNL     1      -2.346  13.366  23.719  0.00  0.00    +0.000 C 
BRANCH  29  30
ATOM     30  N   UNL     1      -3.095  14.348  22.908  0.00  0.00    +0.000 NA
ATOM     31  C   UNL     1      -4.316  14.804  23.615  0.00  0.00    +0.000 C 
ATOM     32  C   UNL     1      -5.495  13.811  23.590  0.00  0.00    +0.000 C 
ATOM     33  O   UNL     1      -5.825  13.423  22.254  0.00  0.00    +0.000 OA
ATOM     34  C   UNL     1      -4.689  12.839  21.607  0.00  0.00    +0.000 C 
ATOM     35  C   UNL     1      -3.506  13.820  21.582  0.00  0.00    +0.000 C 
ENDBRANCH  29  30
ENDBRANCH  26  29
ENDBRANCH  19  27
ENDBRANCH   1  22
TORSDOF 5
ENDMDL
MODEL 3
REMARK VINA RESULT:      -9.3      1.064      1.326
REMARK  Name = 
REMARK  5 active torsions:
REMARK  status: ('A' for Active; 'I' for Inactive)
REMARK    1  A    between atoms: C_2  and  C_3
REMARK    2  A    between atoms: C_3  and  N_4
REMARK    3  A    between atoms: N_10  and  C_11
REMARK    4  A    between atoms: C_14  and  N_15
REMARK    5  A    between atoms: C_22  and  C_23
REMARK                            x       y       z     vdW  Elec       q    Type
REMARK                         _______ _______ _______ _____ _____    ______ ____
ROOT
ATOM      1  N   UNL     1       1.907   7.826  19.973  0.00  0.00    +0.000 N 
ATOM      2  C   UNL     1       2.182   6.482  20.041  0.00  0.00    +0.000 A 
ATOM      3  C   UNL     1       1.340   5.549  20.852  0.00  0.00    +0.000 A 
ATOM      4  C   UNL     1       1.657   4.252  20.885  0.00  0.00    +0.000 A 
ATOM      5  C   UNL     1       2.762   3.795  20.147  0.00  0.00    +0.000 A 
ATOM      6  N   UNL     1       3.258   2.585  20.021  0.00  0.00    +0.000 NA
ATOM      7  C   UNL     1       4.306   2.730  19.157  0.00  0.00    +0.000 A 
ATOM      8  C   UNL     1       4.473   4.044  18.744  0.00  0.00    +0.000 A 
ATOM      9  N   UNL     1       3.466   4.733  19.408  0.00  0.00    +0.000 N 
ATOM     10  N   UNL     1       3.214   6.081  19.342  0.00  0.00    +0.000 NA
ATOM     11  H   UNL     1       2.549   8.357  19.395  0.00  0.00    +0.000 HD
ENDROOT
BRANCH   8  12
ATOM     12  C   UNL     1       5.454   4.606  17.812  0.00  0.00    +0.000 A 
ATOM     13  C   UNL     1       5.660   3.995  16.563  0.00  0.00    +0.000 A 
ATOM     14  C   UNL     1       6.539   4.549  15.629  0.00  0.00    +0.000 A 
ATOM     15  C   UNL     1       7.229   5.721  15.930  0.00  0.00    +0.000 A 
ATOM     16  C   UNL     1       7.040   6.328  17.169  0.00  0.00    +0.000 A 
ATOM     17 CL   UNL     1       7.892   7.776  17.547  0.00  0.00    +0.000 Cl
ATOM     18  C   UNL     1       6.160   5.780  18.104  0.00  0.00    +0.000 A 
ENDBRANCH   8  12
BRANCH   1  22
ATOM     19  C   UNL     1      -0.330  10.813  22.171  0.00  0.00    +0.000 C 
ATOM     20  C   UNL     1       0.218   9.564  22.885  0.00  0.00    +0.000 C 
ATOM     21  C   UNL     1       1.341   8.881  22.113  0.00  0.00    +0.000 C 
ATOM     22  C   UNL     1       0.880   8.553  20.690  0.00  0.00    +0.000 C 
ATOM     23  C   UNL     1       0.531   9.849  19.957  0.00  0.00    +0.000 C 
ATOM     24  C   UNL     1      -0.606  10.582  20.674  0.00  0.00    +0.000 C 
BRANCH  19  27
ATOM     25  O   UNL     1      -1.074  13.570  22.405  0.00  0.00    +0.000 OA
ATOM     26  C   UNL     1      -1.774  12.704  22.941  0.00  0.00    +0.000 C 
ATOM     27  N   UNL     1      -1.498  11.353  22.868  0.00  0.00    +0.000 N 
ATOM     28  H   UNL     1      -2.009  10.747  23.497  0.00  0.00    +0.000 HD
BRANCH  26  29
ATOM     29  C   UNL     1      -2.998  13.093  23.773  0.00  0.00    +0.000 C 
BRANCH  29  30
ATOM     30  N   UNL     1      -4.225  12.469  23.237  0.00  0.00    +0.000 NA
ATOM     31  C   UNL     1      -4.429  12.827  21.812  0.00  0.00    +0.000 C 
ATOM     32  C   UNL     1      -4.984  14.244  21.568  0.00  0.00    +0.000 C 
ATOM     33  O   UNL     1      -6.192  14.466  22.301  0.00  0.00    +0.000 OA
ATOM     34  C   UNL     1      -5.971  14.270  23.702  0.00  0.00    +0.000 C 
ATOM     35  C   UNL     1      -5.451  12.852  23.983  0.00  0.00    +0.000 C 
ENDBRANCH  29  30
ENDBRANCH  26  29
ENDBRANCH  19  27
ENDBRANCH   1  22
TORSDOF 5
ENDMDL
MODEL 4
REMARK VINA RESULT:      -9.1      1.172      1.654
REMARK  Name = 
REMARK  5 active torsions:
REMARK  status: ('A' for Active; 'I' for Inactive)
REMARK    1  A    between atoms: C_2  and  C_3
REMARK    2  A    between atoms: C_3  and  N_4
REMARK    3  A    between atoms: N_10  and  C_11
REMARK    4  A    between atoms: C_14  and  N_15
REMARK    5  A    between atoms: C_22  and  C_23
REMARK                            x       y       z     vdW  Elec       q    Type
REMARK                         _______ _______ _______ _____ _____    ______ ____
ROOT
ATOM      1  N   UNL     1       1.904   7.862  19.899  0.00  0.00    +0.000 N 
ATOM      2  C   UNL     1       2.166   6.516  19.988  0.00  0.00    +0.000 A 
ATOM      3  C   UNL     1       1.305   5.601  20.799  0.00  0.00    +0.000 A 
ATOM      4  C   UNL     1       1.610   4.302  20.852  0.00  0.00    +0.000 A 
ATOM      5  C   UNL     1       2.722   3.827  20.137  0.00  0.00    +0.000 A 
ATOM      6  N   UNL     1       3.209   2.611  20.034  0.00  0.00    +0.000 NA
ATOM      7  C   UNL     1       4.271   2.736  19.184  0.00  0.00    +0.000 A 
ATOM      8  C   UNL     1       4.455   4.043  18.756  0.00  0.00    +0.000 A 
ATOM      9  N   UNL     1       3.445   4.749  19.397  0.00  0.00    +0.000 N 
ATOM     10  N   UNL     1       3.205   6.098  19.309  0.00  0.00    +0.000 NA
ATOM     11  H   UNL     1       2.559   8.381  19.323  0.00  0.00    +0.000 HD
ENDROOT
BRANCH   8  12
ATOM     12  C   UNL     1       5.455   4.585  17.831  0.00  0.00    +0.000 A 
ATOM     13  C   UNL     1       5.673   3.956  16.593  0.00  0.00    +0.000 A 
ATOM     14  C   UNL     1       6.570   4.490  15.665  0.00  0.00    +0.000 A 
ATOM     15  C   UNL     1       7.266   5.660  15.961  0.00  0.00    +0.000 A 
ATOM     16  C   UNL     1       7.064   6.285  17.189  0.00  0.00    +0.000 A 
ATOM     17 CL   UNL     1       7.923   7.730  17.561  0.00  0.00    +0.000 Cl
ATOM     18  C   UNL     1       6.166   5.757  18.118  0.00  0.00    +0.000 A 
ENDBRANCH   8  12
BRANCH   1  22
ATOM     19  C   UNL     1      -0.319  10.868  22.085  0.00  0.00    +0.000 C 
ATOM     20  C   UNL     1       0.150   9.579  22.784  0.00  0.00    +0.000 C 
ATOM     21  C   UNL     1       1.281   8.876  22.043  0.00  0.00    +0.000 C 
ATOM     22  C   UNL     1       0.873   8.607  20.591  0.00  0.00    +0.000 C 
ATOM     23  C   UNL     1       0.605   9.935  19.883  0.00  0.00    +0.000 C 
ATOM     24  C   UNL     1      -0.536  10.691  20.571  0.00  0.00    +0.000 C 
BRANCH  19  27
ATOM     25  O   UNL     1      -0.761  13.615  22.770  0.00  0.00    +0.000 OA
ATOM     26  C   UNL     1      -1.620  12.773  23.050  0.00  0.00    +0.000 C 
ATOM     27  N   UNL     1      -1.497  11.432  22.746  0.00  0.00    +0.000 N 
ATOM     28  H   UNL     1      -2.153  10.800  23.187  0.00  0.00    +0.000 HD
BRANCH  26  29
ATOM     29  C   UNL     1      -2.888  13.173  23.807  0.00  0.00    +0.000 C 
BRANCH  29  30
ATOM     30  N   UNL     1      -3.662  14.181  23.053  0.00  0.00    +0.000 NA
ATOM     31  C   UNL     1      -4.924  14.519  23.753  0.00  0.00    +0.000 C 
ATOM     32  C   UNL     1      -6.050  13.476  23.609  0.00  0.00    +0.000 C 
ATOM     33  O   UNL     1      -6.321  13.184  22.235  0.00  0.00    +0.000 OA
ATOM     34  C   UNL     1      -5.139  12.710  21.582  0.00  0.00    +0.000 C 
ATOM     35  C   UNL     1      -4.006  13.745  21.675  0.00  0.00    +0.000 C 
ENDBRANCH  29  30
ENDBRANCH  26  29
ENDBRANCH  19  27
ENDBRANCH   1  22
TORSDOF 5
ENDMDL
MODEL 5
REMARK VINA RESULT:      -8.7      1.378      1.745
REMARK  Name = 
REMARK  5 active torsions:
REMARK  status: ('A' for Active; 'I' for Inactive)
REMARK    1  A    between atoms: C_2  and  C_3
REMARK    2  A    between atoms: C_3  and  N_4
REMARK    3  A    between atoms: N_10  and  C_11
REMARK    4  A    between atoms: C_14  and  N_15
REMARK    5  A    between atoms: C_22  and  C_23
REMARK                            x       y       z     vdW  Elec       q    Type
REMARK                         _______ _______ _______ _____ _____    ______ ____
ROOT
ATOM      1  N   UNL     1       1.961   7.962  19.715  0.00  0.00    +0.000 N 
ATOM      2  C   UNL     1       2.207   6.622  19.889  0.00  0.00    +0.000 A 
ATOM      3  C   UNL     1       1.330   5.768  20.748  0.00  0.00    +0.000 A 
ATOM      4  C   UNL     1       1.619   4.471  20.885  0.00  0.00    +0.000 A 
ATOM      5  C   UNL     1       2.731   3.940  20.209  0.00  0.00    +0.000 A 
ATOM      6  N   UNL     1       3.205   2.715  20.185  0.00  0.00    +0.000 NA
ATOM      7  C   UNL     1       4.275   2.776  19.338  0.00  0.00    +0.000 A 
ATOM      8  C   UNL     1       4.477   4.052  18.832  0.00  0.00    +0.000 A 
ATOM      9  N   UNL     1       3.470   4.807  19.419  0.00  0.00    +0.000 N 
ATOM     10  N   UNL     1       3.246   6.151  19.246  0.00  0.00    +0.000 NA
ATOM     11  H   UNL     1       2.626   8.436  19.113  0.00  0.00    +0.000 HD
ENDROOT
BRANCH   8  12
ATOM     12  C   UNL     1       5.489   4.524  17.882  0.00  0.00    +0.000 A 
ATOM     13  C   UNL     1       5.705   3.820  16.685  0.00  0.00    +0.000 A 
ATOM     14  C   UNL     1       6.615   4.287  15.733  0.00  0.00    +0.000 A 
ATOM     15  C   UNL     1       7.326   5.462  15.965  0.00  0.00    +0.000 A 
ATOM     16  C   UNL     1       7.127   6.160  17.153  0.00  0.00    +0.000 A 
ATOM     17 CL   UNL     1       8.005   7.612  17.445  0.00  0.00    +0.000 Cl
ATOM     18  C   UNL     1       6.217   5.700  18.106  0.00  0.00    +0.000 A 
ENDBRANCH   8  12
BRANCH   1  22
ATOM     19  C   UNL     1      -0.222  11.085  21.772  0.00  0.00    +0.000 C 
ATOM     20  C   UNL     1       0.150   9.781  22.501  0.00  0.00    +0.000 C 
ATOM     21  C   UNL     1       1.281   9.020  21.820  0.00  0.00    +0.000 C 
ATOM     22  C   UNL     1       0.933   8.759  20.352  0.00  0.00    +0.000 C 
ATOM     23  C   UNL     1       0.764  10.094  19.624  0.00  0.00    +0.000 C 
ATOM     24  C   UNL     1      -0.372  10.907  20.251  0.00  0.00    +0.000 C 
BRANCH  19  27
ATOM     25  O   UNL     1      -0.325  13.573  23.191  0.00  0.00    +0.000 OA
ATOM     26  C   UNL     1      -1.358  12.910  23.051  0.00  0.00    +0.000 C 
ATOM     27  N   UNL     1      -1.404  11.708  22.371  0.00  0.00    +0.000 N 
ATOM     28  H   UNL     1      -2.241  11.151  22.481  0.00  0.00    +0.000 HD
BRANCH  26  29
ATOM     29  C   UNL     1      -2.676  13.376  23.674  0.00  0.00    +0.000 C 
BRANCH  29  30
ATOM     30  N   UNL     1      -3.277  14.473  22.888  0.00  0.00    +0.000 NA
ATOM     31  C   UNL     1      -3.157  15.768  23.600  0.00  0.00    +0.000 C 
ATOM     32  C   UNL     1      -4.162  15.976  24.751  0.00  0.00    +0.000 C 
ATOM     33  O   UNL     1      -5.510  15.788  24.309  0.00  0.00    +0.000 OA
ATOM     34  C   UNL     1      -5.677  14.479  23.755  0.00  0.00    +0.000 C 
ATOM     35  C   UNL     1      -4.713  14.253  22.579  0.00  0.00    +0.000 C 
ENDBRANCH  29  30
ENDBRANCH  26  29
ENDBRANCH  19  27
ENDBRANCH   1  22
TORSDOF 5
ENDMDL
MODEL 6
REMARK VINA RESULT:      -8.6      1.453      1.790
REMARK  Name = 
REMARK  5 active torsions:
REMARK  status: ('A' for Active; 'I' for Inactive)
REMARK    1  A    between atoms: C_2  and  C_3
REMARK    2  A    between atoms: C_3  and  N_4
REMARK    3  A    between atoms: N_10  and  C_11
REMARK    4  A    between atoms: C_14  and  N_15
REMARK    5  A    between atoms: C_22  and  C_23
REMARK                            x       y       z     vdW  Elec       q    Type
REMARK                         _______ _______ _______ _____ _____    ______ ____
ROOT
ATOM      1  N   UNL     1       2.086   7.814  19.401  0.00  0.00    +0.000 N 
ATOM      2  C   UNL     1       2.306   6.490  19.693  0.00  0.00    +0.000 A 
ATOM      3  C   UNL     1       1.479   5.762  20.705  0.00  0.00    +0.000 A 
ATOM      4  C   UNL     1       1.740   4.476  20.951  0.00  0.00    +0.000 A 
ATOM      5  C   UNL     1       2.774   3.836  20.246  0.00  0.00    +0.000 A 
ATOM      6  N   UNL     1       3.208   2.598  20.311  0.00  0.00    +0.000 NA
ATOM      7  C   UNL     1       4.203   2.532  19.378  0.00  0.00    +0.000 A 
ATOM      8  C   UNL     1       4.400   3.741  18.727  0.00  0.00    +0.000 A 
ATOM      9  N   UNL     1       3.469   4.590  19.313  0.00  0.00    +0.000 N 
ATOM     10  N   UNL     1       3.272   5.917  19.020  0.00  0.00    +0.000 NA
ATOM     11  H   UNL     1       2.712   8.200  18.702  0.00  0.00    +0.000 HD
ENDROOT
BRANCH   8  12
ATOM     12  C   UNL     1       5.342   4.076  17.655  0.00  0.00    +0.000 A 
ATOM     13  C   UNL     1       6.636   4.518  17.978  0.00  0.00    +0.000 A 
ATOM     14  C   UNL     1       7.576   4.779  16.976  0.00  0.00    +0.000 A 
ATOM     15  C   UNL     1       7.234   4.604  15.637  0.00  0.00    +0.000 A 
ATOM     16  C   UNL     1       5.950   4.176  15.307  0.00  0.00    +0.000 A 
ATOM     17 CL   UNL     1       5.523   3.960  13.654  0.00  0.00    +0.000 Cl
ATOM     18  C   UNL     1       5.010   3.912  16.305  0.00  0.00    +0.000 A 
ENDBRANCH   8  12
BRANCH   1  22
ATOM     19  C   UNL     1       0.224  11.119  21.490  0.00  0.00    +0.000 C 
ATOM     20  C   UNL     1       0.417   9.761  22.190  0.00  0.00    +0.000 C 
ATOM     21  C   UNL     1       1.472   8.890  21.517  0.00  0.00    +0.000 C 
ATOM     22  C   UNL     1       1.140   8.711  20.033  0.00  0.00    +0.000 C 
ATOM     23  C   UNL     1       1.152  10.074  19.342  0.00  0.00    +0.000 C 
ATOM     24  C   UNL     1       0.101  11.000  19.960  0.00  0.00    +0.000 C 
BRANCH  19  27
ATOM     25  O   UNL     1       0.074  13.948  21.923  0.00  0.00    +0.000 OA
ATOM     26  C   UNL     1      -0.874  13.231  22.258  0.00  0.00    +0.000 C 
ATOM     27  N   UNL     1      -0.894  11.862  22.075  0.00  0.00    +0.000 N 
ATOM     28  H   UNL     1      -1.619  11.346  22.557  0.00  0.00    +0.000 HD
BRANCH  26  29
ATOM     29  C   UNL     1      -2.100  13.830  22.950  0.00  0.00    +0.000 C 
BRANCH  29  30
ATOM     30  N   UNL     1      -1.872  15.247  23.302  0.00  0.00    +0.000 NA
ATOM     31  C   UNL     1      -1.559  15.395  24.744  0.00  0.00    +0.000 C 
ATOM     32  C   UNL     1      -2.774  15.305  25.689  0.00  0.00    +0.000 C 
ATOM     33  O   UNL     1      -3.796  16.234  25.317  0.00  0.00    +0.000 OA
ATOM     34  C   UNL     1      -4.217  16.001  23.968  0.00  0.00    +0.000 C 
ATOM     35  C   UNL     1      -3.033  16.122  22.995  0.00  0.00    +0.000 C 
ENDBRANCH  29  30
ENDBRANCH  26  29
ENDBRANCH  19  27
ENDBRANCH   1  22
TORSDOF 5
ENDMDL
MODEL 7
REMARK VINA RESULT:      -8.5      1.114      1.296
REMARK  Name = 
REMARK  5 active torsions:
REMARK  status: ('A' for Active; 'I' for Inactive)
REMARK    1  A    between atoms: C_2  and  C_3
REMARK    2  A    between atoms: C_3  and  N_4
REMARK    3  A    between atoms: N_10  and  C_11
REMARK    4  A    between atoms: C_14  and  N_15
REMARK    5  A    between atoms: C_22  and  C_23
REMARK                            x       y       z     vdW  Elec       q    Type
REMARK                         _______ _______ _______ _____ _____    ______ ____
ROOT
ATOM      1  N   UNL     1       2.078   8.205  18.977  0.00  0.00    +0.000 N 
ATOM      2  C   UNL     1       2.274   6.922  19.427  0.00  0.00    +0.000 A 
ATOM      3  C   UNL     1       1.415   6.327  20.497  0.00  0.00    +0.000 A 
ATOM      4  C   UNL     1       1.653   5.076  20.899  0.00  0.00    +0.000 A 
ATOM      5  C   UNL     1       2.694   4.347  20.300  0.00  0.00    +0.000 A 
ATOM      6  N   UNL     1       3.109   3.121  20.521  0.00  0.00    +0.000 NA
ATOM      7  C   UNL     1       4.124   2.934  19.626  0.00  0.00    +0.000 A 
ATOM      8  C   UNL     1       4.352   4.056  18.843  0.00  0.00    +0.000 A 
ATOM      9  N   UNL     1       3.420   4.978  19.301  0.00  0.00    +0.000 N 
ATOM     10  N   UNL     1       3.247   6.263  18.850  0.00  0.00    +0.000 NA
ATOM     11  H   UNL     1       2.725   8.498  18.252  0.00  0.00    +0.000 HD
ENDROOT
BRANCH   8  12
ATOM     12  C   UNL     1       5.323   4.252  17.762  0.00  0.00    +0.000 A 
ATOM     13  C   UNL     1       6.658   4.563  18.072  0.00  0.00    +0.000 A 
ATOM     14  C   UNL     1       7.618   4.688  17.063  0.00  0.00    +0.000 A 
ATOM     15  C   UNL     1       7.256   4.507  15.730  0.00  0.00    +0.000 A 
ATOM     16  C   UNL     1       5.933   4.210  15.413  0.00  0.00    +0.000 A 
ATOM     17 CL   UNL     1       5.482   3.987  13.766  0.00  0.00    +0.000 Cl
ATOM     18  C   UNL     1       4.972   4.080  16.417  0.00  0.00    +0.000 A 
ENDBRANCH   8  12
BRANCH   1  22
ATOM     19  C   UNL     1       0.215  11.749  20.627  0.00  0.00    +0.000 C 
ATOM     20  C   UNL     1       0.364  10.475  21.479  0.00  0.00    +0.000 C 
ATOM     21  C   UNL     1       1.422   9.519  20.940  0.00  0.00    +0.000 C 
ATOM     22  C   UNL     1       1.131   9.180  19.476  0.00  0.00    +0.000 C 
ATOM     23  C   UNL     1       1.186  10.457  18.637  0.00  0.00    +0.000 C 
ATOM     24  C   UNL     1       0.134  11.461  19.116  0.00  0.00    +0.000 C 
BRANCH  19  27
ATOM     25  O   UNL     1       0.307  13.851  22.572  0.00  0.00    +0.000 OA
ATOM     26  C   UNL     1      -0.772  13.557  22.045  0.00  0.00    +0.000 C 
ATOM     27  N   UNL     1      -0.906  12.568  21.090  0.00  0.00    +0.000 N 
ATOM     28  H   UNL     1      -1.847  12.270  20.870  0.00  0.00    +0.000 HD
BRANCH  26  29
ATOM     29  C   UNL     1      -2.063  14.264  22.462  0.00  0.00    +0.000 C 
BRANCH  29  30
ATOM     30  N   UNL     1      -2.567  13.735  23.746  0.00  0.00    +0.000 NA
ATOM     31  C   UNL     1      -3.466  12.575  23.530  0.00  0.00    +0.000 C 
ATOM     32  C   UNL     1      -4.890  12.931  23.060  0.00  0.00    +0.000 C 
ATOM     33  O   UNL     1      -5.513  13.869  23.943  0.00  0.00    +0.000 OA
ATOM     34  C   UNL     1      -4.727  15.061  24.042  0.00  0.00    +0.000 C 
ATOM     35  C   UNL     1      -3.310  14.744  24.545  0.00  0.00    +0.000 C 
ENDBRANCH  29  30
ENDBRANCH  26  29
ENDBRANCH  19  27
ENDBRANCH   1  22
TORSDOF 5
ENDMDL
MODEL 8
REMARK VINA RESULT:      -8.5      1.310      1.724
REMARK  Name = 
REMARK  5 active torsions:
REMARK  status: ('A' for Active; 'I' for Inactive)
REMARK    1  A    between atoms: C_2  and  C_3
REMARK    2  A    between atoms: C_3  and  N_4
REMARK    3  A    between atoms: N_10  and  C_11
REMARK    4  A    between atoms: C_14  and  N_15
REMARK    5  A    between atoms: C_22  and  C_23
REMARK                            x       y       z     vdW  Elec       q    Type
REMARK                         _______ _______ _______ _____ _____    ______ ____
ROOT
ATOM      1  N   UNL     1       1.989   7.664  19.802  0.00  0.00    +0.000 N 
ATOM      2  C   UNL     1       2.115   6.298  19.874  0.00  0.00    +0.000 A 
ATOM      3  C   UNL     1       1.170   5.465  20.681  0.00  0.00    +0.000 A 
ATOM      4  C   UNL     1       1.343   4.141  20.718  0.00  0.00    +0.000 A 
ATOM      5  C   UNL     1       2.397   3.564  19.990  0.00  0.00    +0.000 A 
ATOM      6  N   UNL     1       2.758   2.307  19.870  0.00  0.00    +0.000 NA
ATOM      7  C   UNL     1       3.823   2.335  19.014  0.00  0.00    +0.000 A 
ATOM      8  C   UNL     1       4.135   3.621  18.600  0.00  0.00    +0.000 A 
ATOM      9  N   UNL     1       3.205   4.418  19.255  0.00  0.00    +0.000 N 
ATOM     10  N   UNL     1       3.102   5.785  19.184  0.00  0.00    +0.000 NA
ATOM     11  H   UNL     1       2.690   8.121  19.227  0.00  0.00    +0.000 HD
ENDROOT
BRANCH   8  12
ATOM     12  C   UNL     1       5.179   4.070  17.674  0.00  0.00    +0.000 A 
ATOM     13  C   UNL     1       6.319   4.724  18.172  0.00  0.00    +0.000 A 
ATOM     14  C   UNL     1       7.360   5.102  17.319  0.00  0.00    +0.000 A 
ATOM     15  C   UNL     1       7.275   4.833  15.955  0.00  0.00    +0.000 A 
ATOM     16  C   UNL     1       6.145   4.195  15.450  0.00  0.00    +0.000 A 
ATOM     17 CL   UNL     1       6.036   3.862  13.765  0.00  0.00    +0.000 Cl
ATOM     18  C   UNL     1       5.105   3.813  16.299  0.00  0.00    +0.000 A 
ENDBRANCH   8  12
BRANCH   1  22
ATOM     19  C   UNL     1       0.072  10.889  21.965  0.00  0.00    +0.000 C 
ATOM     20  C   UNL     1       0.486   9.597  22.693  0.00  0.00    +0.000 C 
ATOM     21  C   UNL     1       1.533   8.793  21.930  0.00  0.00    +0.000 C 
ATOM     22  C   UNL     1       1.042   8.501  20.509  0.00  0.00    +0.000 C 
ATOM     23  C   UNL     1       0.831   9.819  19.763  0.00  0.00    +0.000 C 
ATOM     24  C   UNL     1      -0.224  10.674  20.470  0.00  0.00    +0.000 C 
BRANCH  19  27
ATOM     25  O   UNL     1      -1.398  13.175  21.057  0.00  0.00    +0.000 OA
ATOM     26  C   UNL     1      -1.681  12.664  22.146  0.00  0.00    +0.000 C 
ATOM     27  N   UNL     1      -1.034  11.554  22.655  0.00  0.00    +0.000 N 
ATOM     28  H   UNL     1      -1.199  11.335  23.629  0.00  0.00    +0.000 HD
BRANCH  26  29
ATOM     29  C   UNL     1      -2.766  13.272  23.036  0.00  0.00    +0.000 C 
BRANCH  29  30
ATOM     30  N   UNL     1      -2.174  13.961  24.201  0.00  0.00    +0.000 NA
ATOM     31  C   UNL     1      -3.223  14.591  25.038  0.00  0.00    +0.000 C 
ATOM     32  C   UNL     1      -3.795  15.912  24.486  0.00  0.00    +0.000 C 
ATOM     33  O   UNL     1      -2.758  16.859  24.215  0.00  0.00    +0.000 OA
ATOM     34  C   UNL     1      -1.815  16.316  23.284  0.00  0.00    +0.000 C 
ATOM     35  C   UNL     1      -1.197  15.015  23.824  0.00  0.00    +0.000 C 
ENDBRANCH  29  30
ENDBRANCH  26  29
ENDBRANCH  19  27
ENDBRANCH   1  22
TORSDOF 5
ENDMDL
MODEL 9
REMARK VINA RESULT:      -8.3      1.569      2.064
REMARK  Name = 
REMARK  5 active torsions:
REMARK  status: ('A' for Active; 'I' for Inactive)
REMARK    1  A    between atoms: C_2  and  C_3
REMARK    2  A    between atoms: C_3  and  N_4
REMARK    3  A    between atoms: N_10  and  C_11
REMARK    4  A    between atoms: C_14  and  N_15
REMARK    5  A    between atoms: C_22  and  C_23
REMARK                            x       y       z     vdW  Elec       q    Type
REMARK                         _______ _______ _______ _____ _____    ______ ____
ROOT
ATOM      1  N   UNL     1       1.919   7.718  19.866  0.00  0.00    +0.000 N 
ATOM      2  C   UNL     1       2.122   6.361  19.934  0.00  0.00    +0.000 A 
ATOM      3  C   UNL     1       1.243   5.477  20.761  0.00  0.00    +0.000 A 
ATOM      4  C   UNL     1       1.489   4.165  20.793  0.00  0.00    +0.000 A 
ATOM      5  C   UNL     1       2.557   3.647  20.042  0.00  0.00    +0.000 A 
ATOM      6  N   UNL     1       2.985   2.412  19.913  0.00  0.00    +0.000 NA
ATOM      7  C   UNL     1       4.027   2.498  19.034  0.00  0.00    +0.000 A 
ATOM      8  C   UNL     1       4.259   3.800  18.614  0.00  0.00    +0.000 A 
ATOM      9  N   UNL     1       3.300   4.544  19.289  0.00  0.00    +0.000 N 
ATOM     10  N   UNL     1       3.120   5.903  19.222  0.00  0.00    +0.000 NA
ATOM     11  H   UNL     1       2.581   8.213  19.276  0.00  0.00    +0.000 HD
ENDROOT
BRANCH   8  12
ATOM     12  C   UNL     1       5.255   4.305  17.665  0.00  0.00    +0.000 A 
ATOM     13  C   UNL     1       5.416   3.674  16.420  0.00  0.00    +0.000 A 
ATOM     14  C   UNL     1       6.310   4.177  15.470  0.00  0.00    +0.000 A 
ATOM     15  C   UNL     1       7.060   5.316  15.754  0.00  0.00    +0.000 A 
ATOM     16  C   UNL     1       6.916   5.942  16.989  0.00  0.00    +0.000 A 
ATOM     17 CL   UNL     1       7.842   7.349  17.344  0.00  0.00    +0.000 Cl
ATOM     18  C   UNL     1       6.021   5.446  17.939  0.00  0.00    +0.000 A 
ENDBRANCH   8  12
BRANCH   1  22
ATOM     19  C   UNL     1      -0.152  10.862  22.007  0.00  0.00    +0.000 C 
ATOM     20  C   UNL     1       0.418   9.646  22.761  0.00  0.00    +0.000 C 
ATOM     21  C   UNL     1       1.487   8.902  21.969  0.00  0.00    +0.000 C 
ATOM     22  C   UNL     1       0.943   8.502  20.595  0.00  0.00    +0.000 C 
ATOM     23  C   UNL     1       0.571   9.759  19.809  0.00  0.00    +0.000 C 
ATOM     24  C   UNL     1      -0.514  10.551  20.543  0.00  0.00    +0.000 C 
BRANCH  19  27
ATOM     25  O   UNL     1      -1.630  13.204  21.273  0.00  0.00    +0.000 OA
ATOM     26  C   UNL     1      -1.921  12.603  22.312  0.00  0.00    +0.000 C 
ATOM     27  N   UNL     1      -1.272  11.460  22.735  0.00  0.00    +0.000 N 
ATOM     28  H   UNL     1      -1.447  11.159  23.686  0.00  0.00    +0.000 HD
BRANCH  26  29
ATOM     29  C   UNL     1      -3.023  13.127  23.235  0.00  0.00    +0.000 C 
BRANCH  29  30
ATOM     30  N   UNL     1      -2.450  13.864  24.380  0.00  0.00    +0.000 NA
ATOM     31  C   UNL     1      -3.502  14.601  25.122  0.00  0.00    +0.000 C 
ATOM     32  C   UNL     1      -3.977  15.907  24.455  0.00  0.00    +0.000 C 
ATOM     33  O   UNL     1      -2.880  16.781  24.175  0.00  0.00    +0.000 OA
ATOM     34  C   UNL     1      -1.925  16.130  23.330  0.00  0.00    +0.000 C 
ATOM     35  C   UNL     1      -1.403  14.840  23.984  0.00  0.00    +0.000 C 
ENDBRANCH  29  30
ENDBRANCH  26  29
ENDBRANCH  19  27
ENDBRANCH   1  22
TORSDOF 5
ENDMDL
