MODEL 1
REMARK VINA RESULT:      -7.0      0.000      0.000
REMARK  Name = 
REMARK  6 active torsions:
REMARK  status: ('A' for Active; 'I' for Inactive)
REMARK    1  A    between atoms: C_1  and  C_2
REMARK    2  A    between atoms: C_2  and  C_3
REMARK    3  A    between atoms: C_3  and  N_4
REMARK    4  A    between atoms: C_3  and  C_5
REMARK    5  A    between atoms: C_10  and  C_11
REMARK    6  A    between atoms: C_18  and  C_19
REMARK                            x       y       z     vdW  Elec       q    Type
REMARK                         _______ _______ _______ _____ _____    ______ ____
ROOT
ATOM      1  C   UNL     1       3.300   4.878  19.516  0.00  0.00    +0.000 A 
ATOM      2  C   UNL     1       3.802   5.202  18.254  0.00  0.00    +0.000 A 
ATOM      3  C   UNL     1       3.513   6.429  17.650  0.00  0.00    +0.000 A 
ATOM      4  C   UNL     1       2.706   7.352  18.338  0.00  0.00    +0.000 A 
ATOM      5  S   UNL     1       2.224   8.898  17.799  0.00  0.00    +0.000 S 
ATOM      6  C   UNL     1       1.359   9.249  19.244  0.00  0.00    +0.000 A 
ATOM      7  C   UNL     1       1.422   8.185  20.135  0.00  0.00    +0.000 A 
ATOM      8  C   UNL     1       0.802   8.129  21.499  0.00  0.00    +0.000 C 
ATOM      9  C   UNL     1       2.197   7.079  19.608  0.00  0.00    +0.000 A 
ATOM     10  C   UNL     1       2.504   5.826  20.188  0.00  0.00    +0.000 A 
ENDROOT
BRANCH   6  11
ATOM     11  C   UNL     1       0.732  10.574  19.389  0.00  0.00    +0.000 A 
ATOM     12  C   UNL     1       1.065  11.447  20.405  0.00  0.00    +0.000 A 
ATOM     13  C   UNL     1       0.336  12.604  20.452  0.00  0.00    +0.000 A 
ATOM     14  N   UNL     1      -0.639  12.906  19.576  0.00  0.00    +0.000 NA
ATOM     15  C   UNL     1      -0.888  12.000  18.628  0.00  0.00    +0.000 A 
ATOM     16  N   UNL     1      -1.917  12.258  17.766  0.00  0.00    +0.000 N 
ATOM     17  N   UNL     1      -0.232  10.846  18.489  0.00  0.00    +0.000 NA
ATOM     18  H   UNL     1      -2.277  13.197  17.786  0.00  0.00    +0.000 HD
ATOM     19  H   UNL     1      -1.964  11.683  16.941  0.00  0.00    +0.000 HD
ENDBRANCH   6  11
BRANCH   1  20
ATOM     20  C   UNL     1       3.582   3.543  20.177  0.00  0.00    +0.000 C 
BRANCH  20  21
ATOM     21  N   UNL     1       4.721   2.894  19.528  0.00  0.00    +0.000 NA
ATOM     22  H   UNL     1       5.463   3.575  19.384  0.00  0.00    +0.000 HD
ATOM     23  H   UNL     1       4.450   2.563  18.605  0.00  0.00    +0.000 HD
ENDBRANCH  20  21
BRANCH  20  25
ATOM     24  C   UNL     1       1.667   2.554  21.565  0.00  0.00    +0.000 C 
ATOM     25  C   UNL     1       2.317   2.661  20.192  0.00  0.00    +0.000 C 
ENDBRANCH  20  25
ENDBRANCH   1  20
TORSDOF 4
ENDMDL
MODEL 2
REMARK VINA RESULT:      -6.9      2.957      3.945
REMARK  Name = 
REMARK  6 active torsions:
REMARK  status: ('A' for Active; 'I' for Inactive)
REMARK    1  A    between atoms: C_1  and  C_2
REMARK    2  A    between atoms: C_2  and  C_3
REMARK    3  A    between atoms: C_3  and  N_4
REMARK    4  A    between atoms: C_3  and  C_5
REMARK    5  A    between atoms: C_10  and  C_11
REMARK    6  A    between atoms: C_18  and  C_19
REMARK                            x       y       z     vdW  Elec       q    Type
REMARK                         _______ _______ _______ _____ _____    ______ ____
ROOT
ATOM      1  C   UNL     1       1.978   7.715  19.592  0.00  0.00    +0.000 A 
ATOM      2  C   UNL     1       1.898   8.522  18.455  0.00  0.00    +0.000 A 
ATOM      3  C   UNL     1       1.216   9.742  18.477  0.00  0.00    +0.000 A 
ATOM      4  C   UNL     1       0.610  10.161  19.674  0.00  0.00    +0.000 A 
ATOM      5  S   UNL     1      -0.271  11.600  19.932  0.00  0.00    +0.000 S 
ATOM      6  C   UNL     1      -0.552  11.256  21.593  0.00  0.00    +0.000 A 
ATOM      7  C   UNL     1       0.011  10.038  21.953  0.00  0.00    +0.000 A 
ATOM      8  C   UNL     1      -0.018   9.413  23.316  0.00  0.00    +0.000 C 
ATOM      9  C   UNL     1       0.679   9.396  20.838  0.00  0.00    +0.000 A 
ATOM     10  C   UNL     1       1.370   8.164  20.780  0.00  0.00    +0.000 A 
ENDROOT
BRANCH   6  11
ATOM     11  C   UNL     1      -1.265  12.252  22.411  0.00  0.00    +0.000 A 
ATOM     12  C   UNL     1      -0.717  13.475  22.741  0.00  0.00    +0.000 A 
ATOM     13  C   UNL     1      -1.470  14.254  23.575  0.00  0.00    +0.000 A 
ATOM     14  N   UNL     1      -2.674  13.889  24.051  0.00  0.00    +0.000 NA
ATOM     15  C   UNL     1      -3.122  12.689  23.676  0.00  0.00    +0.000 A 
ATOM     16  N   UNL     1      -4.315  12.271  24.198  0.00  0.00    +0.000 N 
ATOM     17  N   UNL     1      -2.471  11.856  22.862  0.00  0.00    +0.000 NA
ATOM     18  H   UNL     1      -4.857  12.977  24.665  0.00  0.00    +0.000 HD
ATOM     19  H   UNL     1      -4.740  11.472  23.758  0.00  0.00    +0.000 HD
ENDBRANCH   6  11
BRANCH   1  20
ATOM     20  C   UNL     1       2.691   6.377  19.581  0.00  0.00    +0.000 C 
BRANCH  20  21
ATOM     21  N   UNL     1       2.775   5.866  18.213  0.00  0.00    +0.000 NA
ATOM     22  H   UNL     1       2.700   4.851  18.225  0.00  0.00    +0.000 HD
ATOM     23  H   UNL     1       3.687   6.083  17.819  0.00  0.00    +0.000 HD
ENDBRANCH  20  21
BRANCH  20  25
ATOM     24  C   UNL     1       1.457   4.147  19.862  0.00  0.00    +0.000 C 
ATOM     25  C   UNL     1       2.013   5.387  20.550  0.00  0.00    +0.000 C 
ENDBRANCH  20  25
ENDBRANCH   1  20
TORSDOF 4
ENDMDL
MODEL 3
REMARK VINA RESULT:      -6.9      2.627      3.989
REMARK  Name = 
REMARK  6 active torsions:
REMARK  status: ('A' for Active; 'I' for Inactive)
REMARK    1  A    between atoms: C_1  and  C_2
REMARK    2  A    between atoms: C_2  and  C_3
REMARK    3  A    between atoms: C_3  and  N_4
REMARK    4  A    between atoms: C_3  and  C_5
REMARK    5  A    between atoms: C_10  and  C_11
REMARK    6  A    between atoms: C_18  and  C_19
REMARK                            x       y       z     vdW  Elec       q    Type
REMARK                         _______ _______ _______ _____ _____    ______ ____
ROOT
ATOM      1  C   UNL     1       4.681   4.434  17.502  0.00  0.00    +0.000 A 
ATOM      2  C   UNL     1       4.328   3.586  18.554  0.00  0.00    +0.000 A 
ATOM      3  C   UNL     1       3.489   4.018  19.585  0.00  0.00    +0.000 A 
ATOM      4  C   UNL     1       2.990   5.331  19.551  0.00  0.00    +0.000 A 
ATOM      5  S   UNL     1       1.960   6.071  20.694  0.00  0.00    +0.000 S 
ATOM      6  C   UNL     1       1.882   7.552  19.824  0.00  0.00    +0.000 A 
ATOM      7  C   UNL     1       2.650   7.494  18.668  0.00  0.00    +0.000 A 
ATOM      8  C   UNL     1       2.815   8.586  17.653  0.00  0.00    +0.000 C 
ATOM      9  C   UNL     1       3.301   6.208  18.511  0.00  0.00    +0.000 A 
ATOM     10  C   UNL     1       4.157   5.741  17.487  0.00  0.00    +0.000 A 
ENDROOT
BRANCH   6  11
ATOM     11  C   UNL     1       1.021   8.631  20.339  0.00  0.00    +0.000 A 
ATOM     12  C   UNL     1       0.640   9.710  19.569  0.00  0.00    +0.000 A 
ATOM     13  C   UNL     1      -0.092  10.668  20.217  0.00  0.00    +0.000 A 
ATOM     14  N   UNL     1      -0.444  10.587  21.512  0.00  0.00    +0.000 NA
ATOM     15  C   UNL     1      -0.031   9.505  22.175  0.00  0.00    +0.000 A 
ATOM     16  N   UNL     1      -0.323   9.433  23.508  0.00  0.00    +0.000 N 
ATOM     17  N   UNL     1       0.680   8.511  21.637  0.00  0.00    +0.000 NA
ATOM     18  H   UNL     1      -0.996  10.102  23.843  0.00  0.00    +0.000 HD
ATOM     19  H   UNL     1      -0.194   8.536  23.946  0.00  0.00    +0.000 HD
ENDBRANCH   6  11
BRANCH   1  20
ATOM     20  C   UNL     1       5.609   3.992  16.388  0.00  0.00    +0.000 C 
BRANCH  20  21
ATOM     21  N   UNL     1       7.002   4.178  16.794  0.00  0.00    +0.000 NA
ATOM     22  H   UNL     1       7.090   5.046  17.316  0.00  0.00    +0.000 HD
ATOM     23  H   UNL     1       7.591   4.275  15.971  0.00  0.00    +0.000 HD
ENDBRANCH  20  21
BRANCH  20  25
ATOM     24  C   UNL     1       5.947   4.110  13.849  0.00  0.00    +0.000 C 
ATOM     25  C   UNL     1       5.267   4.716  15.070  0.00  0.00    +0.000 C 
ENDBRANCH  20  25
ENDBRANCH   1  20
TORSDOF 4
ENDMDL
MODEL 4
REMARK VINA RESULT:      -6.9      2.011      7.456
REMARK  Name = 
REMARK  6 active torsions:
REMARK  status: ('A' for Active; 'I' for Inactive)
REMARK    1  A    between atoms: C_1  and  C_2
REMARK    2  A    between atoms: C_2  and  C_3
REMARK    3  A    between atoms: C_3  and  N_4
REMARK    4  A    between atoms: C_3  and  C_5
REMARK    5  A    between atoms: C_10  and  C_11
REMARK    6  A    between atoms: C_18  and  C_19
REMARK                            x       y       z     vdW  Elec       q    Type
REMARK                         _______ _______ _______ _____ _____    ______ ____
ROOT
ATOM      1  C   UNL     1       0.985  10.090  20.004  0.00  0.00    +0.000 A 
ATOM      2  C   UNL     1       1.498  10.465  18.760  0.00  0.00    +0.000 A 
ATOM      3  C   UNL     1       2.138   9.540  17.930  0.00  0.00    +0.000 A 
ATOM      4  C   UNL     1       2.255   8.207  18.361  0.00  0.00    +0.000 A 
ATOM      5  S   UNL     1       2.994   6.916  17.522  0.00  0.00    +0.000 S 
ATOM      6  C   UNL     1       2.624   5.768  18.748  0.00  0.00    +0.000 A 
ATOM      7  C   UNL     1       1.951   6.366  19.806  0.00  0.00    +0.000 A 
ATOM      8  C   UNL     1       1.456   5.682  21.046  0.00  0.00    +0.000 C 
ATOM      9  C   UNL     1       1.743   7.784  19.588  0.00  0.00    +0.000 A 
ATOM     10  C   UNL     1       1.107   8.746  20.405  0.00  0.00    +0.000 A 
ENDROOT
BRANCH   6  11
ATOM     11  C   UNL     1       2.991   4.358  18.530  0.00  0.00    +0.000 A 
ATOM     12  C   UNL     1       2.389   3.573  17.568  0.00  0.00    +0.000 A 
ATOM     13  C   UNL     1       2.781   2.262  17.545  0.00  0.00    +0.000 A 
ATOM     14  N   UNL     1       3.697   1.745  18.383  0.00  0.00    +0.000 NA
ATOM     15  C   UNL     1       4.225   2.582  19.279  0.00  0.00    +0.000 A 
ATOM     16  N   UNL     1       5.111   2.062  20.181  0.00  0.00    +0.000 N 
ATOM     17  N   UNL     1       3.918   3.877  19.380  0.00  0.00    +0.000 NA
ATOM     18  H   UNL     1       5.448   1.137  19.977  0.00  0.00    +0.000 HD
ATOM     19  H   UNL     1       5.652   2.726  20.709  0.00  0.00    +0.000 HD
ENDBRANCH   6  11
BRANCH   1  20
ATOM     20  C   UNL     1       0.311  11.084  20.930  0.00  0.00    +0.000 C 
BRANCH  20  21
ATOM     21  N   UNL     1       1.212  12.203  21.205  0.00  0.00    +0.000 NA
ATOM     22  H   UNL     1       1.897  12.279  20.457  0.00  0.00    +0.000 HD
ATOM     23  H   UNL     1       1.735  12.023  22.058  0.00  0.00    +0.000 HD
ENDBRANCH  20  21
BRANCH  20  25
ATOM     24  C   UNL     1      -1.224  11.200  22.980  0.00  0.00    +0.000 C 
ATOM     25  C   UNL     1      -0.190  10.387  22.211  0.00  0.00    +0.000 C 
ENDBRANCH  20  25
ENDBRANCH   1  20
TORSDOF 4
ENDMDL
MODEL 5
REMARK VINA RESULT:      -6.9      2.681      7.274
REMARK  Name = 
REMARK  6 active torsions:
REMARK  status: ('A' for Active; 'I' for Inactive)
REMARK    1  A    between atoms: C_1  and  C_2
REMARK    2  A    between atoms: C_2  and  C_3
REMARK    3  A    between atoms: C_3  and  N_4
REMARK    4  A    between atoms: C_3  and  C_5
REMARK    5  A    between atoms: C_10  and  C_11
REMARK    6  A    between atoms: C_18  and  C_19
REMARK                            x       y       z     vdW  Elec       q    Type
REMARK                         _______ _______ _______ _____ _____    ______ ____
ROOT
ATOM      1  C   UNL     1       0.396   9.887  21.407  0.00  0.00    +0.000 A 
ATOM      2  C   UNL     1       0.581  10.692  20.280  0.00  0.00    +0.000 A 
ATOM      3  C   UNL     1       1.220  10.207  19.137  0.00  0.00    +0.000 A 
ATOM      4  C   UNL     1       1.677   8.877  19.126  0.00  0.00    +0.000 A 
ATOM      5  S   UNL     1       2.481   8.076  17.851  0.00  0.00    +0.000 S 
ATOM      6  C   UNL     1       2.584   6.589  18.708  0.00  0.00    +0.000 A 
ATOM      7  C   UNL     1       2.019   6.701  19.972  0.00  0.00    +0.000 A 
ATOM      8  C   UNL     1       1.912   5.612  20.999  0.00  0.00    +0.000 C 
ATOM      9  C   UNL     1       1.499   8.031  20.221  0.00  0.00    +0.000 A 
ATOM     10  C   UNL     1       0.853   8.556  21.364  0.00  0.00    +0.000 A 
ENDROOT
BRANCH   6  11
ATOM     11  C   UNL     1       3.172   5.421  18.030  0.00  0.00    +0.000 A 
ATOM     12  C   UNL     1       2.417   4.345  17.612  0.00  0.00    +0.000 A 
ATOM     13  C   UNL     1       3.121   3.303  17.073  0.00  0.00    +0.000 A 
ATOM     14  N   UNL     1       4.459   3.300  16.936  0.00  0.00    +0.000 NA
ATOM     15  C   UNL     1       5.103   4.385  17.369  0.00  0.00    +0.000 A 
ATOM     16  N   UNL     1       6.469   4.377  17.297  0.00  0.00    +0.000 N 
ATOM     17  N   UNL     1       4.513   5.457  17.902  0.00  0.00    +0.000 NA
ATOM     18  H   UNL     1       6.871   3.641  16.743  0.00  0.00    +0.000 HD
ATOM     19  H   UNL     1       6.928   5.263  17.428  0.00  0.00    +0.000 HD
ENDBRANCH   6  11
BRANCH   1  20
ATOM     20  C   UNL     1      -0.272  10.403  22.666  0.00  0.00    +0.000 C 
BRANCH  20  21
ATOM     21  N   UNL     1      -0.799   9.284  23.447  0.00  0.00    +0.000 NA
ATOM     22  H   UNL     1      -0.456   8.409  23.059  0.00  0.00    +0.000 HD
ATOM     23  H   UNL     1      -1.813   9.257  23.370  0.00  0.00    +0.000 HD
ENDBRANCH  20  21
BRANCH  20  25
ATOM     24  C   UNL     1      -1.165  12.773  23.066  0.00  0.00    +0.000 C 
ATOM     25  C   UNL     1      -1.347  11.455  22.324  0.00  0.00    +0.000 C 
ENDBRANCH  20  25
ENDBRANCH   1  20
TORSDOF 4
ENDMDL
MODEL 6
REMARK VINA RESULT:      -6.8      0.789      1.007
REMARK  Name = 
REMARK  6 active torsions:
REMARK  status: ('A' for Active; 'I' for Inactive)
REMARK    1  A    between atoms: C_1  and  C_2
REMARK    2  A    between atoms: C_2  and  C_3
REMARK    3  A    between atoms: C_3  and  N_4
REMARK    4  A    between atoms: C_3  and  C_5
REMARK    5  A    between atoms: C_10  and  C_11
REMARK    6  A    between atoms: C_18  and  C_19
REMARK                            x       y       z     vdW  Elec       q    Type
REMARK                         _______ _______ _______ _____ _____    ______ ____
ROOT
ATOM      1  C   UNL     1       3.601   4.960  19.154  0.00  0.00    +0.000 A 
ATOM      2  C   UNL     1       4.033   5.421  17.908  0.00  0.00    +0.000 A 
ATOM      3  C   UNL     1       3.644   6.672  17.422  0.00  0.00    +0.000 A 
ATOM      4  C   UNL     1       2.807   7.479  18.213  0.00  0.00    +0.000 A 
ATOM      5  S   UNL     1       2.207   9.030  17.824  0.00  0.00    +0.000 S 
ATOM      6  C   UNL     1       1.378   9.201  19.322  0.00  0.00    +0.000 A 
ATOM      7  C   UNL     1       1.543   8.073  20.116  0.00  0.00    +0.000 A 
ATOM      8  C   UNL     1       0.980   7.861  21.490  0.00  0.00    +0.000 C 
ATOM      9  C   UNL     1       2.365   7.068  19.471  0.00  0.00    +0.000 A 
ATOM     10  C   UNL     1       2.773   5.794  19.930  0.00  0.00    +0.000 A 
ENDROOT
BRANCH   6  11
ATOM     11  C   UNL     1       0.675  10.464  19.601  0.00  0.00    +0.000 A 
ATOM     12  C   UNL     1       0.505  10.955  20.879  0.00  0.00    +0.000 A 
ATOM     13  C   UNL     1      -0.241  12.097  20.979  0.00  0.00    +0.000 A 
ATOM     14  N   UNL     1      -0.777  12.731  19.922  0.00  0.00    +0.000 NA
ATOM     15  C   UNL     1      -0.558  12.182  18.725  0.00  0.00    +0.000 A 
ATOM     16  N   UNL     1      -1.147  12.775  17.643  0.00  0.00    +0.000 N 
ATOM     17  N   UNL     1       0.160  11.077  18.517  0.00  0.00    +0.000 NA
ATOM     18  H   UNL     1      -1.535  13.689  17.804  0.00  0.00    +0.000 HD
ATOM     19  H   UNL     1      -0.814  12.486  16.739  0.00  0.00    +0.000 HD
ENDBRANCH   6  11
BRANCH   1  20
ATOM     20  C   UNL     1       3.992   3.596  19.688  0.00  0.00    +0.000 C 
BRANCH  20  21
ATOM     21  N   UNL     1       5.343   3.253  19.243  0.00  0.00    +0.000 NA
ATOM     22  H   UNL     1       5.432   3.449  18.249  0.00  0.00    +0.000 HD
ATOM     23  H   UNL     1       5.500   2.255  19.356  0.00  0.00    +0.000 HD
ENDBRANCH  20  21
BRANCH  20  25
ATOM     24  C   UNL     1       3.459   1.513  18.293  0.00  0.00    +0.000 C 
ATOM     25  C   UNL     1       2.944   2.534  19.299  0.00  0.00    +0.000 C 
ENDBRANCH  20  25
ENDBRANCH   1  20
TORSDOF 4
ENDMDL
MODEL 7
REMARK VINA RESULT:      -6.8      1.336      2.530
REMARK  Name = 
REMARK  6 active torsions:
REMARK  status: ('A' for Active; 'I' for Inactive)
REMARK    1  A    between atoms: C_1  and  C_2
REMARK    2  A    between atoms: C_2  and  C_3
REMARK    3  A    between atoms: C_3  and  N_4
REMARK    4  A    between atoms: C_3  and  C_5
REMARK    5  A    between atoms: C_10  and  C_11
REMARK    6  A    between atoms: C_18  and  C_19
REMARK                            x       y       z     vdW  Elec       q    Type
REMARK                         _______ _______ _______ _____ _____    ______ ____
ROOT
ATOM      1  C   UNL     1       3.213   4.784  19.019  0.00  0.00    +0.000 A 
ATOM      2  C   UNL     1       2.635   4.496  20.258  0.00  0.00    +0.000 A 
ATOM      3  C   UNL     1       1.916   5.462  20.966  0.00  0.00    +0.000 A 
ATOM      4  C   UNL     1       1.770   6.745  20.410  0.00  0.00    +0.000 A 
ATOM      5  S   UNL     1       0.943   8.074  21.091  0.00  0.00    +0.000 S 
ATOM      6  C   UNL     1       1.263   9.099  19.747  0.00  0.00    +0.000 A 
ATOM      7  C   UNL     1       2.012   8.437  18.782  0.00  0.00    +0.000 A 
ATOM      8  C   UNL     1       2.471   9.002  17.470  0.00  0.00    +0.000 C 
ATOM      9  C   UNL     1       2.315   7.073  19.168  0.00  0.00    +0.000 A 
ATOM     10  C   UNL     1       3.042   6.074  18.481  0.00  0.00    +0.000 A 
ENDROOT
BRANCH   6  11
ATOM     11  C   UNL     1       0.698  10.459  19.744  0.00  0.00    +0.000 A 
ATOM     12  C   UNL     1       0.856  11.333  20.800  0.00  0.00    +0.000 A 
ATOM     13  C   UNL     1       0.201  12.528  20.680  0.00  0.00    +0.000 A 
ATOM     14  N   UNL     1      -0.545  12.865  19.613  0.00  0.00    +0.000 NA
ATOM     15  C   UNL     1      -0.638  11.955  18.641  0.00  0.00    +0.000 A 
ATOM     16  N   UNL     1      -1.442  12.251  17.576  0.00  0.00    +0.000 N 
ATOM     17  N   UNL     1      -0.035  10.765  18.655  0.00  0.00    +0.000 NA
ATOM     18  H   UNL     1      -1.744  13.208  17.511  0.00  0.00    +0.000 HD
ATOM     19  H   UNL     1      -1.345  11.663  16.765  0.00  0.00    +0.000 HD
ENDBRANCH   6  11
BRANCH   1  20
ATOM     20  C   UNL     1       4.018   3.757  18.248  0.00  0.00    +0.000 C 
BRANCH  20  21
ATOM     21  N   UNL     1       5.202   3.369  19.015  0.00  0.00    +0.000 NA
ATOM     22  H   UNL     1       5.718   2.657  18.504  0.00  0.00    +0.000 HD
ATOM     23  H   UNL     1       4.919   2.946  19.895  0.00  0.00    +0.000 HD
ENDBRANCH  20  21
BRANCH  20  25
ATOM     24  C   UNL     1       5.858   4.391  16.579  0.00  0.00    +0.000 C 
ATOM     25  C   UNL     1       4.361   4.276  16.837  0.00  0.00    +0.000 C 
ENDBRANCH  20  25
ENDBRANCH   1  20
TORSDOF 4
ENDMDL
MODEL 8
REMARK VINA RESULT:      -6.7      2.662      7.201
REMARK  Name = 
REMARK  6 active torsions:
REMARK  status: ('A' for Active; 'I' for Inactive)
REMARK    1  A    between atoms: C_1  and  C_2
REMARK    2  A    between atoms: C_2  and  C_3
REMARK    3  A    between atoms: C_3  and  N_4
REMARK    4  A    between atoms: C_3  and  C_5
REMARK    5  A    between atoms: C_10  and  C_11
REMARK    6  A    between atoms: C_18  and  C_19
REMARK                            x       y       z     vdW  Elec       q    Type
REMARK                         _______ _______ _______ _____ _____    ______ ____
ROOT
ATOM      1  C   UNL     1       0.415   9.878  21.336  0.00  0.00    +0.000 A 
ATOM      2  C   UNL     1       0.549  10.667  20.190  0.00  0.00    +0.000 A 
ATOM      3  C   UNL     1       1.186  10.182  19.046  0.00  0.00    +0.000 A 
ATOM      4  C   UNL     1       1.693   8.870  19.053  0.00  0.00    +0.000 A 
ATOM      5  S   UNL     1       2.506   8.074  17.780  0.00  0.00    +0.000 S 
ATOM      6  C   UNL     1       2.680   6.610  18.665  0.00  0.00    +0.000 A 
ATOM      7  C   UNL     1       2.133   6.726  19.936  0.00  0.00    +0.000 A 
ATOM      8  C   UNL     1       2.086   5.656  20.986  0.00  0.00    +0.000 C 
ATOM      9  C   UNL     1       1.567   8.041  20.168  0.00  0.00    +0.000 A 
ATOM     10  C   UNL     1       0.922   8.565  21.311  0.00  0.00    +0.000 A 
ENDROOT
BRANCH   6  11
ATOM     11  C   UNL     1       3.301   5.451  18.000  0.00  0.00    +0.000 A 
ATOM     12  C   UNL     1       4.431   5.561  17.216  0.00  0.00    +0.000 A 
ATOM     13  C   UNL     1       4.837   4.408  16.601  0.00  0.00    +0.000 A 
ATOM     14  N   UNL     1       4.207   3.228  16.740  0.00  0.00    +0.000 NA
ATOM     15  C   UNL     1       3.124   3.221  17.519  0.00  0.00    +0.000 A 
ATOM     16  N   UNL     1       2.431   2.046  17.624  0.00  0.00    +0.000 N 
ATOM     17  N   UNL     1       2.649   4.285  18.169  0.00  0.00    +0.000 NA
ATOM     18  H   UNL     1       2.900   1.231  17.267  0.00  0.00    +0.000 HD
ATOM     19  H   UNL     1       1.751   1.993  18.363  0.00  0.00    +0.000 HD
ENDBRANCH   6  11
BRANCH   1  20
ATOM     20  C   UNL     1      -0.252  10.395  22.596  0.00  0.00    +0.000 C 
BRANCH  20  21
ATOM     21  N   UNL     1      -0.760   9.274  23.388  0.00  0.00    +0.000 NA
ATOM     22  H   UNL     1      -1.738   9.115  23.160  0.00  0.00    +0.000 HD
ATOM     23  H   UNL     1      -0.728   9.509  24.377  0.00  0.00    +0.000 HD
ENDBRANCH  20  21
BRANCH  20  25
ATOM     24  C   UNL     1      -1.104  12.794  22.891  0.00  0.00    +0.000 C 
ATOM     25  C   UNL     1      -1.341  11.431  22.255  0.00  0.00    +0.000 C 
ENDBRANCH  20  25
ENDBRANCH   1  20
TORSDOF 4
ENDMDL
MODEL 9
REMARK VINA RESULT:      -6.7      2.727      3.906
REMARK  Name = 
REMARK  6 active torsions:
REMARK  status: ('A' for Active; 'I' for Inactive)
REMARK    1  A    between atoms: C_1  and  C_2
REMARK    2  A    between atoms: C_2  and  C_3
REMARK    3  A    between atoms: C_3  and  N_4
REMARK    4  A    between atoms: C_3  and  C_5
REMARK    5  A    between atoms: C_10  and  C_11
REMARK    6  A    between atoms: C_18  and  C_19
REMARK                            x       y       z     vdW  Elec       q    Type
REMARK                         _______ _______ _______ _____ _____    ______ ____
ROOT
ATOM      1  C   UNL     1       2.183   7.714  18.914  0.00  0.00    +0.000 A 
ATOM      2  C   UNL     1       2.124   8.591  17.828  0.00  0.00    +0.000 A 
ATOM      3  C   UNL     1       1.479   9.826  17.926  0.00  0.00    +0.000 A 
ATOM      4  C   UNL     1       0.887  10.190  19.149  0.00  0.00    +0.000 A 
ATOM      5  S   UNL     1       0.050  11.636  19.496  0.00  0.00    +0.000 S 
ATOM      6  C   UNL     1      -0.238  11.201  21.135  0.00  0.00    +0.000 A 
ATOM      7  C   UNL     1       0.289   9.947  21.419  0.00  0.00    +0.000 A 
ATOM      8  C   UNL     1       0.245   9.242  22.742  0.00  0.00    +0.000 C 
ATOM      9  C   UNL     1       0.936   9.354  20.265  0.00  0.00    +0.000 A 
ATOM     10  C   UNL     1       1.591   8.108  20.130  0.00  0.00    +0.000 A 
ENDROOT
BRANCH   6  11
ATOM     11  C   UNL     1      -0.920  12.166  22.014  0.00  0.00    +0.000 A 
ATOM     12  C   UNL     1      -0.378  13.394  22.332  0.00  0.00    +0.000 A 
ATOM     13  C   UNL     1      -1.095  14.142  23.226  0.00  0.00    +0.000 A 
ATOM     14  N   UNL     1      -2.258  13.741  23.768  0.00  0.00    +0.000 NA
ATOM     15  C   UNL     1      -2.704  12.539  23.399  0.00  0.00    +0.000 A 
ATOM     16  N   UNL     1      -3.852  12.085  23.986  0.00  0.00    +0.000 N 
ATOM     17  N   UNL     1      -2.087  11.735  22.531  0.00  0.00    +0.000 NA
ATOM     18  H   UNL     1      -4.379  12.770  24.500  0.00  0.00    +0.000 HD
ATOM     19  H   UNL     1      -4.286  11.284  23.558  0.00  0.00    +0.000 HD
ENDBRANCH   6  11
BRANCH   1  20
ATOM     20  C   UNL     1       2.856   6.359  18.820  0.00  0.00    +0.000 C 
BRANCH  20  21
ATOM     21  N   UNL     1       3.262   5.909  20.152  0.00  0.00    +0.000 NA
ATOM     22  H   UNL     1       3.927   6.570  20.545  0.00  0.00    +0.000 HD
ATOM     23  H   UNL     1       3.747   5.018  20.082  0.00  0.00    +0.000 HD
ENDBRANCH  20  21
BRANCH  20  25
ATOM     24  C   UNL     1       4.323   5.045  17.180  0.00  0.00    +0.000 C 
ATOM     25  C   UNL     1       4.026   6.396  17.817  0.00  0.00    +0.000 C 
ENDBRANCH  20  25
ENDBRANCH   1  20
TORSDOF 4
ENDMDL
