MODEL 1
REMARK VINA RESULT:      -6.1      0.000      0.000
REMARK  Name = 
REMARK  3 active torsions:
REMARK  status: ('A' for Active; 'I' for Inactive)
REMARK    1  A    between atoms: C_2  and  C_3
REMARK    2  A    between atoms: C_3  and  N_4
REMARK    3  A    between atoms: N_10  and  C_11
REMARK                            x       y       z     vdW  Elec       q    Type
REMARK                         _______ _______ _______ _____ _____    ______ ____
ROOT
ATOM      1  O   UNL     1       1.049   5.502  20.728  0.00  0.00    +0.000 OA
ATOM      2  C   UNL     1       2.148   5.875  20.307  0.00  0.00    +0.000 C 
ATOM      3  N   UNL     1       2.504   7.200  20.118  0.00  0.00    +0.000 N 
ATOM      4  H   UNL     1       3.193   7.388  19.393  0.00  0.00    +0.000 HD
ENDROOT
BRANCH   3   5
ATOM      5  C   UNL     1       1.610   8.258  20.417  0.00  0.00    +0.000 A 
ATOM      6  C   UNL     1       1.197   8.477  21.737  0.00  0.00    +0.000 A 
ATOM      7  C   UNL     1       0.237   9.444  22.033  0.00  0.00    +0.000 A 
ATOM      8  C   UNL     1      -0.322  10.197  21.004  0.00  0.00    +0.000 A 
ATOM      9  C   UNL     1       0.115  10.021  19.686  0.00  0.00    +0.000 A 
ATOM     10 CL   UNL     1      -0.647  10.981  18.465  0.00  0.00    +0.000 Cl
ATOM     11  C   UNL     1       1.106   9.074  19.389  0.00  0.00    +0.000 A 
ATOM     12 CL   UNL     1       1.664   8.830  17.762  0.00  0.00    +0.000 Cl
ENDBRANCH   3   5
BRANCH   2  13
ATOM     13  C   UNL     1       3.213   4.848  19.904  0.00  0.00    +0.000 C 
BRANCH  13  14
ATOM     14  N   UNL     1       3.301   4.670  18.438  0.00  0.00    +0.000 NA
ATOM     15  C   UNL     1       1.962   4.367  17.876  0.00  0.00    +0.000 C 
ATOM     16  C   UNL     1       1.460   2.936  18.166  0.00  0.00    +0.000 C 
ATOM     17  O   UNL     1       2.403   1.945  17.741  0.00  0.00    +0.000 OA
ATOM     18  C   UNL     1       3.683   2.164  18.350  0.00  0.00    +0.000 C 
ATOM     19  C   UNL     1       4.208   3.570  18.020  0.00  0.00    +0.000 C 
ENDBRANCH  13  14
ENDBRANCH   2  13
TORSDOF 3
ENDMDL
MODEL 2
REMARK VINA RESULT:      -6.1      2.986      6.845
REMARK  Name = 
REMARK  3 active torsions:
REMARK  status: ('A' for Active; 'I' for Inactive)
REMARK    1  A    between atoms: C_2  and  C_3
REMARK    2  A    between atoms: C_3  and  N_4
REMARK    3  A    between atoms: N_10  and  C_11
REMARK                            x       y       z     vdW  Elec       q    Type
REMARK                         _______ _______ _______ _____ _____    ______ ____
ROOT
ATOM      1  O   UNL     1       1.702   8.278  18.524  0.00  0.00    +0.000 OA
ATOM      2  C   UNL     1       1.923   8.011  19.709  0.00  0.00    +0.000 C 
ATOM      3  N   UNL     1       2.503   6.834  20.150  0.00  0.00    +0.000 N 
ATOM      4  H   UNL     1       2.245   6.520  21.083  0.00  0.00    +0.000 HD
ENDROOT
BRANCH   3   5
ATOM      5  C   UNL     1       2.910   5.823  19.244  0.00  0.00    +0.000 A 
ATOM      6  C   UNL     1       3.924   6.082  18.312  0.00  0.00    +0.000 A 
ATOM      7  C   UNL     1       4.261   5.135  17.346  0.00  0.00    +0.000 A 
ATOM      8  C   UNL     1       3.581   3.921  17.302  0.00  0.00    +0.000 A 
ATOM      9  C   UNL     1       2.599   3.631  18.256  0.00  0.00    +0.000 A 
ATOM     10 CL   UNL     1       1.787   2.109  18.119  0.00  0.00    +0.000 Cl
ATOM     11  C   UNL     1       2.281   4.566  19.252  0.00  0.00    +0.000 A 
ATOM     12 CL   UNL     1       1.063   4.236  20.446  0.00  0.00    +0.000 Cl
ENDBRANCH   3   5
BRANCH   2  13
ATOM     13  C   UNL     1       1.507   8.989  20.813  0.00  0.00    +0.000 C 
BRANCH  13  14
ATOM     14  N   UNL     1       0.038   9.141  20.910  0.00  0.00    +0.000 NA
ATOM     15  C   UNL     1      -0.349  10.554  20.681  0.00  0.00    +0.000 C 
ATOM     16  C   UNL     1      -0.028  11.501  21.857  0.00  0.00    +0.000 C 
ATOM     17  O   UNL     1      -0.595  11.033  23.087  0.00  0.00    +0.000 OA
ATOM     18  C   UNL     1      -0.156   9.699  23.378  0.00  0.00    +0.000 C 
ATOM     19  C   UNL     1      -0.520   8.745  22.230  0.00  0.00    +0.000 C 
ENDBRANCH  13  14
ENDBRANCH   2  13
TORSDOF 3
ENDMDL
MODEL 3
REMARK VINA RESULT:      -6.1      2.958      3.634
REMARK  Name = 
REMARK  3 active torsions:
REMARK  status: ('A' for Active; 'I' for Inactive)
REMARK    1  A    between atoms: C_2  and  C_3
REMARK    2  A    between atoms: C_3  and  N_4
REMARK    3  A    between atoms: N_10  and  C_11
REMARK                            x       y       z     vdW  Elec       q    Type
REMARK                         _______ _______ _______ _____ _____    ______ ____
ROOT
ATOM      1  O   UNL     1       1.979   5.426  17.726  0.00  0.00    +0.000 OA
ATOM      2  C   UNL     1       3.099   5.927  17.864  0.00  0.00    +0.000 C 
ATOM      3  N   UNL     1       3.330   7.210  18.328  0.00  0.00    +0.000 N 
ATOM      4  H   UNL     1       4.176   7.669  17.999  0.00  0.00    +0.000 HD
ENDROOT
BRANCH   3   5
ATOM      5  C   UNL     1       2.265   8.065  18.705  0.00  0.00    +0.000 A 
ATOM      6  C   UNL     1       1.853   9.094  17.848  0.00  0.00    +0.000 A 
ATOM      7  C   UNL     1       0.880  10.009  18.248  0.00  0.00    +0.000 A 
ATOM      8  C   UNL     1       0.313   9.902  19.516  0.00  0.00    +0.000 A 
ATOM      9  C   UNL     1       0.681   8.851  20.364  0.00  0.00    +0.000 A 
ATOM     10 CL   UNL     1      -0.055   8.803  21.929  0.00  0.00    +0.000 Cl
ATOM     11  C   UNL     1       1.634   7.908  19.951  0.00  0.00    +0.000 A 
ATOM     12 CL   UNL     1       2.113   6.597  20.984  0.00  0.00    +0.000 Cl
ENDBRANCH   3   5
BRANCH   2  13
ATOM     13  C   UNL     1       4.353   5.140  17.465  0.00  0.00    +0.000 C 
BRANCH  13  14
ATOM     14  N   UNL     1       5.412   6.009  16.907  0.00  0.00    +0.000 NA
ATOM     15  C   UNL     1       5.786   5.554  15.546  0.00  0.00    +0.000 C 
ATOM     16  C   UNL     1       6.629   4.262  15.515  0.00  0.00    +0.000 C 
ATOM     17  O   UNL     1       7.801   4.372  16.331  0.00  0.00    +0.000 OA
ATOM     18  C   UNL     1       7.455   4.718  17.680  0.00  0.00    +0.000 C 
ATOM     19  C   UNL     1       6.659   6.032  17.716  0.00  0.00    +0.000 C 
ENDBRANCH  13  14
ENDBRANCH   2  13
TORSDOF 3
ENDMDL
MODEL 4
REMARK VINA RESULT:      -6.1      4.066      6.347
REMARK  Name = 
REMARK  3 active torsions:
REMARK  status: ('A' for Active; 'I' for Inactive)
REMARK    1  A    between atoms: C_2  and  C_3
REMARK    2  A    between atoms: C_3  and  N_4
REMARK    3  A    between atoms: N_10  and  C_11
REMARK                            x       y       z     vdW  Elec       q    Type
REMARK                         _______ _______ _______ _____ _____    ______ ____
ROOT
ATOM      1  O   UNL     1       2.540   3.599  16.716  0.00  0.00    +0.000 OA
ATOM      2  C   UNL     1       3.157   3.060  17.639  0.00  0.00    +0.000 C 
ATOM      3  N   UNL     1       4.521   3.179  17.842  0.00  0.00    +0.000 N 
ATOM      4  H   UNL     1       4.984   2.399  18.303  0.00  0.00    +0.000 HD
ENDROOT
BRANCH   3   5
ATOM      5  C   UNL     1       5.332   3.965  16.986  0.00  0.00    +0.000 A 
ATOM      6  C   UNL     1       5.573   3.550  15.670  0.00  0.00    +0.000 A 
ATOM      7  C   UNL     1       6.453   4.256  14.850  0.00  0.00    +0.000 A 
ATOM      8  C   UNL     1       7.103   5.383  15.345  0.00  0.00    +0.000 A 
ATOM      9  C   UNL     1       6.836   5.836  16.641  0.00  0.00    +0.000 A 
ATOM     10 CL   UNL     1       7.701   7.231  17.187  0.00  0.00    +0.000 Cl
ATOM     11  C   UNL     1       5.924   5.150  17.458  0.00  0.00    +0.000 A 
ATOM     12 CL   UNL     1       5.577   5.685  19.073  0.00  0.00    +0.000 Cl
ENDBRANCH   3   5
BRANCH   2  13
ATOM     13  C   UNL     1       2.426   2.146  18.630  0.00  0.00    +0.000 C 
BRANCH  13  14
ATOM     14  N   UNL     1       1.300   2.830  19.304  0.00  0.00    +0.000 NA
ATOM     15  C   UNL     1       1.566   4.287  19.398  0.00  0.00    +0.000 C 
ATOM     16  C   UNL     1       2.623   4.674  20.453  0.00  0.00    +0.000 C 
ATOM     17  O   UNL     1       2.299   4.154  21.748  0.00  0.00    +0.000 OA
ATOM     18  C   UNL     1       2.131   2.730  21.699  0.00  0.00    +0.000 C 
ATOM     19  C   UNL     1       1.043   2.345  20.685  0.00  0.00    +0.000 C 
ENDBRANCH  13  14
ENDBRANCH   2  13
TORSDOF 3
ENDMDL
MODEL 5
REMARK VINA RESULT:      -6.0      3.693      5.444
REMARK  Name = 
REMARK  3 active torsions:
REMARK  status: ('A' for Active; 'I' for Inactive)
REMARK    1  A    between atoms: C_2  and  C_3
REMARK    2  A    between atoms: C_3  and  N_4
REMARK    3  A    between atoms: N_10  and  C_11
REMARK                            x       y       z     vdW  Elec       q    Type
REMARK                         _______ _______ _______ _____ _____    ______ ____
ROOT
ATOM      1  O   UNL     1       2.912   3.550  16.744  0.00  0.00    +0.000 OA
ATOM      2  C   UNL     1       4.106   3.503  17.053  0.00  0.00    +0.000 C 
ATOM      3  N   UNL     1       4.581   3.564  18.352  0.00  0.00    +0.000 N 
ATOM      4  H   UNL     1       5.511   3.955  18.481  0.00  0.00    +0.000 HD
ENDROOT
BRANCH   3   5
ATOM      5  C   UNL     1       3.701   3.674  19.458  0.00  0.00    +0.000 A 
ATOM      6  C   UNL     1       3.421   2.550  20.247  0.00  0.00    +0.000 A 
ATOM      7  C   UNL     1       2.477   2.617  21.272  0.00  0.00    +0.000 A 
ATOM      8  C   UNL     1       1.802   3.811  21.511  0.00  0.00    +0.000 A 
ATOM      9  C   UNL     1       2.106   4.953  20.762  0.00  0.00    +0.000 A 
ATOM     10 CL   UNL     1       1.207   6.390  21.108  0.00  0.00    +0.000 Cl
ATOM     11  C   UNL     1       3.081   4.900  19.754  0.00  0.00    +0.000 A 
ATOM     12 CL   UNL     1       3.475   6.300  18.804  0.00  0.00    +0.000 Cl
ENDBRANCH   3   5
BRANCH   2  13
ATOM     13  C   UNL     1       5.185   3.421  15.967  0.00  0.00    +0.000 C 
BRANCH  13  14
ATOM     14  N   UNL     1       5.237   4.639  15.128  0.00  0.00    +0.000 NA
ATOM     15  C   UNL     1       6.488   4.660  14.331  0.00  0.00    +0.000 C 
ATOM     16  C   UNL     1       7.756   4.991  15.147  0.00  0.00    +0.000 C 
ATOM     17  O   UNL     1       7.619   6.218  15.871  0.00  0.00    +0.000 OA
ATOM     18  C   UNL     1       6.465   6.183  16.724  0.00  0.00    +0.000 C 
ATOM     19  C   UNL     1       5.195   5.905  15.906  0.00  0.00    +0.000 C 
ENDBRANCH  13  14
ENDBRANCH   2  13
TORSDOF 3
ENDMDL
MODEL 6
REMARK VINA RESULT:      -5.9      1.027      1.548
REMARK  Name = 
REMARK  3 active torsions:
REMARK  status: ('A' for Active; 'I' for Inactive)
REMARK    1  A    between atoms: C_2  and  C_3
REMARK    2  A    between atoms: C_3  and  N_4
REMARK    3  A    between atoms: N_10  and  C_11
REMARK                            x       y       z     vdW  Elec       q    Type
REMARK                         _______ _______ _______ _____ _____    ______ ____
ROOT
ATOM      1  O   UNL     1       0.784   5.572  20.685  0.00  0.00    +0.000 OA
ATOM      2  C   UNL     1       1.921   5.835  20.283  0.00  0.00    +0.000 C 
ATOM      3  N   UNL     1       2.418   7.118  20.127  0.00  0.00    +0.000 N 
ATOM      4  H   UNL     1       3.131   7.247  19.413  0.00  0.00    +0.000 HD
ENDROOT
BRANCH   3   5
ATOM      5  C   UNL     1       1.638   8.258  20.442  0.00  0.00    +0.000 A 
ATOM      6  C   UNL     1       1.301   8.533  21.774  0.00  0.00    +0.000 A 
ATOM      7  C   UNL     1       0.447   9.590  22.089  0.00  0.00    +0.000 A 
ATOM      8  C   UNL     1      -0.081  10.377  21.069  0.00  0.00    +0.000 A 
ATOM      9  C   UNL     1       0.284  10.143  19.739  0.00  0.00    +0.000 A 
ATOM     10 CL   UNL     1      -0.433  11.153  18.531  0.00  0.00    +0.000 Cl
ATOM     11  C   UNL     1       1.171   9.104  19.420  0.00  0.00    +0.000 A 
ATOM     12 CL   UNL     1       1.639   8.786  17.778  0.00  0.00    +0.000 Cl
ENDBRANCH   3   5
BRANCH   2  13
ATOM     13  C   UNL     1       2.875   4.709  19.867  0.00  0.00    +0.000 C 
BRANCH  13  14
ATOM     14  N   UNL     1       2.335   3.367  20.179  0.00  0.00    +0.000 NA
ATOM     15  C   UNL     1       3.413   2.487  20.693  0.00  0.00    +0.000 C 
ATOM     16  C   UNL     1       4.403   1.998  19.615  0.00  0.00    +0.000 C 
ATOM     17  O   UNL     1       3.730   1.358  18.524  0.00  0.00    +0.000 OA
ATOM     18  C   UNL     1       2.747   2.230  17.949  0.00  0.00    +0.000 C 
ATOM     19  C   UNL     1       1.730   2.677  19.010  0.00  0.00    +0.000 C 
ENDBRANCH  13  14
ENDBRANCH   2  13
TORSDOF 3
ENDMDL
MODEL 7
REMARK VINA RESULT:      -5.9      2.986      3.773
REMARK  Name = 
REMARK  3 active torsions:
REMARK  status: ('A' for Active; 'I' for Inactive)
REMARK    1  A    between atoms: C_2  and  C_3
REMARK    2  A    between atoms: C_3  and  N_4
REMARK    3  A    between atoms: N_10  and  C_11
REMARK                            x       y       z     vdW  Elec       q    Type
REMARK                         _______ _______ _______ _____ _____    ______ ____
ROOT
ATOM      1  O   UNL     1       1.934   5.205  17.642  0.00  0.00    +0.000 OA
ATOM      2  C   UNL     1       3.082   5.551  17.935  0.00  0.00    +0.000 C 
ATOM      3  N   UNL     1       3.412   6.777  18.488  0.00  0.00    +0.000 N 
ATOM      4  H   UNL     1       4.343   7.134  18.283  0.00  0.00    +0.000 HD
ENDROOT
BRANCH   3   5
ATOM      5  C   UNL     1       2.423   7.749  18.779  0.00  0.00    +0.000 A 
ATOM      6  C   UNL     1       2.187   8.801  17.885  0.00  0.00    +0.000 A 
ATOM      7  C   UNL     1       1.295   9.823  18.206  0.00  0.00    +0.000 A 
ATOM      8  C   UNL     1       0.634   9.801  19.431  0.00  0.00    +0.000 A 
ATOM      9  C   UNL     1       0.824   8.732  20.314  0.00  0.00    +0.000 A 
ATOM     10 CL   UNL     1      -0.018   8.792  21.824  0.00  0.00    +0.000 Cl
ATOM     11  C   UNL     1       1.694   7.684  19.979  0.00  0.00    +0.000 A 
ATOM     12 CL   UNL     1       1.955   6.347  21.057  0.00  0.00    +0.000 Cl
ENDBRANCH   3   5
BRANCH   2  13
ATOM     13  C   UNL     1       4.268   4.623  17.647  0.00  0.00    +0.000 C 
BRANCH  13  14
ATOM     14  N   UNL     1       4.788   4.780  16.271  0.00  0.00    +0.000 NA
ATOM     15  C   UNL     1       6.014   3.966  16.089  0.00  0.00    +0.000 C 
ATOM     16  C   UNL     1       7.268   4.541  16.784  0.00  0.00    +0.000 C 
ATOM     17  O   UNL     1       7.519   5.896  16.393  0.00  0.00    +0.000 OA
ATOM     18  C   UNL     1       6.375   6.723  16.650  0.00  0.00    +0.000 C 
ATOM     19  C   UNL     1       5.138   6.181  15.918  0.00  0.00    +0.000 C 
ENDBRANCH  13  14
ENDBRANCH   2  13
TORSDOF 3
ENDMDL
MODEL 8
REMARK VINA RESULT:      -5.9      2.416      2.935
REMARK  Name = 
REMARK  3 active torsions:
REMARK  status: ('A' for Active; 'I' for Inactive)
REMARK    1  A    between atoms: C_2  and  C_3
REMARK    2  A    between atoms: C_3  and  N_4
REMARK    3  A    between atoms: N_10  and  C_11
REMARK                            x       y       z     vdW  Elec       q    Type
REMARK                         _______ _______ _______ _____ _____    ______ ____
ROOT
ATOM      1  O   UNL     1       1.775   5.724  18.172  0.00  0.00    +0.000 OA
ATOM      2  C   UNL     1       2.845   5.982  18.731  0.00  0.00    +0.000 C 
ATOM      3  N   UNL     1       3.025   7.012  19.638  0.00  0.00    +0.000 N 
ATOM      4  H   UNL     1       3.957   7.415  19.692  0.00  0.00    +0.000 HD
ENDROOT
BRANCH   3   5
ATOM      5  C   UNL     1       1.956   7.865  20.012  0.00  0.00    +0.000 A 
ATOM      6  C   UNL     1       1.272   7.649  21.215  0.00  0.00    +0.000 A 
ATOM      7  C   UNL     1       0.153   8.412  21.546  0.00  0.00    +0.000 A 
ATOM      8  C   UNL     1      -0.294   9.396  20.669  0.00  0.00    +0.000 A 
ATOM      9  C   UNL     1       0.407   9.655  19.486  0.00  0.00    +0.000 A 
ATOM     10 CL   UNL     1      -0.226  10.880  18.442  0.00  0.00    +0.000 Cl
ATOM     11  C   UNL     1       1.555   8.914  19.166  0.00  0.00    +0.000 A 
ATOM     12 CL   UNL     1       2.442   9.209  17.703  0.00  0.00    +0.000 Cl
ENDBRANCH   3   5
BRANCH   2  13
ATOM     13  C   UNL     1       4.104   5.171  18.405  0.00  0.00    +0.000 C 
BRANCH  13  14
ATOM     14  N   UNL     1       4.498   5.287  16.983  0.00  0.00    +0.000 NA
ATOM     15  C   UNL     1       5.535   4.278  16.654  0.00  0.00    +0.000 C 
ATOM     16  C   UNL     1       6.935   4.597  17.219  0.00  0.00    +0.000 C 
ATOM     17  O   UNL     1       7.383   5.900  16.829  0.00  0.00    +0.000 OA
ATOM     18  C   UNL     1       6.437   6.905  17.225  0.00  0.00    +0.000 C 
ATOM     19  C   UNL     1       5.054   6.616  16.621  0.00  0.00    +0.000 C 
ENDBRANCH  13  14
ENDBRANCH   2  13
TORSDOF 3
ENDMDL
MODEL 9
REMARK VINA RESULT:      -5.8      2.586      6.685
REMARK  Name = 
REMARK  3 active torsions:
REMARK  status: ('A' for Active; 'I' for Inactive)
REMARK    1  A    between atoms: C_2  and  C_3
REMARK    2  A    between atoms: C_3  and  N_4
REMARK    3  A    between atoms: N_10  and  C_11
REMARK                            x       y       z     vdW  Elec       q    Type
REMARK                         _______ _______ _______ _____ _____    ______ ____
ROOT
ATOM      1  O   UNL     1       1.779   6.007  20.858  0.00  0.00    +0.000 OA
ATOM      2  C   UNL     1       1.933   7.019  20.169  0.00  0.00    +0.000 C 
ATOM      3  N   UNL     1       2.376   7.013  18.858  0.00  0.00    +0.000 N 
ATOM      4  H   UNL     1       2.878   7.840  18.541  0.00  0.00    +0.000 HD
ENDROOT
BRANCH   3   5
ATOM      5  C   UNL     1       2.683   5.804  18.185  0.00  0.00    +0.000 A 
ATOM      6  C   UNL     1       1.776   4.737  18.209  0.00  0.00    +0.000 A 
ATOM      7  C   UNL     1       2.108   3.506  17.644  0.00  0.00    +0.000 A 
ATOM      8  C   UNL     1       3.356   3.333  17.052  0.00  0.00    +0.000 A 
ATOM      9  C   UNL     1       4.254   4.405  16.979  0.00  0.00    +0.000 A 
ATOM     10 CL   UNL     1       5.792   4.101  16.247  0.00  0.00    +0.000 Cl
ATOM     11  C   UNL     1       3.910   5.655  17.515  0.00  0.00    +0.000 A 
ATOM     12 CL   UNL     1       5.005   7.001  17.443  0.00  0.00    +0.000 Cl
ENDBRANCH   3   5
BRANCH   2  13
ATOM     13  C   UNL     1       1.677   8.408  20.766  0.00  0.00    +0.000 C 
BRANCH  13  14
ATOM     14  N   UNL     1       0.249   8.793  20.710  0.00  0.00    +0.000 NA
ATOM     15  C   UNL     1       0.113  10.204  20.275  0.00  0.00    +0.000 C 
ATOM     16  C   UNL     1       0.501  11.241  21.351  0.00  0.00    +0.000 C 
ATOM     17  O   UNL     1      -0.219  11.036  22.572  0.00  0.00    +0.000 OA
ATOM     18  C   UNL     1      -0.024   9.702  23.063  0.00  0.00    +0.000 C 
ATOM     19  C   UNL     1      -0.457   8.668  22.012  0.00  0.00    +0.000 C 
ENDBRANCH  13  14
ENDBRANCH   2  13
TORSDOF 3
ENDMDL
