MODEL 1
REMARK VINA RESULT:      -7.1      0.000      0.000
REMARK  Name = 
REMARK  13 active torsions:
REMARK  status: ('A' for Active; 'I' for Inactive)
REMARK    1  A    between atoms: C_1  and  C_2
REMARK    2  A    between atoms: C_2  and  C_3
REMARK    3  A    between atoms: C_2  and  N_10
REMARK    4  A    between atoms: C_3  and  C_4
REMARK    5  A    between atoms: C_11  and  C_13
REMARK    6  A    between atoms: C_13  and  C_14
REMARK    7  A    between atoms: C_14  and  C_15
REMARK    8  A    between atoms: C_15  and  C_16
REMARK    9  A    between atoms: C_16  and  C_17
REMARK   10  A    between atoms: N_19  and  C_20
REMARK   11  A    between atoms: C_20  and  C_21
REMARK   12  A    between atoms: C_20  and  C_22
REMARK   13  A    between atoms: C_22  and  C_23
REMARK                            x       y       z     vdW  Elec       q    Type
REMARK                         _______ _______ _______ _____ _____    ______ ____
ROOT
ATOM      1  C   UNL     1       7.830   9.226  17.931  0.00  0.00    +0.000 C 
ENDROOT
BRANCH   1   2
ATOM      2  C   UNL     1       8.170   7.749  18.146  0.00  0.00    +0.000 C 
BRANCH   2   4
ATOM      3  N   UNL     1       6.070   6.555  17.937  0.00  0.00    +0.000 N 
ATOM      4  C   UNL     1       7.271   6.852  17.323  0.00  0.00    +0.000 C 
ATOM      5  O   UNL     1       7.566   6.428  16.211  0.00  0.00    +0.000 OA
ATOM      6  H   UNL     1       5.846   7.006  18.814  0.00  0.00    +0.000 HD
BRANCH   3   8
ATOM      7  C   UNL     1       5.213   4.285  17.733  0.00  0.00    +0.000 C 
ATOM      8  C   UNL     1       5.045   5.734  17.280  0.00  0.00    +0.000 C 
BRANCH   8   9
ATOM      9  C   UNL     1       3.628   6.286  17.562  0.00  0.00    +0.000 C 
BRANCH   9  10
ATOM     10  C   UNL     1       2.771   5.430  18.471  0.00  0.00    +0.000 A 
ATOM     11  C   UNL     1       1.967   4.414  17.932  0.00  0.00    +0.000 A 
ATOM     12  C   UNL     1       1.161   3.627  18.756  0.00  0.00    +0.000 A 
ATOM     13  C   UNL     1       1.152   3.840  20.132  0.00  0.00    +0.000 A 
ATOM     14  C   UNL     1       1.963   4.829  20.685  0.00  0.00    +0.000 A 
ATOM     15  C   UNL     1       2.773   5.616  19.861  0.00  0.00    +0.000 A 
ENDBRANCH   9  10
ENDBRANCH   8   9
ENDBRANCH   3   8
ENDBRANCH   2   4
ENDBRANCH   1   2
BRANCH   1  16
ATOM     16  C   UNL     1       9.062  10.111  18.091  0.00  0.00    +0.000 C 
BRANCH  16  17
ATOM     17  C   UNL     1       9.342  10.452  19.557  0.00  0.00    +0.000 C 
BRANCH  17  18
ATOM     18  C   UNL     1       9.148  11.934  19.809  0.00  0.00    +0.000 C 
ATOM     19  O   UNL     1       8.948  12.401  20.931  0.00  0.00    +0.000 OA
ATOM     20  N   UNL     1       9.228  12.714  18.680  0.00  0.00    +0.000 N 
ATOM     21  H   UNL     1       9.417  12.283  17.785  0.00  0.00    +0.000 HD
BRANCH  20  22
ATOM     22  C   UNL     1       9.048  14.164  18.754  0.00  0.00    +0.000 C 
ATOM     23  C   UNL     1      10.372  14.868  18.466  0.00  0.00    +0.000 C 
BRANCH  22  24
ATOM     24  C   UNL     1       7.925  14.658  17.818  0.00  0.00    +0.000 C 
BRANCH  24  25
ATOM     25  C   UNL     1       6.630  14.877  18.574  0.00  0.00    +0.000 A 
ATOM     26  C   UNL     1       6.640  14.987  19.972  0.00  0.00    +0.000 A 
ATOM     27  C   UNL     1       5.445  15.010  20.689  0.00  0.00    +0.000 A 
ATOM     28  C   UNL     1       4.229  14.958  20.013  0.00  0.00    +0.000 A 
ATOM     29  C   UNL     1       4.207  14.916  18.620  0.00  0.00    +0.000 A 
ATOM     30  C   UNL     1       5.402  14.880  17.901  0.00  0.00    +0.000 A 
ENDBRANCH  24  25
ENDBRANCH  22  24
ENDBRANCH  20  22
ENDBRANCH  17  18
ENDBRANCH  16  17
ENDBRANCH   1  16
TORSDOF 11
ENDMDL
MODEL 2
REMARK VINA RESULT:      -7.1      1.316      1.652
REMARK  Name = 
REMARK  13 active torsions:
REMARK  status: ('A' for Active; 'I' for Inactive)
REMARK    1  A    between atoms: C_1  and  C_2
REMARK    2  A    between atoms: C_2  and  C_3
REMARK    3  A    between atoms: C_2  and  N_10
REMARK    4  A    between atoms: C_3  and  C_4
REMARK    5  A    between atoms: C_11  and  C_13
REMARK    6  A    between atoms: C_13  and  C_14
REMARK    7  A    between atoms: C_14  and  C_15
REMARK    8  A    between atoms: C_15  and  C_16
REMARK    9  A    between atoms: C_16  and  C_17
REMARK   10  A    between atoms: N_19  and  C_20
REMARK   11  A    between atoms: C_20  and  C_21
REMARK   12  A    between atoms: C_20  and  C_22
REMARK   13  A    between atoms: C_22  and  C_23
REMARK                            x       y       z     vdW  Elec       q    Type
REMARK                         _______ _______ _______ _____ _____    ______ ____
ROOT
ATOM      1  C   UNL     1       7.960   9.088  17.832  0.00  0.00    +0.000 C 
ENDROOT
BRANCH   1   2
ATOM      2  C   UNL     1       8.052   7.577  18.061  0.00  0.00    +0.000 C 
BRANCH   2   4
ATOM      3  N   UNL     1       6.549   5.681  18.224  0.00  0.00    +0.000 N 
ATOM      4  C   UNL     1       6.807   6.870  17.570  0.00  0.00    +0.000 C 
ATOM      5  O   UNL     1       6.084   7.303  16.680  0.00  0.00    +0.000 OA
ATOM      6  H   UNL     1       7.132   5.420  19.010  0.00  0.00    +0.000 HD
BRANCH   3   8
ATOM      7  C   UNL     1       5.594   4.143  16.596  0.00  0.00    +0.000 C 
ATOM      8  C   UNL     1       5.364   4.870  17.921  0.00  0.00    +0.000 C 
BRANCH   8   9
ATOM      9  C   UNL     1       5.042   3.901  19.083  0.00  0.00    +0.000 C 
BRANCH   9  10
ATOM     10  C   UNL     1       3.589   3.868  19.512  0.00  0.00    +0.000 A 
ATOM     11  C   UNL     1       2.841   2.689  19.374  0.00  0.00    +0.000 A 
ATOM     12  C   UNL     1       1.497   2.648  19.752  0.00  0.00    +0.000 A 
ATOM     13  C   UNL     1       0.885   3.782  20.278  0.00  0.00    +0.000 A 
ATOM     14  C   UNL     1       1.623   4.953  20.444  0.00  0.00    +0.000 A 
ATOM     15  C   UNL     1       2.969   4.995  20.069  0.00  0.00    +0.000 A 
ENDBRANCH   9  10
ENDBRANCH   8   9
ENDBRANCH   3   8
ENDBRANCH   2   4
ENDBRANCH   1   2
BRANCH   1  16
ATOM     16  C   UNL     1       8.882   9.853  18.775  0.00  0.00    +0.000 C 
BRANCH  16  17
ATOM     17  C   UNL     1       9.681  10.939  18.049  0.00  0.00    +0.000 C 
BRANCH  17  18
ATOM     18  C   UNL     1       9.584  12.259  18.787  0.00  0.00    +0.000 C 
ATOM     19  O   UNL     1       8.966  12.389  19.844  0.00  0.00    +0.000 OA
ATOM     20  N   UNL     1      10.256  13.295  18.182  0.00  0.00    +0.000 N 
ATOM     21  H   UNL     1      10.766  13.128  17.326  0.00  0.00    +0.000 HD
BRANCH  20  22
ATOM     22  C   UNL     1      10.246  14.637  18.763  0.00  0.00    +0.000 C 
ATOM     23  C   UNL     1      11.652  15.016  19.221  0.00  0.00    +0.000 C 
BRANCH  22  24
ATOM     24  C   UNL     1       9.661  15.685  17.792  0.00  0.00    +0.000 C 
BRANCH  24  25
ATOM     25  C   UNL     1       8.190  15.926  18.058  0.00  0.00    +0.000 A 
ATOM     26  C   UNL     1       7.773  17.102  18.700  0.00  0.00    +0.000 A 
ATOM     27  C   UNL     1       6.448  17.254  19.108  0.00  0.00    +0.000 A 
ATOM     28  C   UNL     1       5.521  16.248  18.848  0.00  0.00    +0.000 A 
ATOM     29  C   UNL     1       5.911  15.105  18.153  0.00  0.00    +0.000 A 
ATOM     30  C   UNL     1       7.239  14.944  17.754  0.00  0.00    +0.000 A 
ENDBRANCH  24  25
ENDBRANCH  22  24
ENDBRANCH  20  22
ENDBRANCH  17  18
ENDBRANCH  16  17
ENDBRANCH   1  16
TORSDOF 11
ENDMDL
MODEL 3
REMARK VINA RESULT:      -7.0      2.443      3.295
REMARK  Name = 
REMARK  13 active torsions:
REMARK  status: ('A' for Active; 'I' for Inactive)
REMARK    1  A    between atoms: C_1  and  C_2
REMARK    2  A    between atoms: C_2  and  C_3
REMARK    3  A    between atoms: C_2  and  N_10
REMARK    4  A    between atoms: C_3  and  C_4
REMARK    5  A    between atoms: C_11  and  C_13
REMARK    6  A    between atoms: C_13  and  C_14
REMARK    7  A    between atoms: C_14  and  C_15
REMARK    8  A    between atoms: C_15  and  C_16
REMARK    9  A    between atoms: C_16  and  C_17
REMARK   10  A    between atoms: N_19  and  C_20
REMARK   11  A    between atoms: C_20  and  C_21
REMARK   12  A    between atoms: C_20  and  C_22
REMARK   13  A    between atoms: C_22  and  C_23
REMARK                            x       y       z     vdW  Elec       q    Type
REMARK                         _______ _______ _______ _____ _____    ______ ____
ROOT
ATOM      1  C   UNL     1       8.518   9.256  17.848  0.00  0.00    +0.000 C 
ENDROOT
BRANCH   1   2
ATOM      2  C   UNL     1       8.248   7.788  18.191  0.00  0.00    +0.000 C 
BRANCH   2   4
ATOM      3  N   UNL     1       7.341   5.934  16.919  0.00  0.00    +0.000 N 
ATOM      4  C   UNL     1       7.120   7.226  17.354  0.00  0.00    +0.000 C 
ATOM      5  O   UNL     1       6.098   7.848  17.083  0.00  0.00    +0.000 OA
ATOM      6  H   UNL     1       8.162   5.443  17.248  0.00  0.00    +0.000 HD
BRANCH   3   8
ATOM      7  C   UNL     1       6.980   4.784  14.804  0.00  0.00    +0.000 C 
ATOM      8  C   UNL     1       6.344   5.200  16.130  0.00  0.00    +0.000 C 
BRANCH   8   9
ATOM      9  C   UNL     1       5.783   3.997  16.925  0.00  0.00    +0.000 C 
BRANCH   9  10
ATOM     10  C   UNL     1       4.320   4.100  17.303  0.00  0.00    +0.000 A 
ATOM     11  C   UNL     1       3.551   2.938  17.464  0.00  0.00    +0.000 A 
ATOM     12  C   UNL     1       2.197   3.018  17.799  0.00  0.00    +0.000 A 
ATOM     13  C   UNL     1       1.596   4.260  17.984  0.00  0.00    +0.000 A 
ATOM     14  C   UNL     1       2.354   5.422  17.850  0.00  0.00    +0.000 A 
ATOM     15  C   UNL     1       3.709   5.344  17.518  0.00  0.00    +0.000 A 
ENDBRANCH   9  10
ENDBRANCH   8   9
ENDBRANCH   3   8
ENDBRANCH   2   4
ENDBRANCH   1   2
BRANCH   1  16
ATOM     16  C   UNL     1       9.075  10.016  19.047  0.00  0.00    +0.000 C 
BRANCH  16  17
ATOM     17  C   UNL     1      10.202  10.974  18.651  0.00  0.00    +0.000 C 
BRANCH  17  18
ATOM     18  C   UNL     1      10.281  12.138  19.619  0.00  0.00    +0.000 C 
ATOM     19  O   UNL     1      11.249  12.329  20.356  0.00  0.00    +0.000 OA
ATOM     20  N   UNL     1       9.186  12.968  19.594  0.00  0.00    +0.000 N 
ATOM     21  H   UNL     1       8.428  12.778  18.953  0.00  0.00    +0.000 HD
BRANCH  20  22
ATOM     22  C   UNL     1       9.103  14.129  20.480  0.00  0.00    +0.000 C 
ATOM     23  C   UNL     1       9.348  15.409  19.686  0.00  0.00    +0.000 C 
BRANCH  22  24
ATOM     24  C   UNL     1       7.763  14.181  21.245  0.00  0.00    +0.000 C 
BRANCH  24  25
ATOM     25  C   UNL     1       7.890  13.575  22.627  0.00  0.00    +0.000 A 
ATOM     26  C   UNL     1       8.124  14.398  23.739  0.00  0.00    +0.000 A 
ATOM     27  C   UNL     1       8.418  13.840  24.983  0.00  0.00    +0.000 A 
ATOM     28  C   UNL     1       8.448  12.456  25.134  0.00  0.00    +0.000 A 
ATOM     29  C   UNL     1       8.152  11.631  24.051  0.00  0.00    +0.000 A 
ATOM     30  C   UNL     1       7.869  12.185  22.802  0.00  0.00    +0.000 A 
ENDBRANCH  24  25
ENDBRANCH  22  24
ENDBRANCH  20  22
ENDBRANCH  17  18
ENDBRANCH  16  17
ENDBRANCH   1  16
TORSDOF 11
ENDMDL
MODEL 4
REMARK VINA RESULT:      -7.0      5.695      7.154
REMARK  Name = 
REMARK  13 active torsions:
REMARK  status: ('A' for Active; 'I' for Inactive)
REMARK    1  A    between atoms: C_1  and  C_2
REMARK    2  A    between atoms: C_2  and  C_3
REMARK    3  A    between atoms: C_2  and  N_10
REMARK    4  A    between atoms: C_3  and  C_4
REMARK    5  A    between atoms: C_11  and  C_13
REMARK    6  A    between atoms: C_13  and  C_14
REMARK    7  A    between atoms: C_14  and  C_15
REMARK    8  A    between atoms: C_15  and  C_16
REMARK    9  A    between atoms: C_16  and  C_17
REMARK   10  A    between atoms: N_19  and  C_20
REMARK   11  A    between atoms: C_20  and  C_21
REMARK   12  A    between atoms: C_20  and  C_22
REMARK   13  A    between atoms: C_22  and  C_23
REMARK                            x       y       z     vdW  Elec       q    Type
REMARK                         _______ _______ _______ _____ _____    ______ ____
ROOT
ATOM      1  C   UNL     1       2.204   8.502  18.988  0.00  0.00    +0.000 C 
ENDROOT
BRANCH   1   2
ATOM      2  C   UNL     1       2.384   7.837  17.620  0.00  0.00    +0.000 C 
BRANCH   2   4
ATOM      3  N   UNL     1       3.549   5.754  18.048  0.00  0.00    +0.000 N 
ATOM      4  C   UNL     1       3.670   7.041  17.561  0.00  0.00    +0.000 C 
ATOM      5  O   UNL     1       4.725   7.483  17.121  0.00  0.00    +0.000 OA
ATOM      6  H   UNL     1       2.633   5.418  18.316  0.00  0.00    +0.000 HD
BRANCH   3   8
ATOM      7  C   UNL     1       5.675   5.230  19.113  0.00  0.00    +0.000 C 
ATOM      8  C   UNL     1       4.675   4.811  18.037  0.00  0.00    +0.000 C 
BRANCH   8   9
ATOM      9  C   UNL     1       4.182   3.356  18.215  0.00  0.00    +0.000 C 
BRANCH   9  10
ATOM     10  C   UNL     1       3.123   3.159  19.279  0.00  0.00    +0.000 A 
ATOM     11  C   UNL     1       1.767   3.324  18.962  0.00  0.00    +0.000 A 
ATOM     12  C   UNL     1       0.780   3.159  19.937  0.00  0.00    +0.000 A 
ATOM     13  C   UNL     1       1.135   2.822  21.240  0.00  0.00    +0.000 A 
ATOM     14  C   UNL     1       2.478   2.632  21.564  0.00  0.00    +0.000 A 
ATOM     15  C   UNL     1       3.466   2.792  20.588  0.00  0.00    +0.000 A 
ENDBRANCH   9  10
ENDBRANCH   8   9
ENDBRANCH   3   8
ENDBRANCH   2   4
ENDBRANCH   1   2
BRANCH   1  16
ATOM     16  C   UNL     1       1.760   7.496  20.044  0.00  0.00    +0.000 C 
BRANCH  16  17
ATOM     17  C   UNL     1       1.576   8.144  21.419  0.00  0.00    +0.000 C 
BRANCH  17  18
ATOM     18  C   UNL     1       0.240   8.855  21.501  0.00  0.00    +0.000 C 
ATOM     19  O   UNL     1      -0.824   8.261  21.680  0.00  0.00    +0.000 OA
ATOM     20  N   UNL     1       0.319  10.222  21.372  0.00  0.00    +0.000 N 
ATOM     21  H   UNL     1       1.222  10.662  21.250  0.00  0.00    +0.000 HD
BRANCH  20  22
ATOM     22  C   UNL     1      -0.884  11.051  21.415  0.00  0.00    +0.000 C 
ATOM     23  C   UNL     1      -0.986  11.752  22.767  0.00  0.00    +0.000 C 
BRANCH  22  24
ATOM     24  C   UNL     1      -0.936  12.059  20.246  0.00  0.00    +0.000 C 
BRANCH  24  25
ATOM     25  C   UNL     1      -1.657  11.479  19.047  0.00  0.00    +0.000 A 
ATOM     26  C   UNL     1      -3.014  11.765  18.834  0.00  0.00    +0.000 A 
ATOM     27  C   UNL     1      -3.731  11.099  17.840  0.00  0.00    +0.000 A 
ATOM     28  C   UNL     1      -3.090  10.167  17.028  0.00  0.00    +0.000 A 
ATOM     29  C   UNL     1      -1.727   9.925  17.188  0.00  0.00    +0.000 A 
ATOM     30  C   UNL     1      -1.010  10.580  18.190  0.00  0.00    +0.000 A 
ENDBRANCH  24  25
ENDBRANCH  22  24
ENDBRANCH  20  22
ENDBRANCH  17  18
ENDBRANCH  16  17
ENDBRANCH   1  16
TORSDOF 11
ENDMDL
MODEL 5
REMARK VINA RESULT:      -7.0      2.222      2.873
REMARK  Name = 
REMARK  13 active torsions:
REMARK  status: ('A' for Active; 'I' for Inactive)
REMARK    1  A    between atoms: C_1  and  C_2
REMARK    2  A    between atoms: C_2  and  C_3
REMARK    3  A    between atoms: C_2  and  N_10
REMARK    4  A    between atoms: C_3  and  C_4
REMARK    5  A    between atoms: C_11  and  C_13
REMARK    6  A    between atoms: C_13  and  C_14
REMARK    7  A    between atoms: C_14  and  C_15
REMARK    8  A    between atoms: C_15  and  C_16
REMARK    9  A    between atoms: C_16  and  C_17
REMARK   10  A    between atoms: N_19  and  C_20
REMARK   11  A    between atoms: C_20  and  C_21
REMARK   12  A    between atoms: C_20  and  C_22
REMARK   13  A    between atoms: C_22  and  C_23
REMARK                            x       y       z     vdW  Elec       q    Type
REMARK                         _______ _______ _______ _____ _____    ______ ____
ROOT
ATOM      1  C   UNL     1       7.893   8.593  17.505  0.00  0.00    +0.000 C 
ENDROOT
BRANCH   1   2
ATOM      2  C   UNL     1       7.526   7.200  18.026  0.00  0.00    +0.000 C 
BRANCH   2   4
ATOM      3  N   UNL     1       5.397   6.044  17.954  0.00  0.00    +0.000 N 
ATOM      4  C   UNL     1       6.423   6.577  17.199  0.00  0.00    +0.000 C 
ATOM      5  O   UNL     1       6.424   6.547  15.973  0.00  0.00    +0.000 OA
ATOM      6  H   UNL     1       5.409   6.178  18.957  0.00  0.00    +0.000 HD
BRANCH   3   8
ATOM      7  C   UNL     1       4.391   3.915  17.334  0.00  0.00    +0.000 C 
ATOM      8  C   UNL     1       4.214   5.433  17.335  0.00  0.00    +0.000 C 
BRANCH   8   9
ATOM      9  C   UNL     1       2.918   5.881  18.051  0.00  0.00    +0.000 C 
BRANCH   9  10
ATOM     10  C   UNL     1       2.327   4.868  19.009  0.00  0.00    +0.000 A 
ATOM     11  C   UNL     1       2.659   4.909  20.371  0.00  0.00    +0.000 A 
ATOM     12  C   UNL     1       2.132   3.973  21.263  0.00  0.00    +0.000 A 
ATOM     13  C   UNL     1       1.262   2.987  20.808  0.00  0.00    +0.000 A 
ATOM     14  C   UNL     1       0.904   2.948  19.461  0.00  0.00    +0.000 A 
ATOM     15  C   UNL     1       1.428   3.887  18.567  0.00  0.00    +0.000 A 
ENDBRANCH   9  10
ENDBRANCH   8   9
ENDBRANCH   3   8
ENDBRANCH   2   4
ENDBRANCH   1   2
BRANCH   1  16
ATOM     16  C   UNL     1       8.533   9.446  18.594  0.00  0.00    +0.000 C 
BRANCH  16  17
ATOM     17  C   UNL     1       9.626  10.365  18.042  0.00  0.00    +0.000 C 
BRANCH  17  18
ATOM     18  C   UNL     1       9.315  11.815  18.353  0.00  0.00    +0.000 C 
ATOM     19  O   UNL     1       8.410  12.439  17.795  0.00  0.00    +0.000 OA
ATOM     20  N   UNL     1      10.118  12.371  19.320  0.00  0.00    +0.000 N 
ATOM     21  H   UNL     1      10.831  11.808  19.763  0.00  0.00    +0.000 HD
BRANCH  20  22
ATOM     22  C   UNL     1       9.953  13.768  19.722  0.00  0.00    +0.000 C 
ATOM     23  C   UNL     1      10.122  13.897  21.234  0.00  0.00    +0.000 C 
BRANCH  22  24
ATOM     24  C   UNL     1      10.910  14.708  18.960  0.00  0.00    +0.000 C 
BRANCH  24  25
ATOM     25  C   UNL     1      10.320  16.095  18.808  0.00  0.00    +0.000 A 
ATOM     26  C   UNL     1      11.042  17.219  19.238  0.00  0.00    +0.000 A 
ATOM     27  C   UNL     1      10.441  18.477  19.268  0.00  0.00    +0.000 A 
ATOM     28  C   UNL     1       9.126  18.629  18.837  0.00  0.00    +0.000 A 
ATOM     29  C   UNL     1       8.422  17.531  18.346  0.00  0.00    +0.000 A 
ATOM     30  C   UNL     1       9.017  16.268  18.326  0.00  0.00    +0.000 A 
ENDBRANCH  24  25
ENDBRANCH  22  24
ENDBRANCH  20  22
ENDBRANCH  17  18
ENDBRANCH  16  17
ENDBRANCH   1  16
TORSDOF 11
ENDMDL
MODEL 6
REMARK VINA RESULT:      -7.0      2.044      2.855
REMARK  Name = 
REMARK  13 active torsions:
REMARK  status: ('A' for Active; 'I' for Inactive)
REMARK    1  A    between atoms: C_1  and  C_2
REMARK    2  A    between atoms: C_2  and  C_3
REMARK    3  A    between atoms: C_2  and  N_10
REMARK    4  A    between atoms: C_3  and  C_4
REMARK    5  A    between atoms: C_11  and  C_13
REMARK    6  A    between atoms: C_13  and  C_14
REMARK    7  A    between atoms: C_14  and  C_15
REMARK    8  A    between atoms: C_15  and  C_16
REMARK    9  A    between atoms: C_16  and  C_17
REMARK   10  A    between atoms: N_19  and  C_20
REMARK   11  A    between atoms: C_20  and  C_21
REMARK   12  A    between atoms: C_20  and  C_22
REMARK   13  A    between atoms: C_22  and  C_23
REMARK                            x       y       z     vdW  Elec       q    Type
REMARK                         _______ _______ _______ _____ _____    ______ ____
ROOT
ATOM      1  C   UNL     1       8.345   8.494  18.339  0.00  0.00    +0.000 C 
ENDROOT
BRANCH   1   2
ATOM      2  C   UNL     1       7.767   7.912  17.047  0.00  0.00    +0.000 C 
BRANCH   2   4
ATOM      3  N   UNL     1       5.777   6.723  17.757  0.00  0.00    +0.000 N 
ATOM      4  C   UNL     1       7.074   6.591  17.300  0.00  0.00    +0.000 C 
ATOM      5  O   UNL     1       7.600   5.499  17.117  0.00  0.00    +0.000 OA
ATOM      6  H   UNL     1       5.369   7.648  17.803  0.00  0.00    +0.000 HD
BRANCH   3   8
ATOM      7  C   UNL     1       5.372   4.909  19.330  0.00  0.00    +0.000 C 
ATOM      8  C   UNL     1       4.924   5.557  18.020  0.00  0.00    +0.000 C 
BRANCH   8   9
ATOM      9  C   UNL     1       3.429   5.954  18.032  0.00  0.00    +0.000 C 
BRANCH   9  10
ATOM     10  C   UNL     1       2.493   4.926  18.633  0.00  0.00    +0.000 A 
ATOM     11  C   UNL     1       1.989   5.105  19.929  0.00  0.00    +0.000 A 
ATOM     12  C   UNL     1       1.137   4.158  20.501  0.00  0.00    +0.000 A 
ATOM     13  C   UNL     1       0.771   3.023  19.782  0.00  0.00    +0.000 A 
ATOM     14  C   UNL     1       1.246   2.844  18.484  0.00  0.00    +0.000 A 
ATOM     15  C   UNL     1       2.096   3.793  17.909  0.00  0.00    +0.000 A 
ENDBRANCH   9  10
ENDBRANCH   8   9
ENDBRANCH   3   8
ENDBRANCH   2   4
ENDBRANCH   1   2
BRANCH   1  16
ATOM     16  C   UNL     1       8.310  10.018  18.330  0.00  0.00    +0.000 C 
BRANCH  16  17
ATOM     17  C   UNL     1       9.709  10.628  18.206  0.00  0.00    +0.000 C 
BRANCH  17  18
ATOM     18  C   UNL     1       9.984  11.575  19.357  0.00  0.00    +0.000 C 
ATOM     19  O   UNL     1      10.882  11.384  20.179  0.00  0.00    +0.000 OA
ATOM     20  N   UNL     1       9.156  12.671  19.398  0.00  0.00    +0.000 N 
ATOM     21  H   UNL     1       8.449  12.791  18.685  0.00  0.00    +0.000 HD
BRANCH  20  22
ATOM     22  C   UNL     1       9.285  13.671  20.458  0.00  0.00    +0.000 C 
ATOM     23  C   UNL     1      10.060  14.880  19.941  0.00  0.00    +0.000 C 
BRANCH  22  24
ATOM     24  C   UNL     1       7.915  14.080  21.040  0.00  0.00    +0.000 C 
BRANCH  24  25
ATOM     25  C   UNL     1       7.595  13.304  22.301  0.00  0.00    +0.000 A 
ATOM     26  C   UNL     1       8.546  12.431  22.852  0.00  0.00    +0.000 A 
ATOM     27  C   UNL     1       8.202  11.584  23.904  0.00  0.00    +0.000 A 
ATOM     28  C   UNL     1       6.916  11.624  24.437  0.00  0.00    +0.000 A 
ATOM     29  C   UNL     1       5.985  12.535  23.942  0.00  0.00    +0.000 A 
ATOM     30  C   UNL     1       6.322  13.376  22.880  0.00  0.00    +0.000 A 
ENDBRANCH  24  25
ENDBRANCH  22  24
ENDBRANCH  20  22
ENDBRANCH  17  18
ENDBRANCH  16  17
ENDBRANCH   1  16
TORSDOF 11
ENDMDL
MODEL 7
REMARK VINA RESULT:      -7.0      5.235      7.732
REMARK  Name = 
REMARK  13 active torsions:
REMARK  status: ('A' for Active; 'I' for Inactive)
REMARK    1  A    between atoms: C_1  and  C_2
REMARK    2  A    between atoms: C_2  and  C_3
REMARK    3  A    between atoms: C_2  and  N_10
REMARK    4  A    between atoms: C_3  and  C_4
REMARK    5  A    between atoms: C_11  and  C_13
REMARK    6  A    between atoms: C_13  and  C_14
REMARK    7  A    between atoms: C_14  and  C_15
REMARK    8  A    between atoms: C_15  and  C_16
REMARK    9  A    between atoms: C_16  and  C_17
REMARK   10  A    between atoms: N_19  and  C_20
REMARK   11  A    between atoms: C_20  and  C_21
REMARK   12  A    between atoms: C_20  and  C_22
REMARK   13  A    between atoms: C_22  and  C_23
REMARK                            x       y       z     vdW  Elec       q    Type
REMARK                         _______ _______ _______ _____ _____    ______ ____
ROOT
ATOM      1  C   UNL     1       1.023   8.098  21.167  0.00  0.00    +0.000 C 
ENDROOT
BRANCH   1   2
ATOM      2  C   UNL     1       1.839   8.343  19.894  0.00  0.00    +0.000 C 
BRANCH   2   4
ATOM      3  N   UNL     1       2.952   6.201  20.114  0.00  0.00    +0.000 N 
ATOM      4  C   UNL     1       2.267   7.039  19.256  0.00  0.00    +0.000 C 
ATOM      5  O   UNL     1       2.031   6.741  18.091  0.00  0.00    +0.000 OA
ATOM      6  H   UNL     1       3.039   6.464  21.087  0.00  0.00    +0.000 HD
BRANCH   3   8
ATOM      7  C   UNL     1       2.226   3.910  19.722  0.00  0.00    +0.000 C 
ATOM      8  C   UNL     1       3.414   4.871  19.695  0.00  0.00    +0.000 C 
BRANCH   8   9
ATOM      9  C   UNL     1       4.099   4.932  18.310  0.00  0.00    +0.000 C 
BRANCH   9  10
ATOM     10  C   UNL     1       5.441   5.635  18.283  0.00  0.00    +0.000 A 
ATOM     11  C   UNL     1       6.444   5.272  19.194  0.00  0.00    +0.000 A 
ATOM     12  C   UNL     1       7.680   5.921  19.190  0.00  0.00    +0.000 A 
ATOM     13  C   UNL     1       7.933   6.937  18.273  0.00  0.00    +0.000 A 
ATOM     14  C   UNL     1       6.954   7.292  17.347  0.00  0.00    +0.000 A 
ATOM     15  C   UNL     1       5.717   6.641  17.346  0.00  0.00    +0.000 A 
ENDBRANCH   9  10
ENDBRANCH   8   9
ENDBRANCH   3   8
ENDBRANCH   2   4
ENDBRANCH   1   2
BRANCH   1  16
ATOM     16  C   UNL     1       1.279   9.180  22.211  0.00  0.00    +0.000 C 
BRANCH  16  17
ATOM     17  C   UNL     1       0.064   9.411  23.113  0.00  0.00    +0.000 C 
BRANCH  17  18
ATOM     18  C   UNL     1      -0.668  10.676  22.712  0.00  0.00    +0.000 C 
ATOM     19  O   UNL     1      -1.713  11.043  23.251  0.00  0.00    +0.000 OA
ATOM     20  N   UNL     1      -0.059  11.386  21.705  0.00  0.00    +0.000 N 
ATOM     21  H   UNL     1       0.811  11.052  21.312  0.00  0.00    +0.000 HD
BRANCH  20  22
ATOM     22  C   UNL     1      -0.649  12.623  21.195  0.00  0.00    +0.000 C 
ATOM     23  C   UNL     1      -0.119  13.818  21.984  0.00  0.00    +0.000 C 
BRANCH  22  24
ATOM     24  C   UNL     1      -0.416  12.795  19.678  0.00  0.00    +0.000 C 
BRANCH  24  25
ATOM     25  C   UNL     1      -1.332  11.897  18.872  0.00  0.00    +0.000 A 
ATOM     26  C   UNL     1      -2.723  12.066  18.940  0.00  0.00    +0.000 A 
ATOM     27  C   UNL     1      -3.579  11.138  18.346  0.00  0.00    +0.000 A 
ATOM     28  C   UNL     1      -3.051  10.053  17.651  0.00  0.00    +0.000 A 
ATOM     29  C   UNL     1      -1.671   9.914  17.521  0.00  0.00    +0.000 A 
ATOM     30  C   UNL     1      -0.812  10.833  18.125  0.00  0.00    +0.000 A 
ENDBRANCH  24  25
ENDBRANCH  22  24
ENDBRANCH  20  22
ENDBRANCH  17  18
ENDBRANCH  16  17
ENDBRANCH   1  16
TORSDOF 11
ENDMDL
MODEL 8
REMARK VINA RESULT:      -6.9      2.811      9.535
REMARK  Name = 
REMARK  13 active torsions:
REMARK  status: ('A' for Active; 'I' for Inactive)
REMARK    1  A    between atoms: C_1  and  C_2
REMARK    2  A    between atoms: C_2  and  C_3
REMARK    3  A    between atoms: C_2  and  N_10
REMARK    4  A    between atoms: C_3  and  C_4
REMARK    5  A    between atoms: C_11  and  C_13
REMARK    6  A    between atoms: C_13  and  C_14
REMARK    7  A    between atoms: C_14  and  C_15
REMARK    8  A    between atoms: C_15  and  C_16
REMARK    9  A    between atoms: C_16  and  C_17
REMARK   10  A    between atoms: N_19  and  C_20
REMARK   11  A    between atoms: C_20  and  C_21
REMARK   12  A    between atoms: C_20  and  C_22
REMARK   13  A    between atoms: C_22  and  C_23
REMARK                            x       y       z     vdW  Elec       q    Type
REMARK                         _______ _______ _______ _____ _____    ______ ____
ROOT
ATOM      1  C   UNL     1       7.454   8.428  17.782  0.00  0.00    +0.000 C 
ENDROOT
BRANCH   1   2
ATOM      2  C   UNL     1       8.721   8.557  18.631  0.00  0.00    +0.000 C 
BRANCH   2   4
ATOM      3  N   UNL     1       9.716  10.225  20.083  0.00  0.00    +0.000 N 
ATOM      4  C   UNL     1       9.068  10.009  18.882  0.00  0.00    +0.000 C 
ATOM      5  O   UNL     1       8.810  10.916  18.100  0.00  0.00    +0.000 OA
ATOM      6  H   UNL     1       9.980   9.426  20.645  0.00  0.00    +0.000 HD
BRANCH   3   8
ATOM      7  C   UNL     1      11.098  12.111  19.404  0.00  0.00    +0.000 C 
ATOM      8  C   UNL     1      10.173  11.560  20.488  0.00  0.00    +0.000 C 
BRANCH   8   9
ATOM      9  C   UNL     1       8.975  12.493  20.780  0.00  0.00    +0.000 C 
BRANCH   9  10
ATOM     10  C   UNL     1       8.668  12.711  22.247  0.00  0.00    +0.000 A 
ATOM     11  C   UNL     1       8.202  11.649  23.035  0.00  0.00    +0.000 A 
ATOM     12  C   UNL     1       7.902  11.839  24.386  0.00  0.00    +0.000 A 
ATOM     13  C   UNL     1       8.069  13.093  24.968  0.00  0.00    +0.000 A 
ATOM     14  C   UNL     1       8.554  14.152  24.203  0.00  0.00    +0.000 A 
ATOM     15  C   UNL     1       8.858  13.962  22.852  0.00  0.00    +0.000 A 
ENDBRANCH   9  10
ENDBRANCH   8   9
ENDBRANCH   3   8
ENDBRANCH   2   4
ENDBRANCH   1   2
BRANCH   1  16
ATOM     16  C   UNL     1       7.511   7.203  16.875  0.00  0.00    +0.000 C 
BRANCH  16  17
ATOM     17  C   UNL     1       7.387   5.895  17.662  0.00  0.00    +0.000 C 
BRANCH  17  18
ATOM     18  C   UNL     1       6.085   5.858  18.437  0.00  0.00    +0.000 C 
ATOM     19  O   UNL     1       6.035   5.638  19.648  0.00  0.00    +0.000 OA
ATOM     20  N   UNL     1       4.967   6.106  17.677  0.00  0.00    +0.000 N 
ATOM     21  H   UNL     1       5.067   6.304  16.690  0.00  0.00    +0.000 HD
BRANCH  20  22
ATOM     22  C   UNL     1       3.633   6.091  18.275  0.00  0.00    +0.000 C 
ATOM     23  C   UNL     1       2.905   7.395  17.957  0.00  0.00    +0.000 C 
BRANCH  22  24
ATOM     24  C   UNL     1       2.813   4.859  17.837  0.00  0.00    +0.000 C 
BRANCH  24  25
ATOM     25  C   UNL     1       2.477   3.969  19.015  0.00  0.00    +0.000 A 
ATOM     26  C   UNL     1       1.157   3.883  19.480  0.00  0.00    +0.000 A 
ATOM     27  C   UNL     1       0.866   3.211  20.667  0.00  0.00    +0.000 A 
ATOM     28  C   UNL     1       1.887   2.589  21.381  0.00  0.00    +0.000 A 
ATOM     29  C   UNL     1       3.192   2.611  20.892  0.00  0.00    +0.000 A 
ATOM     30  C   UNL     1       3.488   3.295  19.711  0.00  0.00    +0.000 A 
ENDBRANCH  24  25
ENDBRANCH  22  24
ENDBRANCH  20  22
ENDBRANCH  17  18
ENDBRANCH  16  17
ENDBRANCH   1  16
TORSDOF 11
ENDMDL
MODEL 9
REMARK VINA RESULT:      -6.9      7.056      9.407
REMARK  Name = 
REMARK  13 active torsions:
REMARK  status: ('A' for Active; 'I' for Inactive)
REMARK    1  A    between atoms: C_1  and  C_2
REMARK    2  A    between atoms: C_2  and  C_3
REMARK    3  A    between atoms: C_2  and  N_10
REMARK    4  A    between atoms: C_3  and  C_4
REMARK    5  A    between atoms: C_11  and  C_13
REMARK    6  A    between atoms: C_13  and  C_14
REMARK    7  A    between atoms: C_14  and  C_15
REMARK    8  A    between atoms: C_15  and  C_16
REMARK    9  A    between atoms: C_16  and  C_17
REMARK   10  A    between atoms: N_19  and  C_20
REMARK   11  A    between atoms: C_20  and  C_21
REMARK   12  A    between atoms: C_20  and  C_22
REMARK   13  A    between atoms: C_22  and  C_23
REMARK                            x       y       z     vdW  Elec       q    Type
REMARK                         _______ _______ _______ _____ _____    ______ ____
ROOT
ATOM      1  C   UNL     1      -0.690  10.824  19.851  0.00  0.00    +0.000 C 
ENDROOT
BRANCH   1   2
ATOM      2  C   UNL     1       0.716  10.870  19.247  0.00  0.00    +0.000 C 
BRANCH   2   4
ATOM      3  N   UNL     1       1.894   8.753  19.171  0.00  0.00    +0.000 N 
ATOM      4  C   UNL     1       1.033   9.595  18.495  0.00  0.00    +0.000 C 
ATOM      5  O   UNL     1       0.572   9.322  17.393  0.00  0.00    +0.000 OA
ATOM      6  H   UNL     1       2.170   8.992  20.114  0.00  0.00    +0.000 HD
BRANCH   3   8
ATOM      7  C   UNL     1       3.478   7.648  17.688  0.00  0.00    +0.000 C 
ATOM      8  C   UNL     1       2.288   7.447  18.626  0.00  0.00    +0.000 C 
BRANCH   8   9
ATOM      9  C   UNL     1       2.587   6.439  19.760  0.00  0.00    +0.000 C 
BRANCH   9  10
ATOM     10  C   UNL     1       1.986   5.061  19.575  0.00  0.00    +0.000 A 
ATOM     11  C   UNL     1       1.541   4.331  20.687  0.00  0.00    +0.000 A 
ATOM     12  C   UNL     1       0.998   3.054  20.532  0.00  0.00    +0.000 A 
ATOM     13  C   UNL     1       0.887   2.492  19.263  0.00  0.00    +0.000 A 
ATOM     14  C   UNL     1       1.303   3.215  18.147  0.00  0.00    +0.000 A 
ATOM     15  C   UNL     1       1.844   4.496  18.300  0.00  0.00    +0.000 A 
ENDBRANCH   9  10
ENDBRANCH   8   9
ENDBRANCH   3   8
ENDBRANCH   2   4
ENDBRANCH   1   2
BRANCH   1  16
ATOM     16  C   UNL     1      -1.486  12.079  19.510  0.00  0.00    +0.000 C 
BRANCH  16  17
ATOM     17  C   UNL     1      -2.044  12.768  20.759  0.00  0.00    +0.000 C 
BRANCH  17  18
ATOM     18  C   UNL     1      -3.556  12.676  20.791  0.00  0.00    +0.000 C 
ATOM     19  O   UNL     1      -4.210  12.774  21.831  0.00  0.00    +0.000 OA
ATOM     20  N   UNL     1      -4.137  12.489  19.559  0.00  0.00    +0.000 N 
ATOM     21  H   UNL     1      -3.555  12.438  18.734  0.00  0.00    +0.000 HD
BRANCH  20  22
ATOM     22  C   UNL     1      -5.588  12.366  19.424  0.00  0.00    +0.000 C 
ATOM     23  C   UNL     1      -6.195  13.721  19.067  0.00  0.00    +0.000 C 
BRANCH  22  24
ATOM     24  C   UNL     1      -5.985  11.278  18.403  0.00  0.00    +0.000 C 
BRANCH  24  25
ATOM     25  C   UNL     1      -4.803  10.854  17.557  0.00  0.00    +0.000 A 
ATOM     26  C   UNL     1      -3.972   9.806  17.981  0.00  0.00    +0.000 A 
ATOM     27  C   UNL     1      -2.785   9.526  17.305  0.00  0.00    +0.000 A 
ATOM     28  C   UNL     1      -2.435  10.267  16.179  0.00  0.00    +0.000 A 
ATOM     29  C   UNL     1      -3.287  11.266  15.710  0.00  0.00    +0.000 A 
ATOM     30  C   UNL     1      -4.469  11.557  16.392  0.00  0.00    +0.000 A 
ENDBRANCH  24  25
ENDBRANCH  22  24
ENDBRANCH  20  22
ENDBRANCH  17  18
ENDBRANCH  16  17
ENDBRANCH   1  16
TORSDOF 11
ENDMDL
