MODEL 1
REMARK VINA RESULT:      -9.3      0.000      0.000
REMARK  Name = 
REMARK  6 active torsions:
REMARK  status: ('A' for Active; 'I' for Inactive)
REMARK    1  A    between atoms: C_3  and  N_4
REMARK    2  A    between atoms: C_7  and  C_8
REMARK    3  A    between atoms: C_11  and  O_12
REMARK    4  A    between atoms: N_20  and  C_21
REMARK    5  A    between atoms: C_21  and  C_22
REMARK    6  A    between atoms: C_25  and  C_26
REMARK                            x       y       z     vdW  Elec       q    Type
REMARK                         _______ _______ _______ _____ _____    ______ ____
ROOT
ATOM      1  O   UNL     1       1.285   7.912  21.295  0.00  0.00    +0.000 OA
ATOM      2  C   UNL     1       1.595   8.221  20.154  0.00  0.00    +0.000 C 
ATOM      3  C   UNL     1       2.710   7.578  19.301  0.00  0.00    +0.000 C 
ATOM      4  C   UNL     1       2.561   8.293  17.945  0.00  0.00    +0.000 C 
ATOM      5  C   UNL     1       1.826   9.581  18.269  0.00  0.00    +0.000 C 
ATOM      6  N   UNL     1       1.023   9.251  19.416  0.00  0.00    +0.000 N 
ENDROOT
BRANCH   3   7
ATOM      7  N   UNL     1       2.650   6.088  19.222  0.00  0.00    +0.000 NA
ATOM      8  C   UNL     1       3.886   5.439  19.676  0.00  0.00    +0.000 C 
ATOM      9  C   UNL     1       3.955   3.935  19.396  0.00  0.00    +0.000 C 
ATOM     10  C   UNL     1       3.746   3.612  17.906  0.00  0.00    +0.000 C 
ATOM     11  C   UNL     1       2.346   4.151  17.565  0.00  0.00    +0.000 C 
ATOM     12  F   UNL     1       1.428   3.455  18.307  0.00  0.00    +0.000 F 
ATOM     13  C   UNL     1       2.200   5.650  17.880  0.00  0.00    +0.000 C 
BRANCH  10  14
ATOM     14  C   UNL     1       4.884   4.050  16.971  0.00  0.00    +0.000 A 
ATOM     15  C   UNL     1       4.674   4.208  15.587  0.00  0.00    +0.000 A 
ATOM     16  C   UNL     1       5.703   4.616  14.729  0.00  0.00    +0.000 A 
ATOM     17  C   UNL     1       6.956   4.898  15.250  0.00  0.00    +0.000 A 
ATOM     18  C   UNL     1       7.184   4.806  16.612  0.00  0.00    +0.000 A 
ATOM     19  C   UNL     1       6.156   4.391  17.467  0.00  0.00    +0.000 A 
BRANCH  17  20
ATOM     20  O   UNL     1       7.991   5.279  14.450  0.00  0.00    +0.000 OA
ATOM     21  H   UNL     1       7.675   5.293  13.531  0.00  0.00    +0.000 HD
ENDBRANCH  17  20
ENDBRANCH  10  14
ENDBRANCH   3   7
BRANCH   6  22
ATOM     22  C   UNL     1       0.066  10.186  19.985  0.00  0.00    +0.000 C 
BRANCH  22  23
ATOM     23  C   UNL     1      -1.091  10.566  19.080  0.00  0.00    +0.000 A 
ATOM     24  C   UNL     1      -1.403   9.841  17.919  0.00  0.00    +0.000 A 
ATOM     25  C   UNL     1      -2.578  10.108  17.202  0.00  0.00    +0.000 A 
ATOM     26  C   UNL     1      -3.475  11.093  17.637  0.00  0.00    +0.000 A 
ATOM     27  C   UNL     1      -3.148  11.841  18.777  0.00  0.00    +0.000 A 
ATOM     28  C   UNL     1      -1.970  11.577  19.487  0.00  0.00    +0.000 A 
BRANCH  26  29
ATOM     29  C   UNL     1      -4.798  11.316  16.942  0.00  0.00    +0.000 C 
ATOM     30  F   UNL     1      -5.858  10.758  17.594  0.00  0.00    +0.000 F 
ATOM     31  F   UNL     1      -5.098  12.638  16.816  0.00  0.00    +0.000 F 
ATOM     32  F   UNL     1      -4.825  10.806  15.680  0.00  0.00    +0.000 F 
ENDBRANCH  26  29
ENDBRANCH  22  23
ENDBRANCH   6  22
TORSDOF 6
ENDMDL
MODEL 2
REMARK VINA RESULT:      -9.3      0.080      1.099
REMARK  Name = 
REMARK  6 active torsions:
REMARK  status: ('A' for Active; 'I' for Inactive)
REMARK    1  A    between atoms: C_3  and  N_4
REMARK    2  A    between atoms: C_7  and  C_8
REMARK    3  A    between atoms: C_11  and  O_12
REMARK    4  A    between atoms: N_20  and  C_21
REMARK    5  A    between atoms: C_21  and  C_22
REMARK    6  A    between atoms: C_25  and  C_26
REMARK                            x       y       z     vdW  Elec       q    Type
REMARK                         _______ _______ _______ _____ _____    ______ ____
ROOT
ATOM      1  O   UNL     1       1.220   7.957  21.294  0.00  0.00    +0.000 OA
ATOM      2  C   UNL     1       1.542   8.273  20.158  0.00  0.00    +0.000 C 
ATOM      3  C   UNL     1       2.658   7.627  19.308  0.00  0.00    +0.000 C 
ATOM      4  C   UNL     1       2.526   8.354  17.957  0.00  0.00    +0.000 C 
ATOM      5  C   UNL     1       1.799   9.646  18.285  0.00  0.00    +0.000 C 
ATOM      6  N   UNL     1       0.985   9.314  19.424  0.00  0.00    +0.000 N 
ENDROOT
BRANCH   3   7
ATOM      7  N   UNL     1       2.586   6.138  19.217  0.00  0.00    +0.000 NA
ATOM      8  C   UNL     1       3.810   5.475  19.684  0.00  0.00    +0.000 C 
ATOM      9  C   UNL     1       3.870   3.973  19.394  0.00  0.00    +0.000 C 
ATOM     10  C   UNL     1       3.680   3.663  17.899  0.00  0.00    +0.000 C 
ATOM     11  C   UNL     1       2.289   4.216  17.542  0.00  0.00    +0.000 C 
ATOM     12  F   UNL     1       1.354   3.523  18.265  0.00  0.00    +0.000 F 
ATOM     13  C   UNL     1       2.152   5.715  17.865  0.00  0.00    +0.000 C 
BRANCH  10  14
ATOM     14  C   UNL     1       4.835   4.097  16.985  0.00  0.00    +0.000 A 
ATOM     15  C   UNL     1       6.108   4.398  17.506  0.00  0.00    +0.000 A 
ATOM     16  C   UNL     1       7.169   4.785  16.679  0.00  0.00    +0.000 A 
ATOM     17  C   UNL     1       6.979   4.852  15.308  0.00  0.00    +0.000 A 
ATOM     18  C   UNL     1       5.756   4.510  14.754  0.00  0.00    +0.000 A 
ATOM     19  C   UNL     1       4.695   4.131  15.585  0.00  0.00    +0.000 A 
BRANCH  17  20
ATOM     20  O   UNL     1       7.977   5.242  14.467  0.00  0.00    +0.000 OA
ATOM     21  H   UNL     1       8.571   5.835  14.957  0.00  0.00    +0.000 HD
ENDBRANCH  17  20
ENDBRANCH  10  14
ENDBRANCH   3   7
BRANCH   6  22
ATOM     22  C   UNL     1       0.031  10.252  19.993  0.00  0.00    +0.000 C 
BRANCH  22  23
ATOM     23  C   UNL     1      -1.134  10.622  19.095  0.00  0.00    +0.000 A 
ATOM     24  C   UNL     1      -1.458   9.884  17.945  0.00  0.00    +0.000 A 
ATOM     25  C   UNL     1      -2.640  10.144  17.236  0.00  0.00    +0.000 A 
ATOM     26  C   UNL     1      -3.532  11.134  17.668  0.00  0.00    +0.000 A 
ATOM     27  C   UNL     1      -3.193  11.895  18.796  0.00  0.00    +0.000 A 
ATOM     28  C   UNL     1      -2.009  11.638  19.498  0.00  0.00    +0.000 A 
BRANCH  26  29
ATOM     29  C   UNL     1      -4.861  11.350  16.984  0.00  0.00    +0.000 C 
ATOM     30  F   UNL     1      -5.191  12.665  16.834  0.00  0.00    +0.000 F 
ATOM     31  F   UNL     1      -4.888  10.820  15.730  0.00  0.00    +0.000 F 
ATOM     32  F   UNL     1      -5.900  10.779  17.653  0.00  0.00    +0.000 F 
ENDBRANCH  26  29
ENDBRANCH  22  23
ENDBRANCH   6  22
TORSDOF 6
ENDMDL
MODEL 3
REMARK VINA RESULT:      -9.0      0.267      1.124
REMARK  Name = 
REMARK  6 active torsions:
REMARK  status: ('A' for Active; 'I' for Inactive)
REMARK    1  A    between atoms: C_3  and  N_4
REMARK    2  A    between atoms: C_7  and  C_8
REMARK    3  A    between atoms: C_11  and  O_12
REMARK    4  A    between atoms: N_20  and  C_21
REMARK    5  A    between atoms: C_21  and  C_22
REMARK    6  A    between atoms: C_25  and  C_26
REMARK                            x       y       z     vdW  Elec       q    Type
REMARK                         _______ _______ _______ _____ _____    ______ ____
ROOT
ATOM      1  O   UNL     1       1.385   8.231  21.300  0.00  0.00    +0.000 OA
ATOM      2  C   UNL     1       1.591   8.494  20.125  0.00  0.00    +0.000 C 
ATOM      3  C   UNL     1       2.605   7.795  19.193  0.00  0.00    +0.000 C 
ATOM      4  C   UNL     1       2.341   8.468  17.833  0.00  0.00    +0.000 C 
ATOM      5  C   UNL     1       1.667   9.783  18.178  0.00  0.00    +0.000 C 
ATOM      6  N   UNL     1       0.972   9.512  19.408  0.00  0.00    +0.000 N 
ENDROOT
BRANCH   3   7
ATOM      7  N   UNL     1       2.507   6.306  19.174  0.00  0.00    +0.000 NA
ATOM      8  C   UNL     1       3.714   5.645  19.687  0.00  0.00    +0.000 C 
ATOM      9  C   UNL     1       3.749   4.129  19.472  0.00  0.00    +0.000 C 
ATOM     10  C   UNL     1       3.570   3.749  17.991  0.00  0.00    +0.000 C 
ATOM     11  C   UNL     1       2.193   4.309  17.591  0.00  0.00    +0.000 C 
ATOM     12  F   UNL     1       1.238   3.669  18.336  0.00  0.00    +0.000 F 
ATOM     13  C   UNL     1       2.080   5.824  17.839  0.00  0.00    +0.000 C 
BRANCH  10  14
ATOM     14  C   UNL     1       4.742   4.118  17.070  0.00  0.00    +0.000 A 
ATOM     15  C   UNL     1       4.556   4.302  15.686  0.00  0.00    +0.000 A 
ATOM     16  C   UNL     1       5.617   4.647  14.840  0.00  0.00    +0.000 A 
ATOM     17  C   UNL     1       6.881   4.841  15.373  0.00  0.00    +0.000 A 
ATOM     18  C   UNL     1       7.091   4.722  16.737  0.00  0.00    +0.000 A 
ATOM     19  C   UNL     1       6.030   4.369  17.579  0.00  0.00    +0.000 A 
BRANCH  17  20
ATOM     20  O   UNL     1       7.947   5.158  14.586  0.00  0.00    +0.000 OA
ATOM     21  H   UNL     1       8.742   5.177  15.145  0.00  0.00    +0.000 HD
ENDBRANCH  17  20
ENDBRANCH  10  14
ENDBRANCH   3   7
BRANCH   6  22
ATOM     22  C   UNL     1       0.093  10.488  20.032  0.00  0.00    +0.000 C 
BRANCH  22  23
ATOM     23  C   UNL     1      -1.269  10.646  19.383  0.00  0.00    +0.000 A 
ATOM     24  C   UNL     1      -2.093  11.757  19.629  0.00  0.00    +0.000 A 
ATOM     25  C   UNL     1      -3.263  11.960  18.883  0.00  0.00    +0.000 A 
ATOM     26  C   UNL     1      -3.628  11.069  17.866  0.00  0.00    +0.000 A 
ATOM     27  C   UNL     1      -2.825   9.942  17.641  0.00  0.00    +0.000 A 
ATOM     28  C   UNL     1      -1.661   9.737  18.392  0.00  0.00    +0.000 A 
BRANCH  26  29
ATOM     29  C   UNL     1      -4.822  11.333  16.979  0.00  0.00    +0.000 C 
ATOM     30  F   UNL     1      -5.068  12.659  16.774  0.00  0.00    +0.000 F 
ATOM     31  F   UNL     1      -4.675  10.790  15.739  0.00  0.00    +0.000 F 
ATOM     32  F   UNL     1      -5.977  10.812  17.478  0.00  0.00    +0.000 F 
ENDBRANCH  26  29
ENDBRANCH  22  23
ENDBRANCH   6  22
TORSDOF 6
ENDMDL
MODEL 4
REMARK VINA RESULT:      -8.7      2.881      3.654
REMARK  Name = 
REMARK  6 active torsions:
REMARK  status: ('A' for Active; 'I' for Inactive)
REMARK    1  A    between atoms: C_3  and  N_4
REMARK    2  A    between atoms: C_7  and  C_8
REMARK    3  A    between atoms: C_11  and  O_12
REMARK    4  A    between atoms: N_20  and  C_21
REMARK    5  A    between atoms: C_21  and  C_22
REMARK    6  A    between atoms: C_25  and  C_26
REMARK                            x       y       z     vdW  Elec       q    Type
REMARK                         _______ _______ _______ _____ _____    ______ ____
ROOT
ATOM      1  O   UNL     1       1.231   8.026  21.308  0.00  0.00    +0.000 OA
ATOM      2  C   UNL     1       1.419   8.287  20.129  0.00  0.00    +0.000 C 
ATOM      3  C   UNL     1       2.489   7.659  19.209  0.00  0.00    +0.000 C 
ATOM      4  C   UNL     1       2.176   8.287  17.838  0.00  0.00    +0.000 C 
ATOM      5  C   UNL     1       1.396   9.548  18.163  0.00  0.00    +0.000 C 
ATOM      6  N   UNL     1       0.721   9.240  19.395  0.00  0.00    +0.000 N 
ENDROOT
BRANCH   3   7
ATOM      7  N   UNL     1       2.513   6.167  19.213  0.00  0.00    +0.000 NA
ATOM      8  C   UNL     1       3.779   5.614  19.713  0.00  0.00    +0.000 C 
ATOM      9  C   UNL     1       3.935   4.103  19.518  0.00  0.00    +0.000 C 
ATOM     10  C   UNL     1       3.761   3.687  18.047  0.00  0.00    +0.000 C 
ATOM     11  C   UNL     1       2.337   4.127  17.665  0.00  0.00    +0.000 C 
ATOM     12  F   UNL     1       1.450   3.422  18.437  0.00  0.00    +0.000 F 
ATOM     13  C   UNL     1       2.104   5.631  17.894  0.00  0.00    +0.000 C 
BRANCH  10  14
ATOM     14  C   UNL     1       4.883   4.136  17.099  0.00  0.00    +0.000 A 
ATOM     15  C   UNL     1       6.195   4.348  17.566  0.00  0.00    +0.000 A 
ATOM     16  C   UNL     1       7.226   4.748  16.707  0.00  0.00    +0.000 A 
ATOM     17  C   UNL     1       6.965   4.916  15.357  0.00  0.00    +0.000 A 
ATOM     18  C   UNL     1       5.700   4.664  14.852  0.00  0.00    +0.000 A 
ATOM     19  C   UNL     1       4.669   4.272  15.715  0.00  0.00    +0.000 A 
BRANCH  17  20
ATOM     20  O   UNL     1       7.932   5.323  14.488  0.00  0.00    +0.000 OA
ATOM     21  H   UNL     1       7.943   6.294  14.479  0.00  0.00    +0.000 HD
ENDBRANCH  17  20
ENDBRANCH  10  14
ENDBRANCH   3   7
BRANCH   6  22
ATOM     22  C   UNL     1      -0.236  10.151  20.002  0.00  0.00    +0.000 C 
BRANCH  22  23
ATOM     23  C   UNL     1       0.086  11.626  19.855  0.00  0.00    +0.000 A 
ATOM     24  C   UNL     1       1.198  12.217  20.477  0.00  0.00    +0.000 A 
ATOM     25  C   UNL     1       1.567  13.537  20.181  0.00  0.00    +0.000 A 
ATOM     26  C   UNL     1       0.845  14.290  19.247  0.00  0.00    +0.000 A 
ATOM     27  C   UNL     1      -0.285  13.714  18.650  0.00  0.00    +0.000 A 
ATOM     28  C   UNL     1      -0.656  12.398  18.952  0.00  0.00    +0.000 A 
BRANCH  26  29
ATOM     29  C   UNL     1       1.294  15.672  18.833  0.00  0.00    +0.000 C 
ATOM     30  F   UNL     1       1.710  16.447  19.877  0.00  0.00    +0.000 F 
ATOM     31  F   UNL     1       2.341  15.636  17.963  0.00  0.00    +0.000 F 
ATOM     32  F   UNL     1       0.315  16.382  18.208  0.00  0.00    +0.000 F 
ENDBRANCH  26  29
ENDBRANCH  22  23
ENDBRANCH   6  22
TORSDOF 6
ENDMDL
MODEL 5
REMARK VINA RESULT:      -8.7      2.899      3.588
REMARK  Name = 
REMARK  6 active torsions:
REMARK  status: ('A' for Active; 'I' for Inactive)
REMARK    1  A    between atoms: C_3  and  N_4
REMARK    2  A    between atoms: C_7  and  C_8
REMARK    3  A    between atoms: C_11  and  O_12
REMARK    4  A    between atoms: N_20  and  C_21
REMARK    5  A    between atoms: C_21  and  C_22
REMARK    6  A    between atoms: C_25  and  C_26
REMARK                            x       y       z     vdW  Elec       q    Type
REMARK                         _______ _______ _______ _____ _____    ______ ____
ROOT
ATOM      1  O   UNL     1       1.213   7.949  21.266  0.00  0.00    +0.000 OA
ATOM      2  C   UNL     1       1.440   8.220  20.096  0.00  0.00    +0.000 C 
ATOM      3  C   UNL     1       2.538   7.598  19.207  0.00  0.00    +0.000 C 
ATOM      4  C   UNL     1       2.273   8.240  17.832  0.00  0.00    +0.000 C 
ATOM      5  C   UNL     1       1.488   9.501  18.143  0.00  0.00    +0.000 C 
ATOM      6  N   UNL     1       0.771   9.183  19.349  0.00  0.00    +0.000 N 
ENDROOT
BRANCH   3   7
ATOM      7  N   UNL     1       2.557   6.105  19.197  0.00  0.00    +0.000 NA
ATOM      8  C   UNL     1       3.825   5.544  19.679  0.00  0.00    +0.000 C 
ATOM      9  C   UNL     1       3.973   4.034  19.469  0.00  0.00    +0.000 C 
ATOM     10  C   UNL     1       3.784   3.632  17.996  0.00  0.00    +0.000 C 
ATOM     11  C   UNL     1       2.358   4.080  17.632  0.00  0.00    +0.000 C 
ATOM     12  F   UNL     1       1.476   3.372  18.406  0.00  0.00    +0.000 F 
ATOM     13  C   UNL     1       2.133   5.583  17.877  0.00  0.00    +0.000 C 
BRANCH  10  14
ATOM     14  C   UNL     1       4.899   4.085  17.041  0.00  0.00    +0.000 A 
ATOM     15  C   UNL     1       4.645   4.309  15.674  0.00  0.00    +0.000 A 
ATOM     16  C   UNL     1       5.653   4.732  14.798  0.00  0.00    +0.000 A 
ATOM     17  C   UNL     1       6.930   4.963  15.286  0.00  0.00    +0.000 A 
ATOM     18  C   UNL     1       7.203   4.805  16.634  0.00  0.00    +0.000 A 
ATOM     19  C   UNL     1       6.195   4.375  17.506  0.00  0.00    +0.000 A 
BRANCH  17  20
ATOM     20  O   UNL     1       7.945   5.355  14.467  0.00  0.00    +0.000 OA
ATOM     21  H   UNL     1       8.099   6.304  14.609  0.00  0.00    +0.000 HD
ENDBRANCH  17  20
ENDBRANCH  10  14
ENDBRANCH   3   7
BRANCH   6  22
ATOM     22  C   UNL     1      -0.202  10.092  19.933  0.00  0.00    +0.000 C 
BRANCH  22  23
ATOM     23  C   UNL     1       0.126  11.568  19.804  0.00  0.00    +0.000 A 
ATOM     24  C   UNL     1       1.185  12.165  20.505  0.00  0.00    +0.000 A 
ATOM     25  C   UNL     1       1.571  13.486  20.232  0.00  0.00    +0.000 A 
ATOM     26  C   UNL     1       0.921  14.232  19.242  0.00  0.00    +0.000 A 
ATOM     27  C   UNL     1      -0.159  13.649  18.564  0.00  0.00    +0.000 A 
ATOM     28  C   UNL     1      -0.548  12.333  18.843  0.00  0.00    +0.000 A 
BRANCH  26  29
ATOM     29  C   UNL     1       1.396  15.613  18.857  0.00  0.00    +0.000 C 
ATOM     30  F   UNL     1       2.367  15.609  17.898  0.00  0.00    +0.000 F 
ATOM     31  F   UNL     1       0.391  16.385  18.358  0.00  0.00    +0.000 F 
ATOM     32  F   UNL     1       1.913  16.307  19.908  0.00  0.00    +0.000 F 
ENDBRANCH  26  29
ENDBRANCH  22  23
ENDBRANCH   6  22
TORSDOF 6
ENDMDL
MODEL 6
REMARK VINA RESULT:      -8.6      2.610      3.370
REMARK  Name = 
REMARK  6 active torsions:
REMARK  status: ('A' for Active; 'I' for Inactive)
REMARK    1  A    between atoms: C_3  and  N_4
REMARK    2  A    between atoms: C_7  and  C_8
REMARK    3  A    between atoms: C_11  and  O_12
REMARK    4  A    between atoms: N_20  and  C_21
REMARK    5  A    between atoms: C_21  and  C_22
REMARK    6  A    between atoms: C_25  and  C_26
REMARK                            x       y       z     vdW  Elec       q    Type
REMARK                         _______ _______ _______ _____ _____    ______ ____
ROOT
ATOM      1  O   UNL     1       1.235   7.882  21.262  0.00  0.00    +0.000 OA
ATOM      2  C   UNL     1       1.521   8.176  20.112  0.00  0.00    +0.000 C 
ATOM      3  C   UNL     1       2.657   7.563  19.263  0.00  0.00    +0.000 C 
ATOM      4  C   UNL     1       2.464   8.237  17.892  0.00  0.00    +0.000 C 
ATOM      5  C   UNL     1       1.674   9.499  18.191  0.00  0.00    +0.000 C 
ATOM      6  N   UNL     1       0.897   9.161  19.354  0.00  0.00    +0.000 N 
ENDROOT
BRANCH   3   7
ATOM      7  N   UNL     1       2.664   6.071  19.221  0.00  0.00    +0.000 NA
ATOM      8  C   UNL     1       3.938   5.491  19.664  0.00  0.00    +0.000 C 
ATOM      9  C   UNL     1       4.070   3.985  19.419  0.00  0.00    +0.000 C 
ATOM     10  C   UNL     1       3.847   3.616  17.942  0.00  0.00    +0.000 C 
ATOM     11  C   UNL     1       2.416   4.081  17.618  0.00  0.00    +0.000 C 
ATOM     12  F   UNL     1       1.546   3.363  18.396  0.00  0.00    +0.000 F 
ATOM     13  C   UNL     1       2.208   5.580  17.899  0.00  0.00    +0.000 C 
BRANCH  10  14
ATOM     14  C   UNL     1       4.944   4.081  16.974  0.00  0.00    +0.000 A 
ATOM     15  C   UNL     1       6.268   4.280  17.409  0.00  0.00    +0.000 A 
ATOM     16  C   UNL     1       7.277   4.695  16.531  0.00  0.00    +0.000 A 
ATOM     17  C   UNL     1       6.980   4.892  15.192  0.00  0.00    +0.000 A 
ATOM     18  C   UNL     1       5.701   4.654  14.717  0.00  0.00    +0.000 A 
ATOM     19  C   UNL     1       4.693   4.246  15.599  0.00  0.00    +0.000 A 
BRANCH  17  20
ATOM     20  O   UNL     1       7.925   5.315  14.306  0.00  0.00    +0.000 OA
ATOM     21  H   UNL     1       8.574   5.852  14.789  0.00  0.00    +0.000 HD
ENDBRANCH  17  20
ENDBRANCH  10  14
ENDBRANCH   3   7
BRANCH   6  22
ATOM     22  C   UNL     1      -0.097  10.066  19.910  0.00  0.00    +0.000 C 
BRANCH  22  23
ATOM     23  C   UNL     1       0.078  11.528  19.545  0.00  0.00    +0.000 A 
ATOM     24  C   UNL     1      -0.711  12.158  18.570  0.00  0.00    +0.000 A 
ATOM     25  C   UNL     1      -0.645  13.546  18.381  0.00  0.00    +0.000 A 
ATOM     26  C   UNL     1       0.197  14.338  19.172  0.00  0.00    +0.000 A 
ATOM     27  C   UNL     1       1.011  13.707  20.124  0.00  0.00    +0.000 A 
ATOM     28  C   UNL     1       0.949  12.320  20.305  0.00  0.00    +0.000 A 
BRANCH  26  29
ATOM     29  C   UNL     1       0.197  15.844  19.060  0.00  0.00    +0.000 C 
ATOM     30  F   UNL     1       1.434  16.375  18.836  0.00  0.00    +0.000 F 
ATOM     31  F   UNL     1      -0.583  16.285  18.035  0.00  0.00    +0.000 F 
ATOM     32  F   UNL     1      -0.276  16.458  20.179  0.00  0.00    +0.000 F 
ENDBRANCH  26  29
ENDBRANCH  22  23
ENDBRANCH   6  22
TORSDOF 6
ENDMDL
MODEL 7
REMARK VINA RESULT:      -8.6      2.651      3.251
REMARK  Name = 
REMARK  6 active torsions:
REMARK  status: ('A' for Active; 'I' for Inactive)
REMARK    1  A    between atoms: C_3  and  N_4
REMARK    2  A    between atoms: C_7  and  C_8
REMARK    3  A    between atoms: C_11  and  O_12
REMARK    4  A    between atoms: N_20  and  C_21
REMARK    5  A    between atoms: C_21  and  C_22
REMARK    6  A    between atoms: C_25  and  C_26
REMARK                            x       y       z     vdW  Elec       q    Type
REMARK                         _______ _______ _______ _____ _____    ______ ____
ROOT
ATOM      1  O   UNL     1       1.303   7.958  21.244  0.00  0.00    +0.000 OA
ATOM      2  C   UNL     1       1.558   8.228  20.080  0.00  0.00    +0.000 C 
ATOM      3  C   UNL     1       2.662   7.589  19.210  0.00  0.00    +0.000 C 
ATOM      4  C   UNL     1       2.435   8.240  17.833  0.00  0.00    +0.000 C 
ATOM      5  C   UNL     1       1.666   9.514  18.132  0.00  0.00    +0.000 C 
ATOM      6  N   UNL     1       0.921   9.205  19.324  0.00  0.00    +0.000 N 
ENDROOT
BRANCH   3   7
ATOM      7  N   UNL     1       2.654   6.096  19.195  0.00  0.00    +0.000 NA
ATOM      8  C   UNL     1       3.918   5.511  19.661  0.00  0.00    +0.000 C 
ATOM      9  C   UNL     1       4.037   4.000  19.444  0.00  0.00    +0.000 C 
ATOM     10  C   UNL     1       3.823   3.606  17.972  0.00  0.00    +0.000 C 
ATOM     11  C   UNL     1       2.400   4.080  17.627  0.00  0.00    +0.000 C 
ATOM     12  F   UNL     1       1.516   3.385  18.410  0.00  0.00    +0.000 F 
ATOM     13  C   UNL     1       2.205   5.585  17.879  0.00  0.00    +0.000 C 
BRANCH  10  14
ATOM     14  C   UNL     1       4.933   4.042  17.005  0.00  0.00    +0.000 A 
ATOM     15  C   UNL     1       4.685   4.196  15.627  0.00  0.00    +0.000 A 
ATOM     16  C   UNL     1       5.689   4.603  14.740  0.00  0.00    +0.000 A 
ATOM     17  C   UNL     1       6.955   4.889  15.224  0.00  0.00    +0.000 A 
ATOM     18  C   UNL     1       7.222   4.801  16.580  0.00  0.00    +0.000 A 
ATOM     19  C   UNL     1       6.218   4.387  17.464  0.00  0.00    +0.000 A 
BRANCH  17  20
ATOM     20  O   UNL     1       7.967   5.269  14.395  0.00  0.00    +0.000 OA
ATOM     21  H   UNL     1       8.810   5.076  14.838  0.00  0.00    +0.000 HD
ENDBRANCH  17  20
ENDBRANCH  10  14
ENDBRANCH   3   7
BRANCH   6  22
ATOM     22  C   UNL     1      -0.048  10.130  19.891  0.00  0.00    +0.000 C 
BRANCH  22  23
ATOM     23  C   UNL     1       0.135  11.584  19.501  0.00  0.00    +0.000 A 
ATOM     24  C   UNL     1      -0.680  12.213  18.546  0.00  0.00    +0.000 A 
ATOM     25  C   UNL     1      -0.601  13.597  18.336  0.00  0.00    +0.000 A 
ATOM     26  C   UNL     1       0.279  14.387  19.087  0.00  0.00    +0.000 A 
ATOM     27  C   UNL     1       1.117  13.757  20.018  0.00  0.00    +0.000 A 
ATOM     28  C   UNL     1       1.042  12.373  20.220  0.00  0.00    +0.000 A 
BRANCH  26  29
ATOM     29  C   UNL     1       0.296  15.892  18.954  0.00  0.00    +0.000 C 
ATOM     30  F   UNL     1       0.029  16.546  20.122  0.00  0.00    +0.000 F 
ATOM     31  F   UNL     1       1.505  16.360  18.539  0.00  0.00    +0.000 F 
ATOM     32  F   UNL     1      -0.612  16.353  18.051  0.00  0.00    +0.000 F 
ENDBRANCH  26  29
ENDBRANCH  22  23
ENDBRANCH   6  22
TORSDOF 6
ENDMDL
MODEL 8
REMARK VINA RESULT:      -8.4      0.633      1.365
REMARK  Name = 
REMARK  6 active torsions:
REMARK  status: ('A' for Active; 'I' for Inactive)
REMARK    1  A    between atoms: C_3  and  N_4
REMARK    2  A    between atoms: C_7  and  C_8
REMARK    3  A    between atoms: C_11  and  O_12
REMARK    4  A    between atoms: N_20  and  C_21
REMARK    5  A    between atoms: C_21  and  C_22
REMARK    6  A    between atoms: C_25  and  C_26
REMARK                            x       y       z     vdW  Elec       q    Type
REMARK                         _______ _______ _______ _____ _____    ______ ____
ROOT
ATOM      1  O   UNL     1       1.466   7.719  21.310  0.00  0.00    +0.000 OA
ATOM      2  C   UNL     1       1.736   8.062  20.169  0.00  0.00    +0.000 C 
ATOM      3  C   UNL     1       2.841   7.467  19.269  0.00  0.00    +0.000 C 
ATOM      4  C   UNL     1       2.636   8.210  17.935  0.00  0.00    +0.000 C 
ATOM      5  C   UNL     1       1.880   9.472  18.311  0.00  0.00    +0.000 C 
ATOM      6  N   UNL     1       1.119   9.096  19.472  0.00  0.00    +0.000 N 
ENDROOT
BRANCH   3   7
ATOM      7  N   UNL     1       2.814   5.979  19.155  0.00  0.00    +0.000 NA
ATOM      8  C   UNL     1       4.080   5.350  19.552  0.00  0.00    +0.000 C 
ATOM      9  C   UNL     1       4.176   3.855  19.234  0.00  0.00    +0.000 C 
ATOM     10  C   UNL     1       3.924   3.562  17.744  0.00  0.00    +0.000 C 
ATOM     11  C   UNL     1       2.500   4.073  17.464  0.00  0.00    +0.000 C 
ATOM     12  F   UNL     1       1.625   3.338  18.219  0.00  0.00    +0.000 F 
ATOM     13  C   UNL     1       2.330   5.561  17.819  0.00  0.00    +0.000 C 
BRANCH  10  14
ATOM     14  C   UNL     1       5.018   4.049  16.784  0.00  0.00    +0.000 A 
ATOM     15  C   UNL     1       6.303   4.391  17.250  0.00  0.00    +0.000 A 
ATOM     16  C   UNL     1       7.310   4.827  16.379  0.00  0.00    +0.000 A 
ATOM     17  C   UNL     1       7.053   4.903  15.020  0.00  0.00    +0.000 A 
ATOM     18  C   UNL     1       5.819   4.523  14.519  0.00  0.00    +0.000 A 
ATOM     19  C   UNL     1       4.812   4.095  15.392  0.00  0.00    +0.000 A 
BRANCH  17  20
ATOM     20  O   UNL     1       7.996   5.340  14.139  0.00  0.00    +0.000 OA
ATOM     21  H   UNL     1       8.704   4.676  14.098  0.00  0.00    +0.000 HD
ENDBRANCH  17  20
ENDBRANCH  10  14
ENDBRANCH   3   7
BRANCH   6  22
ATOM     22  C   UNL     1       0.157   9.994  20.091  0.00  0.00    +0.000 C 
BRANCH  22  23
ATOM     23  C   UNL     1      -1.012  10.400  19.213  0.00  0.00    +0.000 A 
ATOM     24  C   UNL     1      -1.179  11.714  18.747  0.00  0.00    +0.000 A 
ATOM     25  C   UNL     1      -2.167  12.018  17.799  0.00  0.00    +0.000 A 
ATOM     26  C   UNL     1      -2.997  11.015  17.283  0.00  0.00    +0.000 A 
ATOM     27  C   UNL     1      -2.855   9.709  17.772  0.00  0.00    +0.000 A 
ATOM     28  C   UNL     1      -1.873   9.409  18.724  0.00  0.00    +0.000 A 
BRANCH  26  29
ATOM     29  C   UNL     1      -3.989  11.304  16.180  0.00  0.00    +0.000 C 
ATOM     30  F   UNL     1      -4.821  12.350  16.454  0.00  0.00    +0.000 F 
ATOM     31  F   UNL     1      -3.377  11.618  15.005  0.00  0.00    +0.000 F 
ATOM     32  F   UNL     1      -4.799  10.245  15.907  0.00  0.00    +0.000 F 
ENDBRANCH  26  29
ENDBRANCH  22  23
ENDBRANCH   6  22
TORSDOF 6
ENDMDL
MODEL 9
REMARK VINA RESULT:      -8.0      3.005      9.869
REMARK  Name = 
REMARK  6 active torsions:
REMARK  status: ('A' for Active; 'I' for Inactive)
REMARK    1  A    between atoms: C_3  and  N_4
REMARK    2  A    between atoms: C_7  and  C_8
REMARK    3  A    between atoms: C_11  and  O_12
REMARK    4  A    between atoms: N_20  and  C_21
REMARK    5  A    between atoms: C_21  and  C_22
REMARK    6  A    between atoms: C_25  and  C_26
REMARK                            x       y       z     vdW  Elec       q    Type
REMARK                         _______ _______ _______ _____ _____    ______ ____
ROOT
ATOM      1  O   UNL     1       1.661   9.431  17.791  0.00  0.00    +0.000 OA
ATOM      2  C   UNL     1       0.953   9.548  18.780  0.00  0.00    +0.000 C 
ATOM      3  C   UNL     1      -0.185  10.572  18.978  0.00  0.00    +0.000 C 
ATOM      4  C   UNL     1      -0.774  10.174  20.344  0.00  0.00    +0.000 C 
ATOM      5  C   UNL     1       0.336   9.397  21.029  0.00  0.00    +0.000 C 
ATOM      6  N   UNL     1       1.069   8.798  19.945  0.00  0.00    +0.000 N 
ENDROOT
BRANCH   3   7
ATOM      7  N   UNL     1      -1.181  10.616  17.866  0.00  0.00    +0.000 NA
ATOM      8  C   UNL     1      -1.817  11.931  17.716  0.00  0.00    +0.000 C 
ATOM      9  C   UNL     1      -3.003  11.958  16.748  0.00  0.00    +0.000 C 
ATOM     10  C   UNL     1      -4.082  10.927  17.125  0.00  0.00    +0.000 C 
ATOM     11  C   UNL     1      -3.378   9.560  17.063  0.00  0.00    +0.000 C 
ATOM     12  F   UNL     1      -2.982   9.341  15.770  0.00  0.00    +0.000 F 
ATOM     13  C   UNL     1      -2.142   9.494  17.977  0.00  0.00    +0.000 C 
BRANCH  10  14
ATOM     14  C   UNL     1      -4.860  11.228  18.414  0.00  0.00    +0.000 A 
ATOM     15  C   UNL     1      -4.394  12.178  19.345  0.00  0.00    +0.000 A 
ATOM     16  C   UNL     1      -5.102  12.466  20.518  0.00  0.00    +0.000 A 
ATOM     17  C   UNL     1      -6.305  11.825  20.767  0.00  0.00    +0.000 A 
ATOM     18  C   UNL     1      -6.820  10.925  19.848  0.00  0.00    +0.000 A 
ATOM     19  C   UNL     1      -6.107  10.634  18.680  0.00  0.00    +0.000 A 
BRANCH  17  20
ATOM     20  O   UNL     1      -7.017  12.059  21.904  0.00  0.00    +0.000 OA
ATOM     21  H   UNL     1      -7.399  12.951  21.844  0.00  0.00    +0.000 HD
ENDBRANCH  17  20
ENDBRANCH  10  14
ENDBRANCH   3   7
BRANCH   6  22
ATOM     22  C   UNL     1       2.161   7.865  20.173  0.00  0.00    +0.000 C 
BRANCH  22  23
ATOM     23  C   UNL     1       1.929   6.454  19.664  0.00  0.00    +0.000 A 
ATOM     24  C   UNL     1       2.302   6.052  18.372  0.00  0.00    +0.000 A 
ATOM     25  C   UNL     1       2.236   4.703  17.993  0.00  0.00    +0.000 A 
ATOM     26  C   UNL     1       1.812   3.725  18.902  0.00  0.00    +0.000 A 
ATOM     27  C   UNL     1       1.406   4.128  20.182  0.00  0.00    +0.000 A 
ATOM     28  C   UNL     1       1.466   5.477  20.554  0.00  0.00    +0.000 A 
BRANCH  26  29
ATOM     29  C   UNL     1       1.842   2.256  18.548  0.00  0.00    +0.000 C 
ATOM     30  F   UNL     1       2.612   1.508  19.390  0.00  0.00    +0.000 F 
ATOM     31  F   UNL     1       0.604   1.691  18.583  0.00  0.00    +0.000 F 
ATOM     32  F   UNL     1       2.323   2.023  17.296  0.00  0.00    +0.000 F 
ENDBRANCH  26  29
ENDBRANCH  22  23
ENDBRANCH   6  22
TORSDOF 6
ENDMDL
