MODEL 1
REMARK VINA RESULT:      -7.4      0.000      0.000
REMARK  Name = 
REMARK  10 active torsions:
REMARK  status: ('A' for Active; 'I' for Inactive)
REMARK    1  A    between atoms: C_1  and  O_2
REMARK    2  A    between atoms: O_2  and  C_3
REMARK    3  A    between atoms: C_3  and  C_4
REMARK    4  A    between atoms: C_4  and  N_5
REMARK    5  A    between atoms: N_5  and  C_6
REMARK    6  A    between atoms: C_9  and  N_10
REMARK    7  A    between atoms: C_13  and  C_14
REMARK    8  A    between atoms: C_18  and  N_19
REMARK    9  A    between atoms: N_19  and  C_20
REMARK   10  A    between atoms: C_20  and  C_21
REMARK                            x       y       z     vdW  Elec       q    Type
REMARK                         _______ _______ _______ _____ _____    ______ ____
ROOT
ATOM      1  N   UNL     1       2.078   8.105  17.988  0.00  0.00    +0.000 N 
ATOM      2  C   UNL     1       1.586   8.524  19.225  0.00  0.00    +0.000 A 
ATOM      3  C   UNL     1       1.035   9.805  19.335  0.00  0.00    +0.000 A 
ATOM      4  C   UNL     1       0.609  10.316  20.582  0.00  0.00    +0.000 A 
ATOM      5  C   UNL     1       0.653   9.422  21.664  0.00  0.00    +0.000 A 
ATOM      6 CL   UNL     1       0.043   9.771  23.242  0.00  0.00    +0.000 Cl
ATOM      7  C   UNL     1       1.200   8.161  21.468  0.00  0.00    +0.000 A 
ATOM      8  N   UNL     1       1.687   7.716  20.291  0.00  0.00    +0.000 NA
ATOM      9  H   UNL     1       1.331   8.001  17.309  0.00  0.00    +0.000 HD
ENDROOT
BRANCH   1  13
ATOM     10  C   UNL     1       4.555   4.738  16.820  0.00  0.00    +0.000 C 
ATOM     11  C   UNL     1       3.584   4.575  18.003  0.00  0.00    +0.000 C 
ATOM     12  C   UNL     1       2.471   5.629  17.976  0.00  0.00    +0.000 C 
ATOM     13  C   UNL     1       3.077   7.037  17.995  0.00  0.00    +0.000 C 
ATOM     14  C   UNL     1       3.972   7.211  16.760  0.00  0.00    +0.000 C 
ATOM     15  C   UNL     1       5.100   6.175  16.747  0.00  0.00    +0.000 C 
BRANCH  10  16
ATOM     16  N   UNL     1       5.704   3.825  16.901  0.00  0.00    +0.000 NA
ATOM     17  H   UNL     1       5.747   3.449  17.853  0.00  0.00    +0.000 HD
BRANCH  16  18
ATOM     18  C   UNL     1       7.013   4.450  16.646  0.00  0.00    +0.000 C 
BRANCH  18  19
ATOM     19  C   UNL     1       7.980   4.413  17.838  0.00  0.00    +0.000 C 
BRANCH  19  21
ATOM     20  C   UNL     1       7.236   5.674  19.687  0.00  0.00    +0.000 C 
ATOM     21  O   UNL     1       7.983   5.694  18.479  0.00  0.00    +0.000 OA
ENDBRANCH  19  21
ENDBRANCH  18  19
ENDBRANCH  16  18
ENDBRANCH  10  16
ENDBRANCH   1  13
BRANCH   4  22
ATOM     22  C   UNL     1       0.256  11.752  20.700  0.00  0.00    +0.000 A 
ATOM     23  C   UNL     1       1.232  12.747  20.812  0.00  0.00    +0.000 A 
ATOM     24  N   UNL     1       0.963  14.068  20.828  0.00  0.00    +0.000 NA
ATOM     25  C   UNL     1      -0.344  14.369  20.675  0.00  0.00    +0.000 A 
ATOM     26  C   UNL     1      -1.365  13.420  20.537  0.00  0.00    +0.000 A 
ATOM     27  N   UNL     1      -1.063  12.096  20.561  0.00  0.00    +0.000 NA
BRANCH  26  28
ATOM     28  N   UNL     1      -2.690  13.770  20.304  0.00  0.00    +0.000 N 
ATOM     29  H   UNL     1      -2.800  14.405  19.522  0.00  0.00    +0.000 HD
BRANCH  28  30
ATOM     30  C   UNL     1      -3.766  12.889  20.719  0.00  0.00    +0.000 C 
BRANCH  30  31
ATOM     31  C   UNL     1      -4.279  13.161  22.136  0.00  0.00    +0.000 C 
ATOM     32  C   UNL     1      -3.500  12.396  23.216  0.00  0.00    +0.000 C 
ATOM     33  C   UNL     1      -4.165  12.570  24.578  0.00  0.00    +0.000 C 
ATOM     34  O   UNL     1      -5.525  12.140  24.538  0.00  0.00    +0.000 OA
ATOM     35  C   UNL     1      -6.306  12.908  23.626  0.00  0.00    +0.000 C 
ATOM     36  C   UNL     1      -5.765  12.763  22.212  0.00  0.00    +0.000 C 
ENDBRANCH  30  31
ENDBRANCH  28  30
ENDBRANCH  26  28
ENDBRANCH   4  22
TORSDOF 9
ENDMDL
MODEL 2
REMARK VINA RESULT:      -7.3      2.838     10.384
REMARK  Name = 
REMARK  10 active torsions:
REMARK  status: ('A' for Active; 'I' for Inactive)
REMARK    1  A    between atoms: C_1  and  O_2
REMARK    2  A    between atoms: O_2  and  C_3
REMARK    3  A    between atoms: C_3  and  C_4
REMARK    4  A    between atoms: C_4  and  N_5
REMARK    5  A    between atoms: N_5  and  C_6
REMARK    6  A    between atoms: C_9  and  N_10
REMARK    7  A    between atoms: C_13  and  C_14
REMARK    8  A    between atoms: C_18  and  N_19
REMARK    9  A    between atoms: N_19  and  C_20
REMARK   10  A    between atoms: C_20  and  C_21
REMARK                            x       y       z     vdW  Elec       q    Type
REMARK                         _______ _______ _______ _____ _____    ______ ____
ROOT
ATOM      1  N   UNL     1       0.635  10.230  17.793  0.00  0.00    +0.000 N 
ATOM      2  C   UNL     1       1.293   9.170  18.417  0.00  0.00    +0.000 A 
ATOM      3  C   UNL     1       2.287   8.482  17.714  0.00  0.00    +0.000 A 
ATOM      4  C   UNL     1       2.919   7.342  18.261  0.00  0.00    +0.000 A 
ATOM      5  C   UNL     1       2.583   7.027  19.588  0.00  0.00    +0.000 A 
ATOM      6 CL   UNL     1       3.337   5.779  20.514  0.00  0.00    +0.000 Cl
ATOM      7  C   UNL     1       1.597   7.770  20.223  0.00  0.00    +0.000 A 
ATOM      8  N   UNL     1       0.936   8.802  19.658  0.00  0.00    +0.000 NA
ATOM      9  H   UNL     1       1.264  11.010  17.629  0.00  0.00    +0.000 HD
ENDROOT
BRANCH   1  13
ATOM     10  C   UNL     1      -3.408  11.776  18.103  0.00  0.00    +0.000 C 
ATOM     11  C   UNL     1      -2.311  12.374  19.000  0.00  0.00    +0.000 C 
ATOM     12  C   UNL     1      -0.908  12.095  18.447  0.00  0.00    +0.000 C 
ATOM     13  C   UNL     1      -0.690  10.585  18.301  0.00  0.00    +0.000 C 
ATOM     14  C   UNL     1      -1.740  10.021  17.332  0.00  0.00    +0.000 C 
ATOM     15  C   UNL     1      -3.159  10.279  17.848  0.00  0.00    +0.000 C 
BRANCH  10  16
ATOM     16  N   UNL     1      -4.752  11.915  18.684  0.00  0.00    +0.000 NA
ATOM     17  H   UNL     1      -5.371  12.306  17.967  0.00  0.00    +0.000 HD
BRANCH  16  18
ATOM     18  C   UNL     1      -4.838  12.823  19.840  0.00  0.00    +0.000 C 
BRANCH  18  19
ATOM     19  C   UNL     1      -6.019  12.547  20.782  0.00  0.00    +0.000 C 
BRANCH  19  21
ATOM     20  C   UNL     1      -4.315  12.864  22.380  0.00  0.00    +0.000 C 
ATOM     21  O   UNL     1      -5.514  12.170  22.068  0.00  0.00    +0.000 OA
ENDBRANCH  19  21
ENDBRANCH  18  19
ENDBRANCH  16  18
ENDBRANCH  10  16
ENDBRANCH   1  13
BRANCH   4  22
ATOM     22  C   UNL     1       3.787   6.504  17.399  0.00  0.00    +0.000 A 
ATOM     23  C   UNL     1       4.805   7.055  16.614  0.00  0.00    +0.000 A 
ATOM     24  N   UNL     1       5.677   6.327  15.890  0.00  0.00    +0.000 NA
ATOM     25  C   UNL     1       5.523   4.992  16.017  0.00  0.00    +0.000 A 
ATOM     26  C   UNL     1       4.539   4.379  16.803  0.00  0.00    +0.000 A 
ATOM     27  N   UNL     1       3.654   5.144  17.493  0.00  0.00    +0.000 NA
BRANCH  26  28
ATOM     28  N   UNL     1       4.461   3.001  16.971  0.00  0.00    +0.000 N 
ATOM     29  H   UNL     1       4.751   2.484  16.149  0.00  0.00    +0.000 HD
BRANCH  28  30
ATOM     30  C   UNL     1       4.544   2.417  18.297  0.00  0.00    +0.000 C 
BRANCH  30  31
ATOM     31  C   UNL     1       3.186   2.037  18.893  0.00  0.00    +0.000 C 
ATOM     32  C   UNL     1       2.000   2.502  18.036  0.00  0.00    +0.000 C 
ATOM     33  C   UNL     1       0.684   2.250  18.764  0.00  0.00    +0.000 C 
ATOM     34  O   UNL     1       0.673   2.903  20.034  0.00  0.00    +0.000 OA
ATOM     35  C   UNL     1       1.693   2.412  20.900  0.00  0.00    +0.000 C 
ATOM     36  C   UNL     1       3.066   2.663  20.296  0.00  0.00    +0.000 C 
ENDBRANCH  30  31
ENDBRANCH  28  30
ENDBRANCH  26  28
ENDBRANCH   4  22
TORSDOF 9
ENDMDL
MODEL 3
REMARK VINA RESULT:      -7.3      2.714      3.717
REMARK  Name = 
REMARK  10 active torsions:
REMARK  status: ('A' for Active; 'I' for Inactive)
REMARK    1  A    between atoms: C_1  and  O_2
REMARK    2  A    between atoms: O_2  and  C_3
REMARK    3  A    between atoms: C_3  and  C_4
REMARK    4  A    between atoms: C_4  and  N_5
REMARK    5  A    between atoms: N_5  and  C_6
REMARK    6  A    between atoms: C_9  and  N_10
REMARK    7  A    between atoms: C_13  and  C_14
REMARK    8  A    between atoms: C_18  and  N_19
REMARK    9  A    between atoms: N_19  and  C_20
REMARK   10  A    between atoms: C_20  and  C_21
REMARK                            x       y       z     vdW  Elec       q    Type
REMARK                         _______ _______ _______ _____ _____    ______ ____
ROOT
ATOM      1  N   UNL     1       1.940   7.924  18.135  0.00  0.00    +0.000 N 
ATOM      2  C   UNL     1       1.468   8.364  19.372  0.00  0.00    +0.000 A 
ATOM      3  C   UNL     1       0.724   9.547  19.430  0.00  0.00    +0.000 A 
ATOM      4  C   UNL     1       0.303  10.089  20.666  0.00  0.00    +0.000 A 
ATOM      5  C   UNL     1       0.562   9.309  21.804  0.00  0.00    +0.000 A 
ATOM      6 CL   UNL     1       0.007   9.690  23.395  0.00  0.00    +0.000 Cl
ATOM      7  C   UNL     1       1.293   8.137  21.659  0.00  0.00    +0.000 A 
ATOM      8  N   UNL     1       1.768   7.675  20.484  0.00  0.00    +0.000 NA
ATOM      9  H   UNL     1       1.177   7.646  17.526  0.00  0.00    +0.000 HD
ENDROOT
BRANCH   1  13
ATOM     10  C   UNL     1       5.101   5.224  16.888  0.00  0.00    +0.000 C 
ATOM     11  C   UNL     1       4.017   4.708  17.850  0.00  0.00    +0.000 C 
ATOM     12  C   UNL     1       2.753   5.576  17.801  0.00  0.00    +0.000 C 
ATOM     13  C   UNL     1       3.098   7.029  18.143  0.00  0.00    +0.000 C 
ATOM     14  C   UNL     1       4.115   7.555  17.119  0.00  0.00    +0.000 C 
ATOM     15  C   UNL     1       5.395   6.714  17.135  0.00  0.00    +0.000 C 
BRANCH  10  16
ATOM     16  N   UNL     1       6.368   4.489  17.017  0.00  0.00    +0.000 NA
ATOM     17  H   UNL     1       7.106   5.161  17.249  0.00  0.00    +0.000 HD
BRANCH  16  18
ATOM     18  C   UNL     1       6.812   3.797  15.795  0.00  0.00    +0.000 C 
BRANCH  18  19
ATOM     19  C   UNL     1       6.595   4.590  14.499  0.00  0.00    +0.000 C 
BRANCH  19  21
ATOM     20  C   UNL     1       8.128   5.450  12.926  0.00  0.00    +0.000 C 
ATOM     21  O   UNL     1       7.717   5.454  14.286  0.00  0.00    +0.000 OA
ENDBRANCH  19  21
ENDBRANCH  18  19
ENDBRANCH  16  18
ENDBRANCH  10  16
ENDBRANCH   1  13
BRANCH   4  22
ATOM     22  C   UNL     1      -0.269  11.457  20.705  0.00  0.00    +0.000 A 
ATOM     23  C   UNL     1       0.507  12.576  21.023  0.00  0.00    +0.000 A 
ATOM     24  N   UNL     1       0.053  13.844  20.981  0.00  0.00    +0.000 NA
ATOM     25  C   UNL     1      -1.221  13.963  20.552  0.00  0.00    +0.000 A 
ATOM     26  C   UNL     1      -2.042  12.885  20.199  0.00  0.00    +0.000 A 
ATOM     27  N   UNL     1      -1.564  11.616  20.287  0.00  0.00    +0.000 NA
BRANCH  26  28
ATOM     28  N   UNL     1      -3.324  13.052  19.687  0.00  0.00    +0.000 N 
ATOM     29  H   UNL     1      -3.539  14.016  19.465  0.00  0.00    +0.000 HD
BRANCH  28  30
ATOM     30  C   UNL     1      -3.995  11.954  19.015  0.00  0.00    +0.000 C 
BRANCH  30  31
ATOM     31  C   UNL     1      -3.333  11.536  17.699  0.00  0.00    +0.000 C 
ATOM     32  C   UNL     1      -4.312  11.498  16.517  0.00  0.00    +0.000 C 
ATOM     33  C   UNL     1      -3.637  10.909  15.282  0.00  0.00    +0.000 C 
ATOM     34  O   UNL     1      -3.128   9.604  15.556  0.00  0.00    +0.000 OA
ATOM     35  C   UNL     1      -2.130   9.618  16.573  0.00  0.00    +0.000 C 
ATOM     36  C   UNL     1      -2.710  10.138  17.878  0.00  0.00    +0.000 C 
ENDBRANCH  30  31
ENDBRANCH  28  30
ENDBRANCH  26  28
ENDBRANCH   4  22
TORSDOF 9
ENDMDL
MODEL 4
REMARK VINA RESULT:      -7.2      2.055      2.791
REMARK  Name = 
REMARK  10 active torsions:
REMARK  status: ('A' for Active; 'I' for Inactive)
REMARK    1  A    between atoms: C_1  and  O_2
REMARK    2  A    between atoms: O_2  and  C_3
REMARK    3  A    between atoms: C_3  and  C_4
REMARK    4  A    between atoms: C_4  and  N_5
REMARK    5  A    between atoms: N_5  and  C_6
REMARK    6  A    between atoms: C_9  and  N_10
REMARK    7  A    between atoms: C_13  and  C_14
REMARK    8  A    between atoms: C_18  and  N_19
REMARK    9  A    between atoms: N_19  and  C_20
REMARK   10  A    between atoms: C_20  and  C_21
REMARK                            x       y       z     vdW  Elec       q    Type
REMARK                         _______ _______ _______ _____ _____    ______ ____
ROOT
ATOM      1  N   UNL     1       1.980   8.211  18.117  0.00  0.00    +0.000 N 
ATOM      2  C   UNL     1       1.466   8.619  19.349  0.00  0.00    +0.000 A 
ATOM      3  C   UNL     1       0.862   9.877  19.447  0.00  0.00    +0.000 A 
ATOM      4  C   UNL     1       0.411  10.380  20.688  0.00  0.00    +0.000 A 
ATOM      5  C   UNL     1       0.485   9.496  21.777  0.00  0.00    +0.000 A 
ATOM      6 CL   UNL     1      -0.145   9.831  23.350  0.00  0.00    +0.000 Cl
ATOM      7  C   UNL     1       1.084   8.257  21.593  0.00  0.00    +0.000 A 
ATOM      8  N   UNL     1       1.594   7.823  20.421  0.00  0.00    +0.000 NA
ATOM      9  H   UNL     1       1.241   8.072  17.436  0.00  0.00    +0.000 HD
ENDROOT
BRANCH   1  13
ATOM     10  C   UNL     1       4.776   5.120  16.909  0.00  0.00    +0.000 C 
ATOM     11  C   UNL     1       3.650   4.763  17.895  0.00  0.00    +0.000 C 
ATOM     12  C   UNL     1       2.499   5.775  17.836  0.00  0.00    +0.000 C 
ATOM     13  C   UNL     1       3.021   7.184  18.136  0.00  0.00    +0.000 C 
ATOM     14  C   UNL     1       4.080   7.557  17.089  0.00  0.00    +0.000 C 
ATOM     15  C   UNL     1       5.250   6.569  17.113  0.00  0.00    +0.000 C 
BRANCH  10  16
ATOM     16  N   UNL     1       5.946   4.241  17.044  0.00  0.00    +0.000 NA
ATOM     17  H   UNL     1       6.744   4.813  17.339  0.00  0.00    +0.000 HD
BRANCH  16  18
ATOM     18  C   UNL     1       6.362   3.565  15.803  0.00  0.00    +0.000 C 
BRANCH  18  19
ATOM     19  C   UNL     1       6.414   4.475  14.568  0.00  0.00    +0.000 C 
BRANCH  19  21
ATOM     20  C   UNL     1       6.269   3.461  12.444  0.00  0.00    +0.000 C 
ATOM     21  O   UNL     1       5.541   3.950  13.562  0.00  0.00    +0.000 OA
ENDBRANCH  19  21
ENDBRANCH  18  19
ENDBRANCH  16  18
ENDBRANCH  10  16
ENDBRANCH   1  13
BRANCH   4  22
ATOM     22  C   UNL     1      -0.001  11.801  20.794  0.00  0.00    +0.000 A 
ATOM     23  C   UNL     1       0.925  12.825  21.017  0.00  0.00    +0.000 A 
ATOM     24  N   UNL     1       0.611  14.136  21.028  0.00  0.00    +0.000 NA
ATOM     25  C   UNL     1      -0.684  14.397  20.752  0.00  0.00    +0.000 A 
ATOM     26  C   UNL     1      -1.654  13.419  20.500  0.00  0.00    +0.000 A 
ATOM     27  N   UNL     1      -1.310  12.105  20.532  0.00  0.00    +0.000 NA
BRANCH  26  28
ATOM     28  N   UNL     1      -2.961  13.730  20.143  0.00  0.00    +0.000 N 
ATOM     29  H   UNL     1      -3.043  14.063  19.190  0.00  0.00    +0.000 HD
BRANCH  28  30
ATOM     30  C   UNL     1      -4.078  13.097  20.820  0.00  0.00    +0.000 C 
BRANCH  30  31
ATOM     31  C   UNL     1      -5.219  12.690  19.885  0.00  0.00    +0.000 C 
ATOM     32  C   UNL     1      -6.309  11.866  20.587  0.00  0.00    +0.000 C 
ATOM     33  C   UNL     1      -7.322  11.346  19.572  0.00  0.00    +0.000 C 
ATOM     34  O   UNL     1      -6.677  10.571  18.562  0.00  0.00    +0.000 OA
ATOM     35  C   UNL     1      -5.739  11.338  17.812  0.00  0.00    +0.000 C 
ATOM     36  C   UNL     1      -4.639  11.864  18.721  0.00  0.00    +0.000 C 
ENDBRANCH  30  31
ENDBRANCH  28  30
ENDBRANCH  26  28
ENDBRANCH   4  22
TORSDOF 9
ENDMDL
MODEL 5
REMARK VINA RESULT:      -7.2      1.077      1.372
REMARK  Name = 
REMARK  10 active torsions:
REMARK  status: ('A' for Active; 'I' for Inactive)
REMARK    1  A    between atoms: C_1  and  O_2
REMARK    2  A    between atoms: O_2  and  C_3
REMARK    3  A    between atoms: C_3  and  C_4
REMARK    4  A    between atoms: C_4  and  N_5
REMARK    5  A    between atoms: N_5  and  C_6
REMARK    6  A    between atoms: C_9  and  N_10
REMARK    7  A    between atoms: C_13  and  C_14
REMARK    8  A    between atoms: C_18  and  N_19
REMARK    9  A    between atoms: N_19  and  C_20
REMARK   10  A    between atoms: C_20  and  C_21
REMARK                            x       y       z     vdW  Elec       q    Type
REMARK                         _______ _______ _______ _____ _____    ______ ____
ROOT
ATOM      1  N   UNL     1       2.143   8.120  17.853  0.00  0.00    +0.000 N 
ATOM      2  C   UNL     1       1.634   8.552  19.079  0.00  0.00    +0.000 A 
ATOM      3  C   UNL     1       1.015   9.805  19.151  0.00  0.00    +0.000 A 
ATOM      4  C   UNL     1       0.568  10.333  20.383  0.00  0.00    +0.000 A 
ATOM      5  C   UNL     1       0.663   9.478  21.493  0.00  0.00    +0.000 A 
ATOM      6 CL   UNL     1       0.042   9.844  23.062  0.00  0.00    +0.000 Cl
ATOM      7  C   UNL     1       1.276   8.242  21.334  0.00  0.00    +0.000 A 
ATOM      8  N   UNL     1       1.782   7.785  20.170  0.00  0.00    +0.000 NA
ATOM      9  H   UNL     1       1.399   7.954  17.182  0.00  0.00    +0.000 HD
ENDROOT
BRANCH   1  13
ATOM     10  C   UNL     1       4.735   4.797  16.819  0.00  0.00    +0.000 C 
ATOM     11  C   UNL     1       3.837   4.683  18.063  0.00  0.00    +0.000 C 
ATOM     12  C   UNL     1       2.668   5.674  18.014  0.00  0.00    +0.000 C 
ATOM     13  C   UNL     1       3.197   7.107  17.889  0.00  0.00    +0.000 C 
ATOM     14  C   UNL     1       4.017   7.225  16.596  0.00  0.00    +0.000 C 
ATOM     15  C   UNL     1       5.198   6.249  16.603  0.00  0.00    +0.000 C 
BRANCH  10  16
ATOM     16  N   UNL     1       5.935   3.952  16.907  0.00  0.00    +0.000 NA
ATOM     17  H   UNL     1       5.877   3.404  17.771  0.00  0.00    +0.000 HD
BRANCH  16  18
ATOM     18  C   UNL     1       7.209   4.688  16.973  0.00  0.00    +0.000 C 
BRANCH  18  19
ATOM     19  C   UNL     1       7.871   4.694  18.359  0.00  0.00    +0.000 C 
BRANCH  19  21
ATOM     20  C   UNL     1       8.057   7.041  18.480  0.00  0.00    +0.000 C 
ATOM     21  O   UNL     1       7.480   5.880  19.060  0.00  0.00    +0.000 OA
ENDBRANCH  19  21
ENDBRANCH  18  19
ENDBRANCH  16  18
ENDBRANCH  10  16
ENDBRANCH   1  13
BRANCH   4  22
ATOM     22  C   UNL     1       0.139  11.751  20.457  0.00  0.00    +0.000 A 
ATOM     23  C   UNL     1       1.057  12.805  20.410  0.00  0.00    +0.000 A 
ATOM     24  N   UNL     1       0.709  14.107  20.379  0.00  0.00    +0.000 NA
ATOM     25  C   UNL     1      -0.623  14.323  20.348  0.00  0.00    +0.000 A 
ATOM     26  C   UNL     1      -1.591  13.311  20.372  0.00  0.00    +0.000 A 
ATOM     27  N   UNL     1      -1.206  12.011  20.438  0.00  0.00    +0.000 NA
BRANCH  26  28
ATOM     28  N   UNL     1      -2.952  13.570  20.260  0.00  0.00    +0.000 N 
ATOM     29  H   UNL     1      -3.162  14.557  20.163  0.00  0.00    +0.000 HD
BRANCH  28  30
ATOM     30  C   UNL     1      -3.854  12.554  19.747  0.00  0.00    +0.000 C 
BRANCH  30  31
ATOM     31  C   UNL     1      -5.279  12.655  20.298  0.00  0.00    +0.000 C 
ATOM     32  C   UNL     1      -5.328  12.734  21.831  0.00  0.00    +0.000 C 
ATOM     33  C   UNL     1      -6.769  12.655  22.324  0.00  0.00    +0.000 C 
ATOM     34  O   UNL     1      -7.400  11.461  21.861  0.00  0.00    +0.000 OA
ATOM     35  C   UNL     1      -7.475  11.409  20.439  0.00  0.00    +0.000 C 
ATOM     36  C   UNL     1      -6.080  11.424  19.834  0.00  0.00    +0.000 C 
ENDBRANCH  30  31
ENDBRANCH  28  30
ENDBRANCH  26  28
ENDBRANCH   4  22
TORSDOF 9
ENDMDL
MODEL 6
REMARK VINA RESULT:      -7.1      2.650     11.562
REMARK  Name = 
REMARK  10 active torsions:
REMARK  status: ('A' for Active; 'I' for Inactive)
REMARK    1  A    between atoms: C_1  and  O_2
REMARK    2  A    between atoms: O_2  and  C_3
REMARK    3  A    between atoms: C_3  and  C_4
REMARK    4  A    between atoms: C_4  and  N_5
REMARK    5  A    between atoms: N_5  and  C_6
REMARK    6  A    between atoms: C_9  and  N_10
REMARK    7  A    between atoms: C_13  and  C_14
REMARK    8  A    between atoms: C_18  and  N_19
REMARK    9  A    between atoms: N_19  and  C_20
REMARK   10  A    between atoms: C_20  and  C_21
REMARK                            x       y       z     vdW  Elec       q    Type
REMARK                         _______ _______ _______ _____ _____    ______ ____
ROOT
ATOM      1  N   UNL     1       1.903   9.312  18.573  0.00  0.00    +0.000 N 
ATOM      2  C   UNL     1       1.985   8.102  19.264  0.00  0.00    +0.000 A 
ATOM      3  C   UNL     1       2.522   6.986  18.614  0.00  0.00    +0.000 A 
ATOM      4  C   UNL     1       2.542   5.715  19.231  0.00  0.00    +0.000 A 
ATOM      5  C   UNL     1       2.114   5.671  20.568  0.00  0.00    +0.000 A 
ATOM      6 CL   UNL     1       2.195   4.268  21.572  0.00  0.00    +0.000 Cl
ATOM      7  C   UNL     1       1.609   6.828  21.147  0.00  0.00    +0.000 A 
ATOM      8  N   UNL     1       1.512   8.017  20.517  0.00  0.00    +0.000 NA
ATOM      9  H   UNL     1       2.825   9.688  18.376  0.00  0.00    +0.000 HD
ENDROOT
BRANCH   1  13
ATOM     10  C   UNL     1      -1.062  12.479  18.696  0.00  0.00    +0.000 C 
ATOM     11  C   UNL     1       0.278  12.683  19.424  0.00  0.00    +0.000 C 
ATOM     12  C   UNL     1       1.364  11.739  18.894  0.00  0.00    +0.000 C 
ATOM     13  C   UNL     1       0.913  10.281  19.041  0.00  0.00    +0.000 C 
ATOM     14  C   UNL     1      -0.377  10.075  18.235  0.00  0.00    +0.000 C 
ATOM     15  C   UNL     1      -1.491  11.001  18.733  0.00  0.00    +0.000 C 
BRANCH  10  16
ATOM     16  N   UNL     1      -2.150  13.277  19.278  0.00  0.00    +0.000 NA
ATOM     17  H   UNL     1      -1.735  13.979  19.898  0.00  0.00    +0.000 HD
BRANCH  16  18
ATOM     18  C   UNL     1      -3.106  12.517  20.101  0.00  0.00    +0.000 C 
BRANCH  18  19
ATOM     19  C   UNL     1      -3.093  12.880  21.593  0.00  0.00    +0.000 C 
BRANCH  19  21
ATOM     20  C   UNL     1      -5.369  12.930  20.977  0.00  0.00    +0.000 C 
ATOM     21  O   UNL     1      -4.442  13.045  22.047  0.00  0.00    +0.000 OA
ENDBRANCH  19  21
ENDBRANCH  18  19
ENDBRANCH  16  18
ENDBRANCH  10  16
ENDBRANCH   1  13
BRANCH   4  22
ATOM     22  C   UNL     1       2.895   4.519  18.429  0.00  0.00    +0.000 A 
ATOM     23  C   UNL     1       1.948   3.549  18.089  0.00  0.00    +0.000 A 
ATOM     24  N   UNL     1       2.200   2.497  17.286  0.00  0.00    +0.000 NA
ATOM     25  C   UNL     1       3.452   2.473  16.782  0.00  0.00    +0.000 A 
ATOM     26  C   UNL     1       4.439   3.425  17.067  0.00  0.00    +0.000 A 
ATOM     27  N   UNL     1       4.161   4.453  17.909  0.00  0.00    +0.000 NA
BRANCH  26  28
ATOM     28  N   UNL     1       5.693   3.410  16.467  0.00  0.00    +0.000 N 
ATOM     29  H   UNL     1       5.935   2.507  16.077  0.00  0.00    +0.000 HD
BRANCH  28  30
ATOM     30  C   UNL     1       6.276   4.635  15.952  0.00  0.00    +0.000 C 
BRANCH  30  31
ATOM     31  C   UNL     1       6.215   4.757  14.427  0.00  0.00    +0.000 C 
ATOM     32  C   UNL     1       5.770   3.460  13.736  0.00  0.00    +0.000 C 
ATOM     33  C   UNL     1       5.897   3.591  12.221  0.00  0.00    +0.000 C 
ATOM     34  O   UNL     1       7.234   3.926  11.851  0.00  0.00    +0.000 OA
ATOM     35  C   UNL     1       7.642   5.184  12.383  0.00  0.00    +0.000 C 
ATOM     36  C   UNL     1       7.609   5.152  13.903  0.00  0.00    +0.000 C 
ENDBRANCH  30  31
ENDBRANCH  28  30
ENDBRANCH  26  28
ENDBRANCH   4  22
TORSDOF 9
ENDMDL
MODEL 7
REMARK VINA RESULT:      -7.0      2.109     10.653
REMARK  Name = 
REMARK  10 active torsions:
REMARK  status: ('A' for Active; 'I' for Inactive)
REMARK    1  A    between atoms: C_1  and  O_2
REMARK    2  A    between atoms: O_2  and  C_3
REMARK    3  A    between atoms: C_3  and  C_4
REMARK    4  A    between atoms: C_4  and  N_5
REMARK    5  A    between atoms: N_5  and  C_6
REMARK    6  A    between atoms: C_9  and  N_10
REMARK    7  A    between atoms: C_13  and  C_14
REMARK    8  A    between atoms: C_18  and  N_19
REMARK    9  A    between atoms: N_19  and  C_20
REMARK   10  A    between atoms: C_20  and  C_21
REMARK                            x       y       z     vdW  Elec       q    Type
REMARK                         _______ _______ _______ _____ _____    ______ ____
ROOT
ATOM      1  N   UNL     1       1.814   9.567  18.659  0.00  0.00    +0.000 N 
ATOM      2  C   UNL     1       1.897   8.320  19.279  0.00  0.00    +0.000 A 
ATOM      3  C   UNL     1       2.443   7.246  18.569  0.00  0.00    +0.000 A 
ATOM      4  C   UNL     1       2.465   5.942  19.112  0.00  0.00    +0.000 A 
ATOM      5  C   UNL     1       2.031   5.818  20.442  0.00  0.00    +0.000 A 
ATOM      6 CL   UNL     1       2.113   4.360  21.364  0.00  0.00    +0.000 Cl
ATOM      7  C   UNL     1       1.519   6.938  21.085  0.00  0.00    +0.000 A 
ATOM      8  N   UNL     1       1.419   8.161  20.523  0.00  0.00    +0.000 NA
ATOM      9  H   UNL     1       2.735   9.958  18.489  0.00  0.00    +0.000 HD
ENDROOT
BRANCH   1  13
ATOM     10  C   UNL     1      -1.131  12.741  18.959  0.00  0.00    +0.000 C 
ATOM     11  C   UNL     1       0.189  12.872  19.740  0.00  0.00    +0.000 C 
ATOM     12  C   UNL     1       1.283  11.965  19.165  0.00  0.00    +0.000 C 
ATOM     13  C   UNL     1       0.818  10.504  19.178  0.00  0.00    +0.000 C 
ATOM     14  C   UNL     1      -0.450  10.377  18.321  0.00  0.00    +0.000 C 
ATOM     15  C   UNL     1      -1.571  11.270  18.862  0.00  0.00    +0.000 C 
BRANCH  10  16
ATOM     16  N   UNL     1      -2.230  13.499  19.575  0.00  0.00    +0.000 NA
ATOM     17  H   UNL     1      -1.828  14.143  20.263  0.00  0.00    +0.000 HD
BRANCH  16  18
ATOM     18  C   UNL     1      -3.215  12.683  20.304  0.00  0.00    +0.000 C 
BRANCH  18  19
ATOM     19  C   UNL     1      -3.148  12.815  21.832  0.00  0.00    +0.000 C 
BRANCH  19  21
ATOM     20  C   UNL     1      -1.240  12.484  23.177  0.00  0.00    +0.000 C 
ATOM     21  O   UNL     1      -2.208  11.864  22.343  0.00  0.00    +0.000 OA
ENDBRANCH  19  21
ENDBRANCH  18  19
ENDBRANCH  16  18
ENDBRANCH  10  16
ENDBRANCH   1  13
BRANCH   4  22
ATOM     22  C   UNL     1       2.827   4.795  18.244  0.00  0.00    +0.000 A 
ATOM     23  C   UNL     1       2.032   3.648  18.161  0.00  0.00    +0.000 A 
ATOM     24  N   UNL     1       2.270   2.624  17.318  0.00  0.00    +0.000 NA
ATOM     25  C   UNL     1       3.331   2.811  16.506  0.00  0.00    +0.000 A 
ATOM     26  C   UNL     1       4.154   3.945  16.525  0.00  0.00    +0.000 A 
ATOM     27  N   UNL     1       3.905   4.943  17.412  0.00  0.00    +0.000 NA
BRANCH  26  28
ATOM     28  N   UNL     1       5.191   4.136  15.620  0.00  0.00    +0.000 N 
ATOM     29  H   UNL     1       4.883   4.544  14.744  0.00  0.00    +0.000 HD
BRANCH  28  30
ATOM     30  C   UNL     1       6.555   4.298  16.089  0.00  0.00    +0.000 C 
BRANCH  30  31
ATOM     31  C   UNL     1       6.712   5.351  17.189  0.00  0.00    +0.000 C 
ATOM     32  C   UNL     1       7.286   6.679  16.675  0.00  0.00    +0.000 C 
ATOM     33  C   UNL     1       7.581   7.620  17.839  0.00  0.00    +0.000 C 
ATOM     34  O   UNL     1       8.475   7.011  18.770  0.00  0.00    +0.000 OA
ATOM     35  C   UNL     1       7.924   5.834  19.355  0.00  0.00    +0.000 C 
ATOM     36  C   UNL     1       7.641   4.793  18.284  0.00  0.00    +0.000 C 
ENDBRANCH  30  31
ENDBRANCH  28  30
ENDBRANCH  26  28
ENDBRANCH   4  22
TORSDOF 9
ENDMDL
MODEL 8
REMARK VINA RESULT:      -6.9      1.269      1.863
REMARK  Name = 
REMARK  10 active torsions:
REMARK  status: ('A' for Active; 'I' for Inactive)
REMARK    1  A    between atoms: C_1  and  O_2
REMARK    2  A    between atoms: O_2  and  C_3
REMARK    3  A    between atoms: C_3  and  C_4
REMARK    4  A    between atoms: C_4  and  N_5
REMARK    5  A    between atoms: N_5  and  C_6
REMARK    6  A    between atoms: C_9  and  N_10
REMARK    7  A    between atoms: C_13  and  C_14
REMARK    8  A    between atoms: C_18  and  N_19
REMARK    9  A    between atoms: N_19  and  C_20
REMARK   10  A    between atoms: C_20  and  C_21
REMARK                            x       y       z     vdW  Elec       q    Type
REMARK                         _______ _______ _______ _____ _____    ______ ____
ROOT
ATOM      1  N   UNL     1       1.958   8.130  18.133  0.00  0.00    +0.000 N 
ATOM      2  C   UNL     1       1.415   8.642  19.312  0.00  0.00    +0.000 A 
ATOM      3  C   UNL     1       0.826   9.911  19.291  0.00  0.00    +0.000 A 
ATOM      4  C   UNL     1       0.346  10.517  20.473  0.00  0.00    +0.000 A 
ATOM      5  C   UNL     1       0.378   9.724  21.632  0.00  0.00    +0.000 A 
ATOM      6 CL   UNL     1      -0.293  10.192  23.153  0.00  0.00    +0.000 Cl
ATOM      7  C   UNL     1       0.965   8.467  21.566  0.00  0.00    +0.000 A 
ATOM      8  N   UNL     1       1.502   7.934  20.449  0.00  0.00    +0.000 NA
ATOM      9  H   UNL     1       1.236   7.944  17.444  0.00  0.00    +0.000 HD
ENDROOT
BRANCH   1  13
ATOM     10  C   UNL     1       4.825   4.997  17.241  0.00  0.00    +0.000 C 
ATOM     11  C   UNL     1       3.611   4.666  18.126  0.00  0.00    +0.000 C 
ATOM     12  C   UNL     1       2.479   5.685  17.944  0.00  0.00    +0.000 C 
ATOM     13  C   UNL     1       2.984   7.096  18.266  0.00  0.00    +0.000 C 
ATOM     14  C   UNL     1       4.137   7.442  17.313  0.00  0.00    +0.000 C 
ATOM     15  C   UNL     1       5.292   6.446  17.462  0.00  0.00    +0.000 C 
BRANCH  10  16
ATOM     16  N   UNL     1       5.970   4.112  17.498  0.00  0.00    +0.000 NA
ATOM     17  H   UNL     1       6.200   4.168  18.495  0.00  0.00    +0.000 HD
BRANCH  16  18
ATOM     18  C   UNL     1       7.203   4.465  16.773  0.00  0.00    +0.000 C 
BRANCH  18  19
ATOM     19  C   UNL     1       6.985   4.890  15.313  0.00  0.00    +0.000 C 
BRANCH  19  21
ATOM     20  C   UNL     1       5.555   3.971  13.679  0.00  0.00    +0.000 C 
ATOM     21  O   UNL     1       6.666   3.734  14.531  0.00  0.00    +0.000 OA
ENDBRANCH  19  21
ENDBRANCH  18  19
ENDBRANCH  16  18
ENDBRANCH  10  16
ENDBRANCH   1  13
BRANCH   4  22
ATOM     22  C   UNL     1      -0.048  11.947  20.452  0.00  0.00    +0.000 A 
ATOM     23  C   UNL     1       0.879  12.968  20.220  0.00  0.00    +0.000 A 
ATOM     24  N   UNL     1       0.552  14.270  20.099  0.00  0.00    +0.000 NA
ATOM     25  C   UNL     1      -0.772  14.518  20.172  0.00  0.00    +0.000 A 
ATOM     26  C   UNL     1      -1.751  13.538  20.382  0.00  0.00    +0.000 A 
ATOM     27  N   UNL     1      -1.384  12.239  20.535  0.00  0.00    +0.000 NA
BRANCH  26  28
ATOM     28  N   UNL     1      -3.112  13.822  20.374  0.00  0.00    +0.000 N 
ATOM     29  H   UNL     1      -3.318  14.768  20.075  0.00  0.00    +0.000 HD
BRANCH  28  30
ATOM     30  C   UNL     1      -4.084  12.754  20.223  0.00  0.00    +0.000 C 
BRANCH  30  31
ATOM     31  C   UNL     1      -5.151  12.727  21.321  0.00  0.00    +0.000 C 
ATOM     32  C   UNL     1      -6.193  13.845  21.176  0.00  0.00    +0.000 C 
ATOM     33  C   UNL     1      -7.120  13.872  22.388  0.00  0.00    +0.000 C 
ATOM     34  O   UNL     1      -6.373  14.033  23.594  0.00  0.00    +0.000 OA
ATOM     35  C   UNL     1      -5.474  12.951  23.819  0.00  0.00    +0.000 C 
ATOM     36  C   UNL     1      -4.459  12.862  22.691  0.00  0.00    +0.000 C 
ENDBRANCH  30  31
ENDBRANCH  28  30
ENDBRANCH  26  28
ENDBRANCH   4  22
TORSDOF 9
ENDMDL
MODEL 9
REMARK VINA RESULT:      -6.9      2.113     10.877
REMARK  Name = 
REMARK  10 active torsions:
REMARK  status: ('A' for Active; 'I' for Inactive)
REMARK    1  A    between atoms: C_1  and  O_2
REMARK    2  A    between atoms: O_2  and  C_3
REMARK    3  A    between atoms: C_3  and  C_4
REMARK    4  A    between atoms: C_4  and  N_5
REMARK    5  A    between atoms: N_5  and  C_6
REMARK    6  A    between atoms: C_9  and  N_10
REMARK    7  A    between atoms: C_13  and  C_14
REMARK    8  A    between atoms: C_18  and  N_19
REMARK    9  A    between atoms: N_19  and  C_20
REMARK   10  A    between atoms: C_20  and  C_21
REMARK                            x       y       z     vdW  Elec       q    Type
REMARK                         _______ _______ _______ _____ _____    ______ ____
ROOT
ATOM      1  N   UNL     1       1.807   9.350  18.516  0.00  0.00    +0.000 N 
ATOM      2  C   UNL     1       1.899   8.151  19.224  0.00  0.00    +0.000 A 
ATOM      3  C   UNL     1       2.389   7.015  18.571  0.00  0.00    +0.000 A 
ATOM      4  C   UNL     1       2.413   5.755  19.210  0.00  0.00    +0.000 A 
ATOM      5  C   UNL     1       2.043   5.741  20.565  0.00  0.00    +0.000 A 
ATOM      6 CL   UNL     1       2.142   4.353  21.589  0.00  0.00    +0.000 Cl
ATOM      7  C   UNL     1       1.583   6.916  21.144  0.00  0.00    +0.000 A 
ATOM      8  N   UNL     1       1.478   8.095  20.497  0.00  0.00    +0.000 NA
ATOM      9  H   UNL     1       2.726   9.706  18.273  0.00  0.00    +0.000 HD
ENDROOT
BRANCH   1  13
ATOM     10  C   UNL     1      -1.034  12.624  18.719  0.00  0.00    +0.000 C 
ATOM     11  C   UNL     1       0.312  12.759  19.451  0.00  0.00    +0.000 C 
ATOM     12  C   UNL     1       1.362  11.787  18.898  0.00  0.00    +0.000 C 
ATOM     13  C   UNL     1       0.855  10.345  19.008  0.00  0.00    +0.000 C 
ATOM     14  C   UNL     1      -0.441  10.208  18.198  0.00  0.00    +0.000 C 
ATOM     15  C   UNL     1      -1.519  11.164  18.719  0.00  0.00    +0.000 C 
BRANCH  10  16
ATOM     16  N   UNL     1      -2.091  13.449  19.322  0.00  0.00    +0.000 NA
ATOM     17  H   UNL     1      -1.778  14.424  19.316  0.00  0.00    +0.000 HD
BRANCH  16  18
ATOM     18  C   UNL     1      -2.406  13.127  20.724  0.00  0.00    +0.000 C 
BRANCH  18  19
ATOM     19  C   UNL     1      -3.871  13.365  21.120  0.00  0.00    +0.000 C 
BRANCH  19  21
ATOM     20  C   UNL     1      -2.780  15.009  22.410  0.00  0.00    +0.000 C 
ATOM     21  O   UNL     1      -3.910  14.156  22.313  0.00  0.00    +0.000 OA
ENDBRANCH  19  21
ENDBRANCH  18  19
ENDBRANCH  16  18
ENDBRANCH  10  16
ENDBRANCH   1  13
BRANCH   4  22
ATOM     22  C   UNL     1       2.712   4.539  18.415  0.00  0.00    +0.000 A 
ATOM     23  C   UNL     1       1.718   3.617  18.071  0.00  0.00    +0.000 A 
ATOM     24  N   UNL     1       1.924   2.550  17.273  0.00  0.00    +0.000 NA
ATOM     25  C   UNL     1       3.176   2.460  16.779  0.00  0.00    +0.000 A 
ATOM     26  C   UNL     1       4.208   3.362  17.069  0.00  0.00    +0.000 A 
ATOM     27  N   UNL     1       3.976   4.407  17.905  0.00  0.00    +0.000 NA
BRANCH  26  28
ATOM     28  N   UNL     1       5.465   3.281  16.480  0.00  0.00    +0.000 N 
ATOM     29  H   UNL     1       5.734   2.332  16.248  0.00  0.00    +0.000 HD
BRANCH  28  30
ATOM     30  C   UNL     1       6.015   4.417  15.762  0.00  0.00    +0.000 C 
BRANCH  30  31
ATOM     31  C   UNL     1       7.086   5.183  16.542  0.00  0.00    +0.000 C 
ATOM     32  C   UNL     1       7.386   4.569  17.917  0.00  0.00    +0.000 C 
ATOM     33  C   UNL     1       8.326   5.470  18.711  0.00  0.00    +0.000 C 
ATOM     34  O   UNL     1       7.775   6.779  18.854  0.00  0.00    +0.000 OA
ATOM     35  C   UNL     1       7.590   7.425  17.597  0.00  0.00    +0.000 C 
ATOM     36  C   UNL     1       6.617   6.638  16.734  0.00  0.00    +0.000 C 
ENDBRANCH  30  31
ENDBRANCH  28  30
ENDBRANCH  26  28
ENDBRANCH   4  22
TORSDOF 9
ENDMDL
