MODEL 1
REMARK VINA RESULT:      -7.9      0.000      0.000
REMARK  Name = 
REMARK  6 active torsions:
REMARK  status: ('A' for Active; 'I' for Inactive)
REMARK    1  A    between atoms: C_2  and  C_11
REMARK    2  A    between atoms: N_3  and  C_4
REMARK    3  A    between atoms: C_14  and  C_15
REMARK    4  A    between atoms: N_17  and  C_18
REMARK    5  A    between atoms: N_21  and  C_22
REMARK    6  A    between atoms: C_22  and  C_23
REMARK                            x       y       z     vdW  Elec       q    Type
REMARK                         _______ _______ _______ _____ _____    ______ ____
ROOT
ATOM      1  C   UNL     1       1.788   8.521  19.260  0.00  0.00    +0.000 A 
ATOM      2  C   UNL     1       1.128   9.718  18.983  0.00  0.00    +0.000 A 
ATOM      3  C   UNL     1       0.395  10.383  19.968  0.00  0.00    +0.000 A 
ATOM      4  C   UNL     1       0.335   9.856  21.265  0.00  0.00    +0.000 A 
ATOM      5  C   UNL     1       1.000   8.653  21.554  0.00  0.00    +0.000 A 
ATOM      6  C   UNL     1       1.728   7.983  20.561  0.00  0.00    +0.000 A 
ENDROOT
BRANCH   1   8
ATOM      7  O   UNL     1       2.603   8.439  17.092  0.00  0.00    +0.000 OA
ATOM      8  C   UNL     1       2.571   7.873  18.179  0.00  0.00    +0.000 C 
ATOM      9  N   UNL     1       3.129   6.642  18.486  0.00  0.00    +0.000 N 
ATOM     10  H   UNL     1       2.860   6.219  19.365  0.00  0.00    +0.000 HD
BRANCH   9  11
ATOM     11  C   UNL     1       3.858   5.819  17.598  0.00  0.00    +0.000 A 
ATOM     12  C   UNL     1       3.675   4.436  17.503  0.00  0.00    +0.000 A 
ATOM     13  C   UNL     1       4.476   3.668  16.656  0.00  0.00    +0.000 A 
ATOM     14  C   UNL     1       5.458   4.283  15.894  0.00  0.00    +0.000 A 
ATOM     15  F   UNL     1       6.244   3.545  15.101  0.00  0.00    +0.000 F 
ATOM     16  C   UNL     1       5.632   5.662  15.942  0.00  0.00    +0.000 A 
ATOM     17  C   UNL     1       4.826   6.432  16.788  0.00  0.00    +0.000 A 
ENDBRANCH   9  11
ENDBRANCH   1   8
BRANCH   4  18
ATOM     18  C   UNL     1      -0.435  10.536  22.359  0.00  0.00    +0.000 C 
ATOM     19  O   UNL     1      -0.464  10.046  23.478  0.00  0.00    +0.000 OA
ATOM     20  N   UNL     1      -1.037  11.736  22.029  0.00  0.00    +0.000 N 
ATOM     21  H   UNL     1      -0.698  12.193  21.193  0.00  0.00    +0.000 HD
BRANCH  20  22
ATOM     22  C   UNL     1      -1.648  12.613  23.035  0.00  0.00    +0.000 C 
ATOM     23  C   UNL     1      -3.126  12.299  23.340  0.00  0.00    +0.000 C 
ATOM     24  C   UNL     1      -4.152  12.923  22.365  0.00  0.00    +0.000 C 
ATOM     25  N   UNL     1      -3.840  14.318  21.998  0.00  0.00    +0.000 NA
ATOM     26  C   UNL     1      -2.479  14.368  21.453  0.00  0.00    +0.000 C 
ATOM     27  C   UNL     1      -1.509  14.070  22.592  0.00  0.00    +0.000 C 
BRANCH  25  28
ATOM     28  C   UNL     1      -4.795  14.929  21.044  0.00  0.00    +0.000 C 
BRANCH  28  29
ATOM     29  C   UNL     1      -5.606  16.133  21.593  0.00  0.00    +0.000 C 
ATOM     30  C   UNL     1      -7.073  16.154  21.138  0.00  0.00    +0.000 C 
ATOM     31  C   UNL     1      -7.916  15.075  21.805  0.00  0.00    +0.000 C 
ATOM     32  C   UNL     1      -7.915  15.209  23.321  0.00  0.00    +0.000 C 
ATOM     33  C   UNL     1      -6.528  15.377  23.930  0.00  0.00    +0.000 C 
ATOM     34  C   UNL     1      -5.541  16.236  23.133  0.00  0.00    +0.000 C 
ENDBRANCH  28  29
ENDBRANCH  25  28
ENDBRANCH  20  22
ENDBRANCH   4  18
TORSDOF 6
ENDMDL
MODEL 2
REMARK VINA RESULT:      -7.9      0.568      1.197
REMARK  Name = 
REMARK  6 active torsions:
REMARK  status: ('A' for Active; 'I' for Inactive)
REMARK    1  A    between atoms: C_2  and  C_11
REMARK    2  A    between atoms: N_3  and  C_4
REMARK    3  A    between atoms: C_14  and  C_15
REMARK    4  A    between atoms: N_17  and  C_18
REMARK    5  A    between atoms: N_21  and  C_22
REMARK    6  A    between atoms: C_22  and  C_23
REMARK                            x       y       z     vdW  Elec       q    Type
REMARK                         _______ _______ _______ _____ _____    ______ ____
ROOT
ATOM      1  C   UNL     1       1.762   8.598  19.269  0.00  0.00    +0.000 A 
ATOM      2  C   UNL     1       1.196   9.852  19.044  0.00  0.00    +0.000 A 
ATOM      3  C   UNL     1       0.504  10.523  20.055  0.00  0.00    +0.000 A 
ATOM      4  C   UNL     1       0.391   9.940  21.325  0.00  0.00    +0.000 A 
ATOM      5  C   UNL     1       0.962   8.679  21.560  0.00  0.00    +0.000 A 
ATOM      6  C   UNL     1       1.650   8.005  20.542  0.00  0.00    +0.000 A 
ENDROOT
BRANCH   1   8
ATOM      7  O   UNL     1       2.432   8.462  17.053  0.00  0.00    +0.000 OA
ATOM      8  C   UNL     1       2.507   7.946  18.162  0.00  0.00    +0.000 C 
ATOM      9  N   UNL     1       3.157   6.763  18.481  0.00  0.00    +0.000 N 
ATOM     10  H   UNL     1       2.974   6.367  19.394  0.00  0.00    +0.000 HD
BRANCH   9  11
ATOM     11  C   UNL     1       3.871   5.942  17.579  0.00  0.00    +0.000 A 
ATOM     12  C   UNL     1       3.637   4.571  17.433  0.00  0.00    +0.000 A 
ATOM     13  C   UNL     1       4.425   3.801  16.575  0.00  0.00    +0.000 A 
ATOM     14  C   UNL     1       5.445   4.403  15.854  0.00  0.00    +0.000 A 
ATOM     15  F   UNL     1       6.218   3.662  15.052  0.00  0.00    +0.000 F 
ATOM     16  C   UNL     1       5.671   5.772  15.953  0.00  0.00    +0.000 A 
ATOM     17  C   UNL     1       4.878   6.544  16.810  0.00  0.00    +0.000 A 
ENDBRANCH   9  11
ENDBRANCH   1   8
BRANCH   4  18
ATOM     18  C   UNL     1      -0.338  10.622  22.444  0.00  0.00    +0.000 C 
ATOM     19  O   UNL     1      -0.206  10.221  23.591  0.00  0.00    +0.000 OA
ATOM     20  N   UNL     1      -1.095  11.726  22.099  0.00  0.00    +0.000 N 
ATOM     21  H   UNL     1      -0.890  12.148  21.204  0.00  0.00    +0.000 HD
BRANCH  20  22
ATOM     22  C   UNL     1      -1.698  12.614  23.102  0.00  0.00    +0.000 C 
ATOM     23  C   UNL     1      -3.132  12.228  23.514  0.00  0.00    +0.000 C 
ATOM     24  C   UNL     1      -4.251  12.744  22.579  0.00  0.00    +0.000 C 
ATOM     25  N   UNL     1      -4.049  14.135  22.131  0.00  0.00    +0.000 NA
ATOM     26  C   UNL     1      -2.728  14.239  21.500  0.00  0.00    +0.000 C 
ATOM     27  C   UNL     1      -1.675  14.053  22.587  0.00  0.00    +0.000 C 
BRANCH  25  28
ATOM     28  C   UNL     1      -5.095  14.643  21.213  0.00  0.00    +0.000 C 
BRANCH  28  29
ATOM     29  C   UNL     1      -6.548  14.573  21.757  0.00  0.00    +0.000 C 
ATOM     30  C   UNL     1      -6.740  15.274  23.109  0.00  0.00    +0.000 C 
ATOM     31  C   UNL     1      -6.682  16.793  23.002  0.00  0.00    +0.000 C 
ATOM     32  C   UNL     1      -7.745  17.337  22.059  0.00  0.00    +0.000 C 
ATOM     33  C   UNL     1      -7.809  16.623  20.714  0.00  0.00    +0.000 C 
ATOM     34  C   UNL     1      -7.584  15.107  20.744  0.00  0.00    +0.000 C 
ENDBRANCH  28  29
ENDBRANCH  25  28
ENDBRANCH  20  22
ENDBRANCH   4  18
TORSDOF 6
ENDMDL
MODEL 3
REMARK VINA RESULT:      -7.7      0.651      1.355
REMARK  Name = 
REMARK  6 active torsions:
REMARK  status: ('A' for Active; 'I' for Inactive)
REMARK    1  A    between atoms: C_2  and  C_11
REMARK    2  A    between atoms: N_3  and  C_4
REMARK    3  A    between atoms: C_14  and  C_15
REMARK    4  A    between atoms: N_17  and  C_18
REMARK    5  A    between atoms: N_21  and  C_22
REMARK    6  A    between atoms: C_22  and  C_23
REMARK                            x       y       z     vdW  Elec       q    Type
REMARK                         _______ _______ _______ _____ _____    ______ ____
ROOT
ATOM      1  C   UNL     1       1.777   8.669  19.311  0.00  0.00    +0.000 A 
ATOM      2  C   UNL     1       1.668   8.025  20.543  0.00  0.00    +0.000 A 
ATOM      3  C   UNL     1       1.001   8.624  21.614  0.00  0.00    +0.000 A 
ATOM      4  C   UNL     1       0.411   9.884  21.449  0.00  0.00    +0.000 A 
ATOM      5  C   UNL     1       0.513  10.538  20.210  0.00  0.00    +0.000 A 
ATOM      6  C   UNL     1       1.189   9.938  19.139  0.00  0.00    +0.000 A 
ENDROOT
BRANCH   1   8
ATOM      7  O   UNL     1       2.319   8.416  17.072  0.00  0.00    +0.000 OA
ATOM      8  C   UNL     1       2.475   7.971  18.203  0.00  0.00    +0.000 C 
ATOM      9  N   UNL     1       3.177   6.828  18.552  0.00  0.00    +0.000 N 
ATOM     10  H   UNL     1       3.060   6.484  19.496  0.00  0.00    +0.000 HD
BRANCH   9  11
ATOM     11  C   UNL     1       3.863   5.973  17.660  0.00  0.00    +0.000 A 
ATOM     12  C   UNL     1       3.480   4.651  17.412  0.00  0.00    +0.000 A 
ATOM     13  C   UNL     1       4.241   3.835  16.571  0.00  0.00    +0.000 A 
ATOM     14  C   UNL     1       5.382   4.342  15.970  0.00  0.00    +0.000 A 
ATOM     15  F   UNL     1       6.127   3.554  15.186  0.00  0.00    +0.000 F 
ATOM     16  C   UNL     1       5.760   5.666  16.171  0.00  0.00    +0.000 A 
ATOM     17  C   UNL     1       4.996   6.484  17.009  0.00  0.00    +0.000 A 
ENDBRANCH   9  11
ENDBRANCH   1   8
BRANCH   4  18
ATOM     18  C   UNL     1      -0.319  10.567  22.568  0.00  0.00    +0.000 C 
ATOM     19  O   UNL     1      -0.193  10.162  23.714  0.00  0.00    +0.000 OA
ATOM     20  N   UNL     1      -1.070  11.676  22.223  0.00  0.00    +0.000 N 
ATOM     21  H   UNL     1      -0.859  12.099  21.329  0.00  0.00    +0.000 HD
BRANCH  20  22
ATOM     22  C   UNL     1      -1.672  12.563  23.225  0.00  0.00    +0.000 C 
ATOM     23  C   UNL     1      -3.179  12.338  23.452  0.00  0.00    +0.000 C 
ATOM     24  C   UNL     1      -4.115  13.054  22.450  0.00  0.00    +0.000 C 
ATOM     25  N   UNL     1      -3.698  14.435  22.140  0.00  0.00    +0.000 NA
ATOM     26  C   UNL     1      -2.311  14.411  21.661  0.00  0.00    +0.000 C 
ATOM     27  C   UNL     1      -1.418  14.020  22.834  0.00  0.00    +0.000 C 
BRANCH  25  28
ATOM     28  C   UNL     1      -4.565  15.133  21.162  0.00  0.00    +0.000 C 
BRANCH  28  29
ATOM     29  C   UNL     1      -5.114  16.509  21.622  0.00  0.00    +0.000 C 
ATOM     30  C   UNL     1      -6.426  16.422  22.415  0.00  0.00    +0.000 C 
ATOM     31  C   UNL     1      -6.235  15.849  23.815  0.00  0.00    +0.000 C 
ATOM     32  C   UNL     1      -5.265  16.681  24.642  0.00  0.00    +0.000 C 
ATOM     33  C   UNL     1      -3.962  17.013  23.925  0.00  0.00    +0.000 C 
ATOM     34  C   UNL     1      -4.075  17.320  22.427  0.00  0.00    +0.000 C 
ENDBRANCH  28  29
ENDBRANCH  25  28
ENDBRANCH  20  22
ENDBRANCH   4  18
TORSDOF 6
ENDMDL
MODEL 4
REMARK VINA RESULT:      -7.7      4.155      5.487
REMARK  Name = 
REMARK  6 active torsions:
REMARK  status: ('A' for Active; 'I' for Inactive)
REMARK    1  A    between atoms: C_2  and  C_11
REMARK    2  A    between atoms: N_3  and  C_4
REMARK    3  A    between atoms: C_14  and  C_15
REMARK    4  A    between atoms: N_17  and  C_18
REMARK    5  A    between atoms: N_21  and  C_22
REMARK    6  A    between atoms: C_22  and  C_23
REMARK                            x       y       z     vdW  Elec       q    Type
REMARK                         _______ _______ _______ _____ _____    ______ ____
ROOT
ATOM      1  C   UNL     1       3.818   6.052  17.728  0.00  0.00    +0.000 A 
ATOM      2  C   UNL     1       3.342   5.511  18.923  0.00  0.00    +0.000 A 
ATOM      3  C   UNL     1       2.547   6.264  19.790  0.00  0.00    +0.000 A 
ATOM      4  C   UNL     1       2.200   7.578  19.450  0.00  0.00    +0.000 A 
ATOM      5  C   UNL     1       2.672   8.129  18.248  0.00  0.00    +0.000 A 
ATOM      6  C   UNL     1       3.475   7.374  17.383  0.00  0.00    +0.000 A 
ENDROOT
BRANCH   1   8
ATOM      7  O   UNL     1       5.093   4.161  17.313  0.00  0.00    +0.000 OA
ATOM      8  C   UNL     1       4.637   5.195  16.836  0.00  0.00    +0.000 C 
ATOM      9  N   UNL     1       4.873   5.692  15.564  0.00  0.00    +0.000 N 
ATOM     10  H   UNL     1       4.584   6.644  15.379  0.00  0.00    +0.000 HD
BRANCH   9  11
ATOM     11  C   UNL     1       5.672   5.081  14.571  0.00  0.00    +0.000 A 
ATOM     12  C   UNL     1       7.006   5.428  14.335  0.00  0.00    +0.000 A 
ATOM     13  C   UNL     1       7.722   4.836  13.292  0.00  0.00    +0.000 A 
ATOM     14  C   UNL     1       7.109   3.889  12.488  0.00  0.00    +0.000 A 
ATOM     15  F   UNL     1       7.785   3.340  11.472  0.00  0.00    +0.000 F 
ATOM     16  C   UNL     1       5.795   3.499  12.729  0.00  0.00    +0.000 A 
ATOM     17  C   UNL     1       5.079   4.089  13.777  0.00  0.00    +0.000 A 
ENDBRANCH   9  11
ENDBRANCH   1   8
BRANCH   4  18
ATOM     18  C   UNL     1       1.345   8.426  20.346  0.00  0.00    +0.000 C 
ATOM     19  O   UNL     1       1.320   8.207  21.548  0.00  0.00    +0.000 OA
ATOM     20  N   UNL     1       0.662   9.463  19.739  0.00  0.00    +0.000 N 
ATOM     21  H   UNL     1       0.990   9.741  18.824  0.00  0.00    +0.000 HD
BRANCH  20  22
ATOM     22  C   UNL     1      -0.048  10.494  20.505  0.00  0.00    +0.000 C 
ATOM     23  C   UNL     1      -1.145  11.233  19.714  0.00  0.00    +0.000 C 
ATOM     24  C   UNL     1      -0.653  12.410  18.839  0.00  0.00    +0.000 C 
ATOM     25  N   UNL     1       0.358  13.255  19.505  0.00  0.00    +0.000 NA
ATOM     26  C   UNL     1       1.471  12.402  19.939  0.00  0.00    +0.000 C 
ATOM     27  C   UNL     1       0.961  11.501  21.059  0.00  0.00    +0.000 C 
BRANCH  25  28
ATOM     28  C   UNL     1       0.864  14.374  18.676  0.00  0.00    +0.000 C 
BRANCH  28  29
ATOM     29  C   UNL     1       0.869  15.764  19.366  0.00  0.00    +0.000 C 
ATOM     30  C   UNL     1       2.132  16.592  19.089  0.00  0.00    +0.000 C 
ATOM     31  C   UNL     1       2.192  17.121  17.662  0.00  0.00    +0.000 C 
ATOM     32  C   UNL     1       0.996  18.003  17.332  0.00  0.00    +0.000 C 
ATOM     33  C   UNL     1      -0.349  17.396  17.712  0.00  0.00    +0.000 C 
ATOM     34  C   UNL     1      -0.384  16.599  19.021  0.00  0.00    +0.000 C 
ENDBRANCH  28  29
ENDBRANCH  25  28
ENDBRANCH  20  22
ENDBRANCH   4  18
TORSDOF 6
ENDMDL
MODEL 5
REMARK VINA RESULT:      -7.7      5.641      8.562
REMARK  Name = 
REMARK  6 active torsions:
REMARK  status: ('A' for Active; 'I' for Inactive)
REMARK    1  A    between atoms: C_2  and  C_11
REMARK    2  A    between atoms: N_3  and  C_4
REMARK    3  A    between atoms: C_14  and  C_15
REMARK    4  A    between atoms: N_17  and  C_18
REMARK    5  A    between atoms: N_21  and  C_22
REMARK    6  A    between atoms: C_22  and  C_23
REMARK                            x       y       z     vdW  Elec       q    Type
REMARK                         _______ _______ _______ _____ _____    ______ ____
ROOT
ATOM      1  C   UNL     1       1.728   8.160  19.333  0.00  0.00    +0.000 A 
ATOM      2  C   UNL     1       2.186   8.751  18.155  0.00  0.00    +0.000 A 
ATOM      3  C   UNL     1       2.051  10.123  17.936  0.00  0.00    +0.000 A 
ATOM      4  C   UNL     1       1.464  10.930  18.920  0.00  0.00    +0.000 A 
ATOM      5  C   UNL     1       1.003  10.344  20.110  0.00  0.00    +0.000 A 
ATOM      6  C   UNL     1       1.134   8.965  20.325  0.00  0.00    +0.000 A 
ENDROOT
BRANCH   1   8
ATOM      7  O   UNL     1       1.707   6.243  20.635  0.00  0.00    +0.000 OA
ATOM      8  C   UNL     1       1.924   6.701  19.519  0.00  0.00    +0.000 C 
ATOM      9  N   UNL     1       2.412   6.008  18.422  0.00  0.00    +0.000 N 
ATOM     10  H   UNL     1       2.718   6.556  17.628  0.00  0.00    +0.000 HD
BRANCH   9  11
ATOM     11  C   UNL     1       2.733   4.632  18.387  0.00  0.00    +0.000 A 
ATOM     12  C   UNL     1       1.864   3.651  17.900  0.00  0.00    +0.000 A 
ATOM     13  C   UNL     1       2.211   2.300  17.957  0.00  0.00    +0.000 A 
ATOM     14  C   UNL     1       3.434   1.926  18.494  0.00  0.00    +0.000 A 
ATOM     15  F   UNL     1       3.757   0.631  18.574  0.00  0.00    +0.000 F 
ATOM     16  C   UNL     1       4.331   2.888  18.949  0.00  0.00    +0.000 A 
ATOM     17  C   UNL     1       3.984   4.242  18.888  0.00  0.00    +0.000 A 
ENDBRANCH   9  11
ENDBRANCH   1   8
BRANCH   4  18
ATOM     18  C   UNL     1       1.299  12.410  18.734  0.00  0.00    +0.000 C 
ATOM     19  O   UNL     1       0.185  12.910  18.787  0.00  0.00    +0.000 OA
ATOM     20  N   UNL     1       2.461  13.138  18.560  0.00  0.00    +0.000 N 
ATOM     21  H   UNL     1       3.320  12.685  18.839  0.00  0.00    +0.000 HD
BRANCH  20  22
ATOM     22  C   UNL     1       2.479  14.606  18.568  0.00  0.00    +0.000 C 
ATOM     23  C   UNL     1       3.337  15.239  17.456  0.00  0.00    +0.000 C 
ATOM     24  C   UNL     1       4.849  15.350  17.766  0.00  0.00    +0.000 C 
ATOM     25  N   UNL     1       5.134  15.791  19.145  0.00  0.00    +0.000 NA
ATOM     26  C   UNL     1       4.458  14.883  20.079  0.00  0.00    +0.000 C 
ATOM     27  C   UNL     1       2.955  15.101  19.935  0.00  0.00    +0.000 C 
BRANCH  25  28
ATOM     28  C   UNL     1       6.577  15.879  19.474  0.00  0.00    +0.000 C 
BRANCH  28  29
ATOM     29  C   UNL     1       7.534  15.211  18.452  0.00  0.00    +0.000 C 
ATOM     30  C   UNL     1       8.549  16.178  17.825  0.00  0.00    +0.000 C 
ATOM     31  C   UNL     1       9.635  16.611  18.802  0.00  0.00    +0.000 C 
ATOM     32  C   UNL     1      10.420  15.424  19.342  0.00  0.00    +0.000 C 
ATOM     33  C   UNL     1       9.550  14.281  19.851  0.00  0.00    +0.000 C 
ATOM     34  C   UNL     1       8.277  13.994  19.046  0.00  0.00    +0.000 C 
ENDBRANCH  28  29
ENDBRANCH  25  28
ENDBRANCH  20  22
ENDBRANCH   4  18
TORSDOF 6
ENDMDL
MODEL 6
REMARK VINA RESULT:      -7.6      4.418      5.923
REMARK  Name = 
REMARK  6 active torsions:
REMARK  status: ('A' for Active; 'I' for Inactive)
REMARK    1  A    between atoms: C_2  and  C_11
REMARK    2  A    between atoms: N_3  and  C_4
REMARK    3  A    between atoms: C_14  and  C_15
REMARK    4  A    between atoms: N_17  and  C_18
REMARK    5  A    between atoms: N_21  and  C_22
REMARK    6  A    between atoms: C_22  and  C_23
REMARK                            x       y       z     vdW  Elec       q    Type
REMARK                         _______ _______ _______ _____ _____    ______ ____
ROOT
ATOM      1  C   UNL     1       4.117   5.919  17.615  0.00  0.00    +0.000 A 
ATOM      2  C   UNL     1       3.813   7.241  17.293  0.00  0.00    +0.000 A 
ATOM      3  C   UNL     1       2.962   8.003  18.097  0.00  0.00    +0.000 A 
ATOM      4  C   UNL     1       2.417   7.441  19.260  0.00  0.00    +0.000 A 
ATOM      5  C   UNL     1       2.720   6.111  19.593  0.00  0.00    +0.000 A 
ATOM      6  C   UNL     1       3.569   5.347  18.781  0.00  0.00    +0.000 A 
ENDROOT
BRANCH   1   8
ATOM      7  O   UNL     1       5.942   4.529  17.279  0.00  0.00    +0.000 OA
ATOM      8  C   UNL     1       5.048   5.169  16.736  0.00  0.00    +0.000 C 
ATOM      9  N   UNL     1       4.860   5.332  15.372  0.00  0.00    +0.000 N 
ATOM     10  H   UNL     1       4.198   6.038  15.078  0.00  0.00    +0.000 HD
BRANCH   9  11
ATOM     11  C   UNL     1       5.661   4.768  14.353  0.00  0.00    +0.000 A 
ATOM     12  C   UNL     1       6.999   5.118  14.141  0.00  0.00    +0.000 A 
ATOM     13  C   UNL     1       7.716   4.576  13.073  0.00  0.00    +0.000 A 
ATOM     14  C   UNL     1       7.099   3.676  12.217  0.00  0.00    +0.000 A 
ATOM     15  F   UNL     1       7.777   3.176  11.177  0.00  0.00    +0.000 F 
ATOM     16  C   UNL     1       5.782   3.283  12.431  0.00  0.00    +0.000 A 
ATOM     17  C   UNL     1       5.065   3.823  13.505  0.00  0.00    +0.000 A 
ENDBRANCH   9  11
ENDBRANCH   1   8
BRANCH   4  18
ATOM     18  C   UNL     1       1.501   8.219  20.158  0.00  0.00    +0.000 C 
ATOM     19  O   UNL     1       1.443   7.950  21.349  0.00  0.00    +0.000 OA
ATOM     20  N   UNL     1       0.800   9.255  19.569  0.00  0.00    +0.000 N 
ATOM     21  H   UNL     1       1.148   9.582  18.678  0.00  0.00    +0.000 HD
BRANCH  20  22
ATOM     22  C   UNL     1       0.026  10.227  20.350  0.00  0.00    +0.000 C 
ATOM     23  C   UNL     1      -1.120  10.901  19.572  0.00  0.00    +0.000 C 
ATOM     24  C   UNL     1      -0.711  12.119  18.710  0.00  0.00    +0.000 C 
ATOM     25  N   UNL     1       0.244  13.021  19.383  0.00  0.00    +0.000 NA
ATOM     26  C   UNL     1       1.413  12.239  19.802  0.00  0.00    +0.000 C 
ATOM     27  C   UNL     1       0.968  11.293  20.913  0.00  0.00    +0.000 C 
BRANCH  25  28
ATOM     28  C   UNL     1       0.671  14.181  18.566  0.00  0.00    +0.000 C 
BRANCH  28  29
ATOM     29  C   UNL     1       1.656  15.158  19.262  0.00  0.00    +0.000 C 
ATOM     30  C   UNL     1       3.108  15.024  18.781  0.00  0.00    +0.000 C 
ATOM     31  C   UNL     1       3.317  15.563  17.371  0.00  0.00    +0.000 C 
ATOM     32  C   UNL     1       2.943  17.034  17.264  0.00  0.00    +0.000 C 
ATOM     33  C   UNL     1       1.583  17.376  17.863  0.00  0.00    +0.000 C 
ATOM     34  C   UNL     1       1.207  16.631  19.149  0.00  0.00    +0.000 C 
ENDBRANCH  28  29
ENDBRANCH  25  28
ENDBRANCH  20  22
ENDBRANCH   4  18
TORSDOF 6
ENDMDL
MODEL 7
REMARK VINA RESULT:      -7.6      5.508      8.355
REMARK  Name = 
REMARK  6 active torsions:
REMARK  status: ('A' for Active; 'I' for Inactive)
REMARK    1  A    between atoms: C_2  and  C_11
REMARK    2  A    between atoms: N_3  and  C_4
REMARK    3  A    between atoms: C_14  and  C_15
REMARK    4  A    between atoms: N_17  and  C_18
REMARK    5  A    between atoms: N_21  and  C_22
REMARK    6  A    between atoms: C_22  and  C_23
REMARK                            x       y       z     vdW  Elec       q    Type
REMARK                         _______ _______ _______ _____ _____    ______ ____
ROOT
ATOM      1  C   UNL     1       1.728   8.133  19.444  0.00  0.00    +0.000 A 
ATOM      2  C   UNL     1       1.150   8.887  20.465  0.00  0.00    +0.000 A 
ATOM      3  C   UNL     1       0.929  10.257  20.313  0.00  0.00    +0.000 A 
ATOM      4  C   UNL     1       1.272  10.888  19.110  0.00  0.00    +0.000 A 
ATOM      5  C   UNL     1       1.851  10.135  18.075  0.00  0.00    +0.000 A 
ATOM      6  C   UNL     1       2.078   8.761  18.232  0.00  0.00    +0.000 A 
ENDROOT
BRANCH   1   8
ATOM      7  O   UNL     1       1.560   6.214  20.734  0.00  0.00    +0.000 OA
ATOM      8  C   UNL     1       1.914   6.675  19.655  0.00  0.00    +0.000 C 
ATOM      9  N   UNL     1       2.548   5.989  18.630  0.00  0.00    +0.000 N 
ATOM     10  H   UNL     1       2.948   6.541  17.882  0.00  0.00    +0.000 HD
BRANCH   9  11
ATOM     11  C   UNL     1       2.886   4.617  18.638  0.00  0.00    +0.000 A 
ATOM     12  C   UNL     1       3.975   4.095  19.343  0.00  0.00    +0.000 A 
ATOM     13  C   UNL     1       4.298   2.740  19.255  0.00  0.00    +0.000 A 
ATOM     14  C   UNL     1       3.526   1.900  18.466  0.00  0.00    +0.000 A 
ATOM     15  F   UNL     1       3.850   0.606  18.359  0.00  0.00    +0.000 F 
ATOM     16  C   UNL     1       2.415   2.388  17.788  0.00  0.00    +0.000 A 
ATOM     17  C   UNL     1       2.089   3.746  17.880  0.00  0.00    +0.000 A 
ENDBRANCH   9  11
ENDBRANCH   1   8
BRANCH   4  18
ATOM     18  C   UNL     1       1.050  12.356  18.896  0.00  0.00    +0.000 C 
ATOM     19  O   UNL     1      -0.068  12.830  19.034  0.00  0.00    +0.000 OA
ATOM     20  N   UNL     1       2.172  13.108  18.599  0.00  0.00    +0.000 N 
ATOM     21  H   UNL     1       3.065  12.685  18.814  0.00  0.00    +0.000 HD
BRANCH  20  22
ATOM     22  C   UNL     1       2.150  14.576  18.565  0.00  0.00    +0.000 C 
ATOM     23  C   UNL     1       3.052  15.200  17.483  0.00  0.00    +0.000 C 
ATOM     24  C   UNL     1       4.540  15.364  17.873  0.00  0.00    +0.000 C 
ATOM     25  N   UNL     1       4.736  15.852  19.252  0.00  0.00    +0.000 NA
ATOM     26  C   UNL     1       4.032  14.952  20.173  0.00  0.00    +0.000 C 
ATOM     27  C   UNL     1       2.535  15.123  19.940  0.00  0.00    +0.000 C 
BRANCH  25  28
ATOM     28  C   UNL     1       6.155  15.991  19.657  0.00  0.00    +0.000 C 
BRANCH  28  29
ATOM     29  C   UNL     1       7.197  15.646  18.560  0.00  0.00    +0.000 C 
ATOM     30  C   UNL     1       8.302  16.700  18.399  0.00  0.00    +0.000 C 
ATOM     31  C   UNL     1       9.288  16.706  19.560  0.00  0.00    +0.000 C 
ATOM     32  C   UNL     1       9.974  15.358  19.730  0.00  0.00    +0.000 C 
ATOM     33  C   UNL     1       9.020  14.170  19.733  0.00  0.00    +0.000 C 
ATOM     34  C   UNL     1       7.834  14.255  18.766  0.00  0.00    +0.000 C 
ENDBRANCH  28  29
ENDBRANCH  25  28
ENDBRANCH  20  22
ENDBRANCH   4  18
TORSDOF 6
ENDMDL
MODEL 8
REMARK VINA RESULT:      -7.6      0.633      1.448
REMARK  Name = 
REMARK  6 active torsions:
REMARK  status: ('A' for Active; 'I' for Inactive)
REMARK    1  A    between atoms: C_2  and  C_11
REMARK    2  A    between atoms: N_3  and  C_4
REMARK    3  A    between atoms: C_14  and  C_15
REMARK    4  A    between atoms: N_17  and  C_18
REMARK    5  A    between atoms: N_21  and  C_22
REMARK    6  A    between atoms: C_22  and  C_23
REMARK                            x       y       z     vdW  Elec       q    Type
REMARK                         _______ _______ _______ _____ _____    ______ ____
ROOT
ATOM      1  C   UNL     1       1.776   8.680  19.262  0.00  0.00    +0.000 A 
ATOM      2  C   UNL     1       1.698   8.029  20.493  0.00  0.00    +0.000 A 
ATOM      3  C   UNL     1       0.997   8.589  21.562  0.00  0.00    +0.000 A 
ATOM      4  C   UNL     1       0.340   9.816  21.396  0.00  0.00    +0.000 A 
ATOM      5  C   UNL     1       0.410  10.477  20.159  0.00  0.00    +0.000 A 
ATOM      6  C   UNL     1       1.121   9.915  19.089  0.00  0.00    +0.000 A 
ENDROOT
BRANCH   1   8
ATOM      7  O   UNL     1       2.369   8.484  17.029  0.00  0.00    +0.000 OA
ATOM      8  C   UNL     1       2.515   8.022  18.155  0.00  0.00    +0.000 C 
ATOM      9  N   UNL     1       3.242   6.893  18.497  0.00  0.00    +0.000 N 
ATOM     10  H   UNL     1       3.117   6.528  19.432  0.00  0.00    +0.000 HD
BRANCH   9  11
ATOM     11  C   UNL     1       3.969   6.074  17.603  0.00  0.00    +0.000 A 
ATOM     12  C   UNL     1       4.944   6.564  16.728  0.00  0.00    +0.000 A 
ATOM     13  C   UNL     1       5.578   5.714  15.820  0.00  0.00    +0.000 A 
ATOM     14  C   UNL     1       5.244   4.368  15.789  0.00  0.00    +0.000 A 
ATOM     15  F   UNL     1       5.830   3.557  14.901  0.00  0.00    +0.000 F 
ATOM     16  C   UNL     1       4.305   3.851  16.677  0.00  0.00    +0.000 A 
ATOM     17  C   UNL     1       3.674   4.703  17.590  0.00  0.00    +0.000 A 
ENDBRANCH   9  11
ENDBRANCH   1   8
BRANCH   4  18
ATOM     18  C   UNL     1      -0.430  10.457  22.513  0.00  0.00    +0.000 C 
ATOM     19  O   UNL     1      -0.469   9.922  23.612  0.00  0.00    +0.000 OA
ATOM     20  N   UNL     1      -1.021  11.674  22.231  0.00  0.00    +0.000 N 
ATOM     21  H   UNL     1      -0.674  12.163  21.416  0.00  0.00    +0.000 HD
BRANCH  20  22
ATOM     22  C   UNL     1      -1.630  12.515  23.269  0.00  0.00    +0.000 C 
ATOM     23  C   UNL     1      -3.125  12.235  23.518  0.00  0.00    +0.000 C 
ATOM     24  C   UNL     1      -4.103  12.947  22.555  0.00  0.00    +0.000 C 
ATOM     25  N   UNL     1      -3.736  14.349  22.275  0.00  0.00    +0.000 NA
ATOM     26  C   UNL     1      -2.359  14.382  21.768  0.00  0.00    +0.000 C 
ATOM     27  C   UNL     1      -1.431  13.989  22.913  0.00  0.00    +0.000 C 
BRANCH  25  28
ATOM     28  C   UNL     1      -4.644  15.044  21.333  0.00  0.00    +0.000 C 
BRANCH  28  29
ATOM     29  C   UNL     1      -4.926  16.535  21.659  0.00  0.00    +0.000 C 
ATOM     30  C   UNL     1      -5.681  17.282  20.550  0.00  0.00    +0.000 C 
ATOM     31  C   UNL     1      -7.141  16.863  20.441  0.00  0.00    +0.000 C 
ATOM     32  C   UNL     1      -7.900  17.102  21.739  0.00  0.00    +0.000 C 
ATOM     33  C   UNL     1      -7.193  16.570  22.980  0.00  0.00    +0.000 C 
ATOM     34  C   UNL     1      -5.667  16.716  23.002  0.00  0.00    +0.000 C 
ENDBRANCH  28  29
ENDBRANCH  25  28
ENDBRANCH  20  22
ENDBRANCH   4  18
TORSDOF 6
ENDMDL
MODEL 9
REMARK VINA RESULT:      -7.6      2.127      3.682
REMARK  Name = 
REMARK  6 active torsions:
REMARK  status: ('A' for Active; 'I' for Inactive)
REMARK    1  A    between atoms: C_2  and  C_11
REMARK    2  A    between atoms: N_3  and  C_4
REMARK    3  A    between atoms: C_14  and  C_15
REMARK    4  A    between atoms: N_17  and  C_18
REMARK    5  A    between atoms: N_21  and  C_22
REMARK    6  A    between atoms: C_22  and  C_23
REMARK                            x       y       z     vdW  Elec       q    Type
REMARK                         _______ _______ _______ _____ _____    ______ ____
ROOT
ATOM      1  C   UNL     1       1.576   8.558  19.403  0.00  0.00    +0.000 A 
ATOM      2  C   UNL     1       0.778   9.630  19.002  0.00  0.00    +0.000 A 
ATOM      3  C   UNL     1       0.007  10.340  19.925  0.00  0.00    +0.000 A 
ATOM      4  C   UNL     1       0.047   9.989  21.281  0.00  0.00    +0.000 A 
ATOM      5  C   UNL     1       0.849   8.913  21.693  0.00  0.00    +0.000 A 
ATOM      6  C   UNL     1       1.617   8.197  20.765  0.00  0.00    +0.000 A 
ENDROOT
BRANCH   1   8
ATOM      7  O   UNL     1       2.367   8.305  17.239  0.00  0.00    +0.000 OA
ATOM      8  C   UNL     1       2.392   7.858  18.380  0.00  0.00    +0.000 C 
ATOM      9  N   UNL     1       3.045   6.711  18.805  0.00  0.00    +0.000 N 
ATOM     10  H   UNL     1       2.820   6.366  19.729  0.00  0.00    +0.000 HD
BRANCH   9  11
ATOM     11  C   UNL     1       3.823   5.854  17.995  0.00  0.00    +0.000 A 
ATOM     12  C   UNL     1       5.041   6.232  17.420  0.00  0.00    +0.000 A 
ATOM     13  C   UNL     1       5.729   5.362  16.571  0.00  0.00    +0.000 A 
ATOM     14  C   UNL     1       5.205   4.106  16.303  0.00  0.00    +0.000 A 
ATOM     15  F   UNL     1       5.849   3.281  15.469  0.00  0.00    +0.000 F 
ATOM     16  C   UNL     1       4.015   3.694  16.895  0.00  0.00    +0.000 A 
ATOM     17  C   UNL     1       3.329   4.564  17.748  0.00  0.00    +0.000 A 
ENDBRANCH   9  11
ENDBRANCH   1   8
BRANCH   4  18
ATOM     18  C   UNL     1      -0.760  10.724  22.311  0.00  0.00    +0.000 C 
ATOM     19  O   UNL     1      -0.730  10.363  23.478  0.00  0.00    +0.000 OA
ATOM     20  N   UNL     1      -1.464  11.826  21.864  0.00  0.00    +0.000 N 
ATOM     21  H   UNL     1      -1.178  12.212  20.974  0.00  0.00    +0.000 HD
BRANCH  20  22
ATOM     22  C   UNL     1      -2.131  12.760  22.781  0.00  0.00    +0.000 C 
ATOM     23  C   UNL     1      -3.324  13.515  22.164  0.00  0.00    +0.000 C 
ATOM     24  C   UNL     1      -2.961  14.780  21.352  0.00  0.00    +0.000 C 
ATOM     25  N   UNL     1      -1.919  15.609  21.990  0.00  0.00    +0.000 NA
ATOM     26  C   UNL     1      -0.741  14.771  22.241  0.00  0.00    +0.000 C 
ATOM     27  C   UNL     1      -1.108  13.760  23.322  0.00  0.00    +0.000 C 
BRANCH  25  28
ATOM     28  C   UNL     1      -1.536  16.813  21.217  0.00  0.00    +0.000 C 
BRANCH  28  29
ATOM     29  C   UNL     1      -1.548  16.645  19.674  0.00  0.00    +0.000 C 
ATOM     30  C   UNL     1      -1.478  17.971  18.903  0.00  0.00    +0.000 C 
ATOM     31  C   UNL     1      -0.107  18.630  18.981  0.00  0.00    +0.000 C 
ATOM     32  C   UNL     1       0.989  17.731  18.427  0.00  0.00    +0.000 C 
ATOM     33  C   UNL     1       0.955  16.305  18.964  0.00  0.00    +0.000 C 
ATOM     34  C   UNL     1      -0.436  15.696  19.174  0.00  0.00    +0.000 C 
ENDBRANCH  28  29
ENDBRANCH  25  28
ENDBRANCH  20  22
ENDBRANCH   4  18
TORSDOF 6
ENDMDL
