MODEL 1
REMARK VINA RESULT:      -7.1      0.000      0.000
REMARK  Name = 
REMARK  6 active torsions:
REMARK  status: ('A' for Active; 'I' for Inactive)
REMARK    1  A    between atoms: C_5  and  S_6
REMARK    2  A    between atoms: S_6  and  C_7
REMARK    3  A    between atoms: C_7  and  C_8
REMARK    4  A    between atoms: C_8  and  C_9
REMARK    5  A    between atoms: C_9  and  N_10
REMARK    6  A    between atoms: N_13  and  C_14
REMARK                            x       y       z     vdW  Elec       q    Type
REMARK                         _______ _______ _______ _____ _____    ______ ____
ROOT
ATOM      1  N   UNL     1       7.695   6.586  17.373  0.00  0.00    +0.000 NA
ATOM      2  C   UNL     1       7.635   5.185  17.865  0.00  0.00    +0.000 C 
ATOM      3  C   UNL     1       6.605   4.928  18.989  0.00  0.00    +0.000 C 
ATOM      4  N   UNL     1       5.270   5.415  18.600  0.00  0.00    +0.000 N 
ATOM      5  C   UNL     1       5.222   6.777  18.038  0.00  0.00    +0.000 C 
ATOM      6  C   UNL     1       6.315   6.953  16.951  0.00  0.00    +0.000 C 
ENDROOT
BRANCH   4   7
ATOM      7  C   UNL     1       4.143   4.623  18.627  0.00  0.00    +0.000 A 
ATOM      8  C   UNL     1       3.458   4.269  17.458  0.00  0.00    +0.000 A 
ATOM      9  C   UNL     1       2.295   3.493  17.489  0.00  0.00    +0.000 A 
ATOM     10  C   UNL     1       1.785   3.046  18.705  0.00  0.00    +0.000 A 
ATOM     11 CL   UNL     1       0.333   2.112  18.674  0.00  0.00    +0.000 Cl
ATOM     12  C   UNL     1       2.448   3.372  19.886  0.00  0.00    +0.000 A 
ATOM     13 CL   UNL     1       1.884   2.857  21.437  0.00  0.00    +0.000 Cl
ATOM     14  C   UNL     1       3.614   4.145  19.839  0.00  0.00    +0.000 A 
ENDBRANCH   4   7
BRANCH   1  15
ATOM     15  C   UNL     1       8.168   7.534  18.401  0.00  0.00    +0.000 C 
BRANCH  15  16
ATOM     16  C   UNL     1       8.245   8.989  17.919  0.00  0.00    +0.000 C 
BRANCH  16  17
ATOM     17  C   UNL     1       8.965   9.909  18.910  0.00  0.00    +0.000 C 
BRANCH  17  18
ATOM     18  S   UNL     1       9.893  11.208  18.007  0.00  0.00    +0.000 S 
BRANCH  18  23
ATOM     19 CL   UNL     1      10.420  15.543  22.536  0.00  0.00    +0.000 Cl
ATOM     20  C   UNL     1      10.251  14.400  21.261  0.00  0.00    +0.000 A 
ATOM     21  C   UNL     1       9.306  13.383  21.361  0.00  0.00    +0.000 A 
ATOM     22  C   UNL     1       9.194  12.441  20.339  0.00  0.00    +0.000 A 
ATOM     23  C   UNL     1      10.020  12.513  19.207  0.00  0.00    +0.000 A 
ATOM     24  C   UNL     1      10.961  13.541  19.117  0.00  0.00    +0.000 A 
ATOM     25  C   UNL     1      11.076  14.486  20.143  0.00  0.00    +0.000 A 
ENDBRANCH  18  23
ENDBRANCH  17  18
ENDBRANCH  16  17
ENDBRANCH  15  16
ENDBRANCH   1  15
TORSDOF 6
ENDMDL
MODEL 2
REMARK VINA RESULT:      -6.9      6.482      7.963
REMARK  Name = 
REMARK  6 active torsions:
REMARK  status: ('A' for Active; 'I' for Inactive)
REMARK    1  A    between atoms: C_5  and  S_6
REMARK    2  A    between atoms: S_6  and  C_7
REMARK    3  A    between atoms: C_7  and  C_8
REMARK    4  A    between atoms: C_8  and  C_9
REMARK    5  A    between atoms: C_9  and  N_10
REMARK    6  A    between atoms: N_13  and  C_14
REMARK                            x       y       z     vdW  Elec       q    Type
REMARK                         _______ _______ _______ _____ _____    ______ ____
ROOT
ATOM      1  N   UNL     1       2.655   2.077  19.321  0.00  0.00    +0.000 NA
ATOM      2  C   UNL     1       2.288   2.464  17.933  0.00  0.00    +0.000 C 
ATOM      3  C   UNL     1       2.848   3.825  17.462  0.00  0.00    +0.000 C 
ATOM      4  N   UNL     1       4.306   3.892  17.666  0.00  0.00    +0.000 N 
ATOM      5  C   UNL     1       4.788   3.468  18.993  0.00  0.00    +0.000 C 
ATOM      6  C   UNL     1       4.142   2.117  19.398  0.00  0.00    +0.000 C 
ENDROOT
BRANCH   4   7
ATOM      7  C   UNL     1       5.193   4.202  16.658  0.00  0.00    +0.000 A 
ATOM      8  C   UNL     1       6.342   4.968  16.892  0.00  0.00    +0.000 A 
ATOM      9  C   UNL     1       7.224   5.312  15.863  0.00  0.00    +0.000 A 
ATOM     10  C   UNL     1       6.976   4.889  14.560  0.00  0.00    +0.000 A 
ATOM     11 CL   UNL     1       8.092   5.366  13.332  0.00  0.00    +0.000 Cl
ATOM     12  C   UNL     1       5.848   4.115  14.295  0.00  0.00    +0.000 A 
ATOM     13 CL   UNL     1       5.466   3.548  12.707  0.00  0.00    +0.000 Cl
ATOM     14  C   UNL     1       4.976   3.776  15.336  0.00  0.00    +0.000 A 
ENDBRANCH   4   7
BRANCH   1  15
ATOM     15  C   UNL     1       2.081   2.979  20.338  0.00  0.00    +0.000 C 
BRANCH  15  16
ATOM     16  C   UNL     1       1.446   4.250  19.755  0.00  0.00    +0.000 C 
BRANCH  16  17
ATOM     17  C   UNL     1       1.762   5.504  20.576  0.00  0.00    +0.000 C 
BRANCH  17  18
ATOM     18  S   UNL     1       2.676   6.718  19.550  0.00  0.00    +0.000 S 
BRANCH  18  23
ATOM     19 CL   UNL     1      -1.065  11.772  19.765  0.00  0.00    +0.000 Cl
ATOM     20  C   UNL     1      -0.000  10.420  19.740  0.00  0.00    +0.000 A 
ATOM     21  C   UNL     1       0.649  10.070  18.559  0.00  0.00    +0.000 A 
ATOM     22  C   UNL     1       1.487   8.956  18.536  0.00  0.00    +0.000 A 
ATOM     23  C   UNL     1       1.687   8.188  19.694  0.00  0.00    +0.000 A 
ATOM     24  C   UNL     1       1.033   8.553  20.872  0.00  0.00    +0.000 A 
ATOM     25  C   UNL     1       0.190   9.670  20.896  0.00  0.00    +0.000 A 
ENDBRANCH  18  23
ENDBRANCH  17  18
ENDBRANCH  16  17
ENDBRANCH  15  16
ENDBRANCH   1  15
TORSDOF 6
ENDMDL
MODEL 3
REMARK VINA RESULT:      -6.9      0.889      1.046
REMARK  Name = 
REMARK  6 active torsions:
REMARK  status: ('A' for Active; 'I' for Inactive)
REMARK    1  A    between atoms: C_5  and  S_6
REMARK    2  A    between atoms: S_6  and  C_7
REMARK    3  A    between atoms: C_7  and  C_8
REMARK    4  A    between atoms: C_8  and  C_9
REMARK    5  A    between atoms: C_9  and  N_10
REMARK    6  A    between atoms: N_13  and  C_14
REMARK                            x       y       z     vdW  Elec       q    Type
REMARK                         _______ _______ _______ _____ _____    ______ ____
ROOT
ATOM      1  N   UNL     1       7.621   6.656  17.433  0.00  0.00    +0.000 NA
ATOM      2  C   UNL     1       7.575   5.288  18.012  0.00  0.00    +0.000 C 
ATOM      3  C   UNL     1       6.493   5.070  19.095  0.00  0.00    +0.000 C 
ATOM      4  N   UNL     1       5.167   5.485  18.603  0.00  0.00    +0.000 N 
ATOM      5  C   UNL     1       5.110   6.806  17.950  0.00  0.00    +0.000 C 
ATOM      6  C   UNL     1       6.257   6.948  16.914  0.00  0.00    +0.000 C 
ENDROOT
BRANCH   4   7
ATOM      7  C   UNL     1       4.065   4.659  18.622  0.00  0.00    +0.000 A 
ATOM      8  C   UNL     1       3.534   4.106  17.450  0.00  0.00    +0.000 A 
ATOM      9  C   UNL     1       2.395   3.296  17.466  0.00  0.00    +0.000 A 
ATOM     10  C   UNL     1       1.754   3.013  18.669  0.00  0.00    +0.000 A 
ATOM     11 CL   UNL     1       0.339   2.024  18.617  0.00  0.00    +0.000 Cl
ATOM     12  C   UNL     1       2.264   3.538  19.855  0.00  0.00    +0.000 A 
ATOM     13 CL   UNL     1       1.531   3.237  21.392  0.00  0.00    +0.000 Cl
ATOM     14  C   UNL     1       3.407   4.345  19.824  0.00  0.00    +0.000 A 
ENDBRANCH   4   7
BRANCH   1  15
ATOM     15  C   UNL     1       8.007   7.683  18.420  0.00  0.00    +0.000 C 
BRANCH  15  16
ATOM     16  C   UNL     1       8.165   9.090  17.826  0.00  0.00    +0.000 C 
BRANCH  16  17
ATOM     17  C   UNL     1       9.129   9.971  18.626  0.00  0.00    +0.000 C 
BRANCH  17  18
ATOM     18  S   UNL     1       9.059  11.700  18.018  0.00  0.00    +0.000 S 
BRANCH  18  23
ATOM     19 CL   UNL     1       8.940  15.104  23.307  0.00  0.00    +0.000 Cl
ATOM     20  C   UNL     1       9.033  14.182  21.857  0.00  0.00    +0.000 A 
ATOM     21  C   UNL     1       8.503  14.692  20.676  0.00  0.00    +0.000 A 
ATOM     22  C   UNL     1       8.554  13.928  19.510  0.00  0.00    +0.000 A 
ATOM     23  C   UNL     1       9.141  12.653  19.516  0.00  0.00    +0.000 A 
ATOM     24  C   UNL     1       9.672  12.155  20.708  0.00  0.00    +0.000 A 
ATOM     25  C   UNL     1       9.620  12.920  21.878  0.00  0.00    +0.000 A 
ENDBRANCH  18  23
ENDBRANCH  17  18
ENDBRANCH  16  17
ENDBRANCH  15  16
ENDBRANCH   1  15
TORSDOF 6
ENDMDL
MODEL 4
REMARK VINA RESULT:      -6.8      6.490      8.003
REMARK  Name = 
REMARK  6 active torsions:
REMARK  status: ('A' for Active; 'I' for Inactive)
REMARK    1  A    between atoms: C_5  and  S_6
REMARK    2  A    between atoms: S_6  and  C_7
REMARK    3  A    between atoms: C_7  and  C_8
REMARK    4  A    between atoms: C_8  and  C_9
REMARK    5  A    between atoms: C_9  and  N_10
REMARK    6  A    between atoms: N_13  and  C_14
REMARK                            x       y       z     vdW  Elec       q    Type
REMARK                         _______ _______ _______ _____ _____    ______ ____
ROOT
ATOM      1  N   UNL     1       3.513   2.738  19.774  0.00  0.00    +0.000 NA
ATOM      2  C   UNL     1       3.502   2.054  18.455  0.00  0.00    +0.000 C 
ATOM      3  C   UNL     1       3.369   2.990  17.231  0.00  0.00    +0.000 C 
ATOM      4  N   UNL     1       4.387   4.054  17.271  0.00  0.00    +0.000 N 
ATOM      5  C   UNL     1       4.527   4.760  18.559  0.00  0.00    +0.000 C 
ATOM      6  C   UNL     1       4.611   3.743  19.728  0.00  0.00    +0.000 C 
ENDROOT
BRANCH   4   7
ATOM      7  C   UNL     1       5.254   4.306  16.231  0.00  0.00    +0.000 A 
ATOM      8  C   UNL     1       6.366   5.144  16.379  0.00  0.00    +0.000 A 
ATOM      9  C   UNL     1       7.226   5.427  15.313  0.00  0.00    +0.000 A 
ATOM     10  C   UNL     1       6.993   4.869  14.059  0.00  0.00    +0.000 A 
ATOM     11 CL   UNL     1       8.079   5.277  12.781  0.00  0.00    +0.000 Cl
ATOM     12  C   UNL     1       5.901   4.022  13.881  0.00  0.00    +0.000 A 
ATOM     13 CL   UNL     1       5.539   3.287  12.358  0.00  0.00    +0.000 Cl
ATOM     14  C   UNL     1       5.051   3.745  14.958  0.00  0.00    +0.000 A 
ENDBRANCH   4   7
BRANCH   1  15
ATOM     15  C   UNL     1       2.236   3.412  20.079  0.00  0.00    +0.000 C 
BRANCH  15  16
ATOM     16  C   UNL     1       2.391   4.695  20.910  0.00  0.00    +0.000 C 
BRANCH  16  17
ATOM     17  C   UNL     1       1.307   5.734  20.611  0.00  0.00    +0.000 C 
BRANCH  17  18
ATOM     18  S   UNL     1       2.069   7.280  19.986  0.00  0.00    +0.000 S 
BRANCH  18  23
ATOM     19 CL   UNL     1      -1.285  11.690  22.967  0.00  0.00    +0.000 Cl
ATOM     20  C   UNL     1      -0.407  10.487  22.105  0.00  0.00    +0.000 A 
ATOM     21  C   UNL     1      -0.431   9.165  22.540  0.00  0.00    +0.000 A 
ATOM     22  C   UNL     1       0.306   8.199  21.856  0.00  0.00    +0.000 A 
ATOM     23  C   UNL     1       1.067   8.547  20.728  0.00  0.00    +0.000 A 
ATOM     24  C   UNL     1       1.078   9.876  20.300  0.00  0.00    +0.000 A 
ATOM     25  C   UNL     1       0.340  10.846  20.987  0.00  0.00    +0.000 A 
ENDBRANCH  18  23
ENDBRANCH  17  18
ENDBRANCH  16  17
ENDBRANCH  15  16
ENDBRANCH   1  15
TORSDOF 6
ENDMDL
MODEL 5
REMARK VINA RESULT:      -6.8      5.344      7.413
REMARK  Name = 
REMARK  6 active torsions:
REMARK  status: ('A' for Active; 'I' for Inactive)
REMARK    1  A    between atoms: C_5  and  S_6
REMARK    2  A    between atoms: S_6  and  C_7
REMARK    3  A    between atoms: C_7  and  C_8
REMARK    4  A    between atoms: C_8  and  C_9
REMARK    5  A    between atoms: C_9  and  N_10
REMARK    6  A    between atoms: N_13  and  C_14
REMARK                            x       y       z     vdW  Elec       q    Type
REMARK                         _______ _______ _______ _____ _____    ______ ____
ROOT
ATOM      1  N   UNL     1       3.502   4.266  20.120  0.00  0.00    +0.000 NA
ATOM      2  C   UNL     1       4.033   5.542  19.573  0.00  0.00    +0.000 C 
ATOM      3  C   UNL     1       2.969   6.497  18.986  0.00  0.00    +0.000 C 
ATOM      4  N   UNL     1       1.890   6.742  19.958  0.00  0.00    +0.000 N 
ATOM      5  C   UNL     1       1.330   5.544  20.611  0.00  0.00    +0.000 C 
ATOM      6  C   UNL     1       2.470   4.628  21.130  0.00  0.00    +0.000 C 
ENDROOT
BRANCH   4   7
ATOM      7  C   UNL     1       1.500   8.005  20.347  0.00  0.00    +0.000 A 
ATOM      8  C   UNL     1       1.167   8.302  21.674  0.00  0.00    +0.000 A 
ATOM      9  C   UNL     1       0.738   9.575  22.062  0.00  0.00    +0.000 A 
ATOM     10  C   UNL     1       0.632  10.595  21.119  0.00  0.00    +0.000 A 
ATOM     11 CL   UNL     1       0.075  12.137  21.659  0.00  0.00    +0.000 Cl
ATOM     12  C   UNL     1       0.966  10.335  19.792  0.00  0.00    +0.000 A 
ATOM     13 CL   UNL     1       0.864  11.543  18.558  0.00  0.00    +0.000 Cl
ATOM     14  C   UNL     1       1.398   9.057  19.419  0.00  0.00    +0.000 A 
ENDBRANCH   4   7
BRANCH   1  15
ATOM     15  C   UNL     1       2.901   3.405  19.082  0.00  0.00    +0.000 C 
BRANCH  15  16
ATOM     16  C   UNL     1       3.911   2.859  18.063  0.00  0.00    +0.000 C 
BRANCH  16  17
ATOM     17  C   UNL     1       3.803   3.538  16.694  0.00  0.00    +0.000 C 
BRANCH  17  18
ATOM     18  S   UNL     1       5.456   3.638  15.907  0.00  0.00    +0.000 S 
BRANCH  18  23
ATOM     19 CL   UNL     1       8.491   8.377  18.720  0.00  0.00    +0.000 Cl
ATOM     20  C   UNL     1       7.610   7.095  17.983  0.00  0.00    +0.000 A 
ATOM     21  C   UNL     1       7.908   5.774  18.305  0.00  0.00    +0.000 A 
ATOM     22  C   UNL     1       7.212   4.738  17.683  0.00  0.00    +0.000 A 
ATOM     23  C   UNL     1       6.211   5.016  16.739  0.00  0.00    +0.000 A 
ATOM     24  C   UNL     1       5.921   6.345  16.428  0.00  0.00    +0.000 A 
ATOM     25  C   UNL     1       6.619   7.386  17.051  0.00  0.00    +0.000 A 
ENDBRANCH  18  23
ENDBRANCH  17  18
ENDBRANCH  16  17
ENDBRANCH  15  16
ENDBRANCH   1  15
TORSDOF 6
ENDMDL
MODEL 6
REMARK VINA RESULT:      -6.8      5.397      7.444
REMARK  Name = 
REMARK  6 active torsions:
REMARK  status: ('A' for Active; 'I' for Inactive)
REMARK    1  A    between atoms: C_5  and  S_6
REMARK    2  A    between atoms: S_6  and  C_7
REMARK    3  A    between atoms: C_7  and  C_8
REMARK    4  A    between atoms: C_8  and  C_9
REMARK    5  A    between atoms: C_9  and  N_10
REMARK    6  A    between atoms: N_13  and  C_14
REMARK                            x       y       z     vdW  Elec       q    Type
REMARK                         _______ _______ _______ _____ _____    ______ ____
ROOT
ATOM      1  N   UNL     1       1.479   2.684  19.751  0.00  0.00    +0.000 NA
ATOM      2  C   UNL     1       1.358   3.429  21.031  0.00  0.00    +0.000 C 
ATOM      3  C   UNL     1       2.259   4.680  21.150  0.00  0.00    +0.000 C 
ATOM      4  N   UNL     1       2.070   5.574  19.994  0.00  0.00    +0.000 N 
ATOM      5  C   UNL     1       2.109   4.926  18.669  0.00  0.00    +0.000 C 
ATOM      6  C   UNL     1       1.211   3.661  18.659  0.00  0.00    +0.000 C 
ENDROOT
BRANCH   4   7
ATOM      7  C   UNL     1       1.749   6.907  20.119  0.00  0.00    +0.000 A 
ATOM      8  C   UNL     1       1.162   7.422  21.282  0.00  0.00    +0.000 A 
ATOM      9  C   UNL     1       0.804   8.769  21.395  0.00  0.00    +0.000 A 
ATOM     10  C   UNL     1       1.029   9.644  20.336  0.00  0.00    +0.000 A 
ATOM     11 CL   UNL     1       0.543  11.289  20.532  0.00  0.00    +0.000 Cl
ATOM     12  C   UNL     1       1.621   9.166  19.168  0.00  0.00    +0.000 A 
ATOM     13 CL   UNL     1       1.937  10.184  17.807  0.00  0.00    +0.000 Cl
ATOM     14  C   UNL     1       1.978   7.817  19.071  0.00  0.00    +0.000 A 
ENDBRANCH   4   7
BRANCH   1  15
ATOM     15  C   UNL     1       2.813   2.083  19.562  0.00  0.00    +0.000 C 
BRANCH  15  16
ATOM     16  C   UNL     1       3.229   1.938  18.090  0.00  0.00    +0.000 C 
BRANCH  16  17
ATOM     17  C   UNL     1       4.637   2.472  17.813  0.00  0.00    +0.000 C 
BRANCH  17  18
ATOM     18  S   UNL     1       4.596   3.670  16.425  0.00  0.00    +0.000 S 
BRANCH  18  23
ATOM     19 CL   UNL     1       8.429   8.254  18.395  0.00  0.00    +0.000 Cl
ATOM     20  C   UNL     1       7.337   7.021  17.894  0.00  0.00    +0.000 A 
ATOM     21  C   UNL     1       7.566   5.699  18.265  0.00  0.00    +0.000 A 
ATOM     22  C   UNL     1       6.695   4.700  17.832  0.00  0.00    +0.000 A 
ATOM     23  C   UNL     1       5.587   5.016  17.031  0.00  0.00    +0.000 A 
ATOM     24  C   UNL     1       5.367   6.347  16.670  0.00  0.00    +0.000 A 
ATOM     25  C   UNL     1       6.241   7.350  17.102  0.00  0.00    +0.000 A 
ENDBRANCH  18  23
ENDBRANCH  17  18
ENDBRANCH  16  17
ENDBRANCH  15  16
ENDBRANCH   1  15
TORSDOF 6
ENDMDL
MODEL 7
REMARK VINA RESULT:      -6.7      7.219      8.510
REMARK  Name = 
REMARK  6 active torsions:
REMARK  status: ('A' for Active; 'I' for Inactive)
REMARK    1  A    between atoms: C_5  and  S_6
REMARK    2  A    between atoms: S_6  and  C_7
REMARK    3  A    between atoms: C_7  and  C_8
REMARK    4  A    between atoms: C_8  and  C_9
REMARK    5  A    between atoms: C_9  and  N_10
REMARK    6  A    between atoms: N_13  and  C_14
REMARK                            x       y       z     vdW  Elec       q    Type
REMARK                         _______ _______ _______ _____ _____    ______ ____
ROOT
ATOM      1  N   UNL     1       0.440  10.275  19.218  0.00  0.00    +0.000 NA
ATOM      2  C   UNL     1       0.904   9.539  18.013  0.00  0.00    +0.000 C 
ATOM      3  C   UNL     1       2.192   8.707  18.208  0.00  0.00    +0.000 C 
ATOM      4  N   UNL     1       2.065   7.805  19.366  0.00  0.00    +0.000 N 
ATOM      5  C   UNL     1       1.550   8.419  20.604  0.00  0.00    +0.000 C 
ATOM      6  C   UNL     1       0.285   9.266  20.303  0.00  0.00    +0.000 C 
ENDROOT
BRANCH   4   7
ATOM      7  C   UNL     1       2.280   6.447  19.289  0.00  0.00    +0.000 A 
ATOM      8  C   UNL     1       2.720   5.832  18.110  0.00  0.00    +0.000 A 
ATOM      9  C   UNL     1       2.907   4.449  18.022  0.00  0.00    +0.000 A 
ATOM     10  C   UNL     1       2.656   3.638  19.125  0.00  0.00    +0.000 A 
ATOM     11 CL   UNL     1       2.883   1.936  18.943  0.00  0.00    +0.000 Cl
ATOM     12  C   UNL     1       2.227   4.219  20.317  0.00  0.00    +0.000 A 
ATOM     13 CL   UNL     1       1.894   3.286  21.735  0.00  0.00    +0.000 Cl
ATOM     14  C   UNL     1       2.050   5.605  20.392  0.00  0.00    +0.000 A 
ENDBRANCH   4   7
BRANCH   1  15
ATOM     15  C   UNL     1       1.385  11.324  19.648  0.00  0.00    +0.000 C 
BRANCH  15  16
ATOM     16  C   UNL     1       1.109  12.702  19.028  0.00  0.00    +0.000 C 
BRANCH  16  17
ATOM     17  C   UNL     1      -0.012  13.463  19.743  0.00  0.00    +0.000 C 
BRANCH  17  18
ATOM     18  S   UNL     1       0.527  13.946  21.428  0.00  0.00    +0.000 S 
BRANCH  18  23
ATOM     19 CL   UNL     1      -4.512  12.315  24.823  0.00  0.00    +0.000 Cl
ATOM     20  C   UNL     1      -3.099  12.734  23.936  0.00  0.00    +0.000 A 
ATOM     21  C   UNL     1      -2.681  14.061  23.881  0.00  0.00    +0.000 A 
ATOM     22  C   UNL     1      -1.552  14.400  23.137  0.00  0.00    +0.000 A 
ATOM     23  C   UNL     1      -0.829  13.414  22.447  0.00  0.00    +0.000 A 
ATOM     24  C   UNL     1      -1.256  12.087  22.513  0.00  0.00    +0.000 A 
ATOM     25  C   UNL     1      -2.390  11.746  23.259  0.00  0.00    +0.000 A 
ENDBRANCH  18  23
ENDBRANCH  17  18
ENDBRANCH  16  17
ENDBRANCH  15  16
ENDBRANCH   1  15
TORSDOF 6
ENDMDL
MODEL 8
REMARK VINA RESULT:      -6.7      0.869      1.078
REMARK  Name = 
REMARK  6 active torsions:
REMARK  status: ('A' for Active; 'I' for Inactive)
REMARK    1  A    between atoms: C_5  and  S_6
REMARK    2  A    between atoms: S_6  and  C_7
REMARK    3  A    between atoms: C_7  and  C_8
REMARK    4  A    between atoms: C_8  and  C_9
REMARK    5  A    between atoms: C_9  and  N_10
REMARK    6  A    between atoms: N_13  and  C_14
REMARK                            x       y       z     vdW  Elec       q    Type
REMARK                         _______ _______ _______ _____ _____    ______ ____
ROOT
ATOM      1  N   UNL     1       7.426   6.842  16.954  0.00  0.00    +0.000 NA
ATOM      2  C   UNL     1       7.455   5.384  17.246  0.00  0.00    +0.000 C 
ATOM      3  C   UNL     1       6.614   4.942  18.465  0.00  0.00    +0.000 C 
ATOM      4  N   UNL     1       5.229   5.435  18.354  0.00  0.00    +0.000 N 
ATOM      5  C   UNL     1       5.082   6.860  18.004  0.00  0.00    +0.000 C 
ATOM      6  C   UNL     1       5.993   7.219  16.801  0.00  0.00    +0.000 C 
ENDROOT
BRANCH   4   7
ATOM      7  C   UNL     1       4.129   4.612  18.438  0.00  0.00    +0.000 A 
ATOM      8  C   UNL     1       3.648   3.902  17.331  0.00  0.00    +0.000 A 
ATOM      9  C   UNL     1       2.510   3.093  17.407  0.00  0.00    +0.000 A 
ATOM     10  C   UNL     1       1.819   2.971  18.610  0.00  0.00    +0.000 A 
ATOM     11 CL   UNL     1       0.409   1.975  18.632  0.00  0.00    +0.000 Cl
ATOM     12  C   UNL     1       2.277   3.655  19.734  0.00  0.00    +0.000 A 
ATOM     13 CL   UNL     1       1.480   3.558  21.266  0.00  0.00    +0.000 Cl
ATOM     14  C   UNL     1       3.420   4.458  19.643  0.00  0.00    +0.000 A 
ENDBRANCH   4   7
BRANCH   1  15
ATOM     15  C   UNL     1       8.040   7.652  18.023  0.00  0.00    +0.000 C 
BRANCH  15  16
ATOM     16  C   UNL     1       8.112   9.153  17.705  0.00  0.00    +0.000 C 
BRANCH  16  17
ATOM     17  C   UNL     1       8.829   9.960  18.791  0.00  0.00    +0.000 C 
BRANCH  17  18
ATOM     18  S   UNL     1      10.032  11.115  18.030  0.00  0.00    +0.000 S 
BRANCH  18  23
ATOM     19 CL   UNL     1       9.443  16.591  21.071  0.00  0.00    +0.000 Cl
ATOM     20  C   UNL     1       9.562  15.069  20.277  0.00  0.00    +0.000 A 
ATOM     21  C   UNL     1      10.713  14.299  20.423  0.00  0.00    +0.000 A 
ATOM     22  C   UNL     1      10.817  13.080  19.754  0.00  0.00    +0.000 A 
ATOM     23  C   UNL     1       9.770  12.620  18.939  0.00  0.00    +0.000 A 
ATOM     24  C   UNL     1       8.621  13.401  18.805  0.00  0.00    +0.000 A 
ATOM     25  C   UNL     1       8.515  14.625  19.475  0.00  0.00    +0.000 A 
ENDBRANCH  18  23
ENDBRANCH  17  18
ENDBRANCH  16  17
ENDBRANCH  15  16
ENDBRANCH   1  15
TORSDOF 6
ENDMDL
MODEL 9
REMARK VINA RESULT:      -6.7      5.158      7.193
REMARK  Name = 
REMARK  6 active torsions:
REMARK  status: ('A' for Active; 'I' for Inactive)
REMARK    1  A    between atoms: C_5  and  S_6
REMARK    2  A    between atoms: S_6  and  C_7
REMARK    3  A    between atoms: C_7  and  C_8
REMARK    4  A    between atoms: C_8  and  C_9
REMARK    5  A    between atoms: C_9  and  N_10
REMARK    6  A    between atoms: N_13  and  C_14
REMARK                            x       y       z     vdW  Elec       q    Type
REMARK                         _______ _______ _______ _____ _____    ______ ____
ROOT
ATOM      1  N   UNL     1       1.413   3.356  18.891  0.00  0.00    +0.000 NA
ATOM      2  C   UNL     1       1.082   3.858  20.250  0.00  0.00    +0.000 C 
ATOM      3  C   UNL     1       1.960   5.029  20.750  0.00  0.00    +0.000 C 
ATOM      4  N   UNL     1       1.980   6.126  19.767  0.00  0.00    +0.000 N 
ATOM      5  C   UNL     1       2.239   5.732  18.370  0.00  0.00    +0.000 C 
ATOM      6  C   UNL     1       1.345   4.527  17.973  0.00  0.00    +0.000 C 
ENDROOT
BRANCH   4   7
ATOM      7  C   UNL     1       1.653   7.426  20.084  0.00  0.00    +0.000 A 
ATOM      8  C   UNL     1       1.125   7.773  21.334  0.00  0.00    +0.000 A 
ATOM      9  C   UNL     1       0.761   9.088  21.644  0.00  0.00    +0.000 A 
ATOM     10  C   UNL     1       0.922  10.099  20.700  0.00  0.00    +0.000 A 
ATOM     11 CL   UNL     1       0.432  11.695  21.138  0.00  0.00    +0.000 Cl
ATOM     12  C   UNL     1       1.455   9.789  19.450  0.00  0.00    +0.000 A 
ATOM     13 CL   UNL     1       1.688  10.983  18.222  0.00  0.00    +0.000 Cl
ATOM     14  C   UNL     1       1.818   8.470  19.156  0.00  0.00    +0.000 A 
ENDBRANCH   4   7
BRANCH   1  15
ATOM     15  C   UNL     1       2.755   2.747  18.818  0.00  0.00    +0.000 C 
BRANCH  15  16
ATOM     16  C   UNL     1       3.337   2.690  17.397  0.00  0.00    +0.000 C 
BRANCH  16  17
ATOM     17  C   UNL     1       4.755   3.262  17.310  0.00  0.00    +0.000 C 
BRANCH  17  18
ATOM     18  S   UNL     1       5.263   3.941  18.936  0.00  0.00    +0.000 S 
BRANCH  18  23
ATOM     19 CL   UNL     1       8.414   9.184  17.466  0.00  0.00    +0.000 Cl
ATOM     20  C   UNL     1       7.594   7.718  17.838  0.00  0.00    +0.000 A 
ATOM     21  C   UNL     1       6.376   7.430  17.230  0.00  0.00    +0.000 A 
ATOM     22  C   UNL     1       5.701   6.255  17.556  0.00  0.00    +0.000 A 
ATOM     23  C   UNL     1       6.243   5.355  18.488  0.00  0.00    +0.000 A 
ATOM     24  C   UNL     1       7.468   5.654  19.088  0.00  0.00    +0.000 A 
ATOM     25  C   UNL     1       8.145   6.834  18.761  0.00  0.00    +0.000 A 
ENDBRANCH  18  23
ENDBRANCH  17  18
ENDBRANCH  16  17
ENDBRANCH  15  16
ENDBRANCH   1  15
TORSDOF 6
ENDMDL
