MODEL 1
REMARK VINA RESULT:      -6.5      0.000      0.000
REMARK  Name = 
REMARK  3 active torsions:
REMARK  status: ('A' for Active; 'I' for Inactive)
REMARK    1  A    between atoms: C_2  and  C_3
REMARK    2  A    between atoms: C_2  and  C_10
REMARK    3  A    between atoms: C_4  and  C_5
REMARK                            x       y       z     vdW  Elec       q    Type
REMARK                         _______ _______ _______ _____ _____    ______ ____
ROOT
ATOM      1  O   UNL     1       6.104   4.564  19.032  0.00  0.00    +0.000 OA
ATOM      2  C   UNL     1       5.452   4.436  18.000  0.00  0.00    +0.000 C 
ENDROOT
BRANCH   2   3
ATOM      3  C   UNL     1       4.059   3.951  18.062  0.00  0.00    +0.000 A 
ATOM      4  C   UNL     1       3.015   4.803  17.695  0.00  0.00    +0.000 A 
ATOM      5  C   UNL     1       1.702   4.350  17.774  0.00  0.00    +0.000 A 
ATOM      6  C   UNL     1       1.477   3.062  18.232  0.00  0.00    +0.000 A 
ATOM      7  N   UNL     1       2.462   2.216  18.609  0.00  0.00    +0.000 NA
ATOM      8  C   UNL     1       3.733   2.682  18.523  0.00  0.00    +0.000 A 
ENDBRANCH   2   3
BRANCH   2   9
ATOM      9  C   UNL     1       6.001   4.811  16.673  0.00  0.00    +0.000 C 
ATOM     10  C   UNL     1       5.933   3.932  15.664  0.00  0.00    +0.000 C 
BRANCH  10  11
ATOM     11  C   UNL     1       6.506   4.239  14.399  0.00  0.00    +0.000 A 
ATOM     12  C   UNL     1       6.229   3.686  13.154  0.00  0.00    +0.000 A 
ATOM     13  C   UNL     1       7.068   4.312  12.201  0.00  0.00    +0.000 A 
ATOM     14  C   UNL     1       7.820   5.218  12.903  0.00  0.00    +0.000 A 
ATOM     15  O   UNL     1       7.495   5.184  14.217  0.00  0.00    +0.000 OA
ENDBRANCH  10  11
ENDBRANCH   2   9
TORSDOF 3
ENDMDL
MODEL 2
REMARK VINA RESULT:      -6.5      2.676      6.314
REMARK  Name = 
REMARK  3 active torsions:
REMARK  status: ('A' for Active; 'I' for Inactive)
REMARK    1  A    between atoms: C_2  and  C_3
REMARK    2  A    between atoms: C_2  and  C_10
REMARK    3  A    between atoms: C_4  and  C_5
REMARK                            x       y       z     vdW  Elec       q    Type
REMARK                         _______ _______ _______ _____ _____    ______ ____
ROOT
ATOM      1  O   UNL     1       7.069   4.931  19.443  0.00  0.00    +0.000 OA
ATOM      2  C   UNL     1       6.104   4.842  18.690  0.00  0.00    +0.000 C 
ENDROOT
BRANCH   2   3
ATOM      3  C   UNL     1       6.305   4.846  17.228  0.00  0.00    +0.000 A 
ATOM      4  C   UNL     1       5.506   4.034  16.420  0.00  0.00    +0.000 A 
ATOM      5  C   UNL     1       5.712   4.024  15.043  0.00  0.00    +0.000 A 
ATOM      6  C   UNL     1       6.721   4.818  14.523  0.00  0.00    +0.000 A 
ATOM      7  N   UNL     1       7.522   5.604  15.277  0.00  0.00    +0.000 NA
ATOM      8  C   UNL     1       7.301   5.595  16.616  0.00  0.00    +0.000 A 
ENDBRANCH   2   3
BRANCH   2   9
ATOM      9  C   UNL     1       4.722   4.670  19.203  0.00  0.00    +0.000 C 
ATOM     10  C   UNL     1       4.342   3.474  19.672  0.00  0.00    +0.000 C 
BRANCH  10  11
ATOM     11  C   UNL     1       3.005   3.261  20.110  0.00  0.00    +0.000 A 
ATOM     12  C   UNL     1       1.815   3.455  19.418  0.00  0.00    +0.000 A 
ATOM     13  C   UNL     1       0.746   3.116  20.283  0.00  0.00    +0.000 A 
ATOM     14  C   UNL     1       1.328   2.732  21.463  0.00  0.00    +0.000 A 
ATOM     15  O   UNL     1       2.677   2.814  21.373  0.00  0.00    +0.000 OA
ENDBRANCH  10  11
ENDBRANCH   2   9
TORSDOF 3
ENDMDL
MODEL 3
REMARK VINA RESULT:      -6.3      2.870      6.058
REMARK  Name = 
REMARK  3 active torsions:
REMARK  status: ('A' for Active; 'I' for Inactive)
REMARK    1  A    between atoms: C_2  and  C_3
REMARK    2  A    between atoms: C_2  and  C_10
REMARK    3  A    between atoms: C_4  and  C_5
REMARK                            x       y       z     vdW  Elec       q    Type
REMARK                         _______ _______ _______ _____ _____    ______ ____
ROOT
ATOM      1  O   UNL     1       5.535   4.579  15.003  0.00  0.00    +0.000 OA
ATOM      2  C   UNL     1       5.391   4.566  16.222  0.00  0.00    +0.000 C 
ENDROOT
BRANCH   2   3
ATOM      3  C   UNL     1       6.321   5.325  17.082  0.00  0.00    +0.000 A 
ATOM      4  C   UNL     1       6.570   6.672  16.809  0.00  0.00    +0.000 A 
ATOM      5  C   UNL     1       7.462   7.380  17.609  0.00  0.00    +0.000 A 
ATOM      6  C   UNL     1       8.086   6.710  18.649  0.00  0.00    +0.000 A 
ATOM      7  N   UNL     1       7.880   5.405  18.933  0.00  0.00    +0.000 NA
ATOM      8  C   UNL     1       7.005   4.738  18.137  0.00  0.00    +0.000 A 
ENDBRANCH   2   3
BRANCH   2   9
ATOM      9  C   UNL     1       4.265   3.852  16.873  0.00  0.00    +0.000 C 
ATOM     10  C   UNL     1       3.421   4.537  17.657  0.00  0.00    +0.000 C 
BRANCH  10  11
ATOM     11  C   UNL     1       2.371   3.869  18.345  0.00  0.00    +0.000 A 
ATOM     12  C   UNL     1       1.822   4.150  19.591  0.00  0.00    +0.000 A 
ATOM     13  C   UNL     1       0.808   3.195  19.848  0.00  0.00    +0.000 A 
ATOM     14  C   UNL     1       0.784   2.373  18.751  0.00  0.00    +0.000 A 
ATOM     15  O   UNL     1       1.712   2.765  17.846  0.00  0.00    +0.000 OA
ENDBRANCH  10  11
ENDBRANCH   2   9
TORSDOF 3
ENDMDL
MODEL 4
REMARK VINA RESULT:      -6.3      2.754      6.336
REMARK  Name = 
REMARK  3 active torsions:
REMARK  status: ('A' for Active; 'I' for Inactive)
REMARK    1  A    between atoms: C_2  and  C_3
REMARK    2  A    between atoms: C_2  and  C_10
REMARK    3  A    between atoms: C_4  and  C_5
REMARK                            x       y       z     vdW  Elec       q    Type
REMARK                         _______ _______ _______ _____ _____    ______ ____
ROOT
ATOM      1  O   UNL     1       7.097   5.250  19.341  0.00  0.00    +0.000 OA
ATOM      2  C   UNL     1       6.254   4.744  18.606  0.00  0.00    +0.000 C 
ENDROOT
BRANCH   2   3
ATOM      3  C   UNL     1       6.444   4.761  17.142  0.00  0.00    +0.000 A 
ATOM      4  C   UNL     1       5.772   3.829  16.348  0.00  0.00    +0.000 A 
ATOM      5  C   UNL     1       5.969   3.835  14.970  0.00  0.00    +0.000 A 
ATOM      6  C   UNL     1       6.844   4.766  14.435  0.00  0.00    +0.000 A 
ATOM      7  N   UNL     1       7.522   5.672  15.175  0.00  0.00    +0.000 NA
ATOM      8  C   UNL     1       7.312   5.645  16.516  0.00  0.00    +0.000 A 
ENDBRANCH   2   3
BRANCH   2   9
ATOM      9  C   UNL     1       5.058   4.050  19.145  0.00  0.00    +0.000 C 
ATOM     10  C   UNL     1       3.956   4.761  19.420  0.00  0.00    +0.000 C 
BRANCH  10  11
ATOM     11  C   UNL     1       2.817   4.135  19.996  0.00  0.00    +0.000 A 
ATOM     12  C   UNL     1       2.761   3.076  20.896  0.00  0.00    +0.000 A 
ATOM     13  C   UNL     1       1.397   2.804  21.165  0.00  0.00    +0.000 A 
ATOM     14  C   UNL     1       0.682   3.704  20.419  0.00  0.00    +0.000 A 
ATOM     15  O   UNL     1       1.518   4.505  19.717  0.00  0.00    +0.000 OA
ENDBRANCH  10  11
ENDBRANCH   2   9
TORSDOF 3
ENDMDL
MODEL 5
REMARK VINA RESULT:      -6.2      1.028      1.465
REMARK  Name = 
REMARK  3 active torsions:
REMARK  status: ('A' for Active; 'I' for Inactive)
REMARK    1  A    between atoms: C_2  and  C_3
REMARK    2  A    between atoms: C_2  and  C_10
REMARK    3  A    between atoms: C_4  and  C_5
REMARK                            x       y       z     vdW  Elec       q    Type
REMARK                         _______ _______ _______ _____ _____    ______ ____
ROOT
ATOM      1  O   UNL     1       4.953   5.976  18.087  0.00  0.00    +0.000 OA
ATOM      2  C   UNL     1       4.537   5.142  17.288  0.00  0.00    +0.000 C 
ENDROOT
BRANCH   2   3
ATOM      3  C   UNL     1       3.498   4.177  17.702  0.00  0.00    +0.000 A 
ATOM      4  C   UNL     1       3.843   2.841  17.914  0.00  0.00    +0.000 A 
ATOM      5  C   UNL     1       2.858   1.930  18.284  0.00  0.00    +0.000 A 
ATOM      6  C   UNL     1       1.557   2.386  18.415  0.00  0.00    +0.000 A 
ATOM      7  N   UNL     1       1.185   3.668  18.204  0.00  0.00    +0.000 NA
ATOM      8  C   UNL     1       2.165   4.536  17.844  0.00  0.00    +0.000 A 
ENDBRANCH   2   3
BRANCH   2   9
ATOM      9  C   UNL     1       5.004   5.101  15.880  0.00  0.00    +0.000 C 
ATOM     10  C   UNL     1       6.203   4.570  15.603  0.00  0.00    +0.000 C 
BRANCH  10  11
ATOM     11  C   UNL     1       6.705   4.575  14.273  0.00  0.00    +0.000 A 
ATOM     12  C   UNL     1       6.376   3.741  13.210  0.00  0.00    +0.000 A 
ATOM     13  C   UNL     1       7.152   4.132  12.091  0.00  0.00    +0.000 A 
ATOM     14  C   UNL     1       7.920   5.183  12.519  0.00  0.00    +0.000 A 
ATOM     15  O   UNL     1       7.663   5.458  13.820  0.00  0.00    +0.000 OA
ENDBRANCH  10  11
ENDBRANCH   2   9
TORSDOF 3
ENDMDL
MODEL 6
REMARK VINA RESULT:      -6.2      3.255      5.926
REMARK  Name = 
REMARK  3 active torsions:
REMARK  status: ('A' for Active; 'I' for Inactive)
REMARK    1  A    between atoms: C_2  and  C_3
REMARK    2  A    between atoms: C_2  and  C_10
REMARK    3  A    between atoms: C_4  and  C_5
REMARK                            x       y       z     vdW  Elec       q    Type
REMARK                         _______ _______ _______ _____ _____    ______ ____
ROOT
ATOM      1  O   UNL     1       5.486   3.859  19.193  0.00  0.00    +0.000 OA
ATOM      2  C   UNL     1       5.264   4.797  18.433  0.00  0.00    +0.000 C 
ENDROOT
BRANCH   2   3
ATOM      3  C   UNL     1       5.864   4.812  17.084  0.00  0.00    +0.000 A 
ATOM      4  C   UNL     1       5.396   3.926  16.111  0.00  0.00    +0.000 A 
ATOM      5  C   UNL     1       5.977   3.928  14.846  0.00  0.00    +0.000 A 
ATOM      6  C   UNL     1       7.019   4.808  14.603  0.00  0.00    +0.000 A 
ATOM      7  N   UNL     1       7.506   5.668  15.525  0.00  0.00    +0.000 NA
ATOM      8  C   UNL     1       6.922   5.646  16.750  0.00  0.00    +0.000 A 
ENDBRANCH   2   3
BRANCH   2   9
ATOM      9  C   UNL     1       4.353   5.909  18.802  0.00  0.00    +0.000 C 
ATOM     10  C   UNL     1       3.585   6.468  17.857  0.00  0.00    +0.000 C 
BRANCH  10  11
ATOM     11  C   UNL     1       2.749   7.576  18.167  0.00  0.00    +0.000 A 
ATOM     12  C   UNL     1       2.043   7.841  19.334  0.00  0.00    +0.000 A 
ATOM     13  C   UNL     1       1.348   9.062  19.158  0.00  0.00    +0.000 A 
ATOM     14  C   UNL     1       1.659   9.488  17.893  0.00  0.00    +0.000 A 
ATOM     15  O   UNL     1       2.495   8.611  17.290  0.00  0.00    +0.000 OA
ENDBRANCH  10  11
ENDBRANCH   2   9
TORSDOF 3
ENDMDL
MODEL 7
REMARK VINA RESULT:      -6.2      2.901      6.538
REMARK  Name = 
REMARK  3 active torsions:
REMARK  status: ('A' for Active; 'I' for Inactive)
REMARK    1  A    between atoms: C_2  and  C_3
REMARK    2  A    between atoms: C_2  and  C_10
REMARK    3  A    between atoms: C_4  and  C_5
REMARK                            x       y       z     vdW  Elec       q    Type
REMARK                         _______ _______ _______ _____ _____    ______ ____
ROOT
ATOM      1  O   UNL     1       3.891   7.258  17.498  0.00  0.00    +0.000 OA
ATOM      2  C   UNL     1       4.128   6.060  17.370  0.00  0.00    +0.000 C 
ENDROOT
BRANCH   2   3
ATOM      3  C   UNL     1       5.190   5.613  16.447  0.00  0.00    +0.000 A 
ATOM      4  C   UNL     1       4.954   4.532  15.596  0.00  0.00    +0.000 A 
ATOM      5  C   UNL     1       5.964   4.099  14.741  0.00  0.00    +0.000 A 
ATOM      6  C   UNL     1       7.183   4.757  14.779  0.00  0.00    +0.000 A 
ATOM      7  N   UNL     1       7.450   5.797  15.599  0.00  0.00    +0.000 NA
ATOM      8  C   UNL     1       6.449   6.198  16.423  0.00  0.00    +0.000 A 
ENDBRANCH   2   3
BRANCH   2   9
ATOM      9  C   UNL     1       3.415   5.028  18.163  0.00  0.00    +0.000 C 
ATOM     10  C   UNL     1       3.276   5.199  19.485  0.00  0.00    +0.000 C 
BRANCH  10  11
ATOM     11  C   UNL     1       2.655   4.197  20.281  0.00  0.00    +0.000 A 
ATOM     12  C   UNL     1       1.332   4.108  20.700  0.00  0.00    +0.000 A 
ATOM     13  C   UNL     1       1.200   2.935  21.483  0.00  0.00    +0.000 A 
ATOM     14  C   UNL     1       2.445   2.362  21.509  0.00  0.00    +0.000 A 
ATOM     15  O   UNL     1       3.322   3.105  20.795  0.00  0.00    +0.000 OA
ENDBRANCH  10  11
ENDBRANCH   2   9
TORSDOF 3
ENDMDL
MODEL 8
REMARK VINA RESULT:      -6.2      2.631      6.253
REMARK  Name = 
REMARK  3 active torsions:
REMARK  status: ('A' for Active; 'I' for Inactive)
REMARK    1  A    between atoms: C_2  and  C_3
REMARK    2  A    between atoms: C_2  and  C_10
REMARK    3  A    between atoms: C_4  and  C_5
REMARK                            x       y       z     vdW  Elec       q    Type
REMARK                         _______ _______ _______ _____ _____    ______ ____
ROOT
ATOM      1  O   UNL     1       7.155   5.478  19.500  0.00  0.00    +0.000 OA
ATOM      2  C   UNL     1       6.113   5.284  18.881  0.00  0.00    +0.000 C 
ENDROOT
BRANCH   2   3
ATOM      3  C   UNL     1       6.117   5.298  17.405  0.00  0.00    +0.000 A 
ATOM      4  C   UNL     1       6.962   4.430  16.710  0.00  0.00    +0.000 A 
ATOM      5  C   UNL     1       6.979   4.459  15.318  0.00  0.00    +0.000 A 
ATOM      6  C   UNL     1       6.159   5.369  14.670  0.00  0.00    +0.000 A 
ATOM      7  N   UNL     1       5.341   6.233  15.311  0.00  0.00    +0.000 NA
ATOM      8  C   UNL     1       5.343   6.184  16.667  0.00  0.00    +0.000 A 
ENDBRANCH   2   3
BRANCH   2   9
ATOM      9  C   UNL     1       4.835   4.974  19.571  0.00  0.00    +0.000 C 
ATOM     10  C   UNL     1       4.232   3.801  19.335  0.00  0.00    +0.000 C 
BRANCH  10  11
ATOM     11  C   UNL     1       2.976   3.502  19.931  0.00  0.00    +0.000 A 
ATOM     12  C   UNL     1       1.696   3.771  19.460  0.00  0.00    +0.000 A 
ATOM     13  C   UNL     1       0.768   3.291  20.415  0.00  0.00    +0.000 A 
ATOM     14  C   UNL     1       1.519   2.752  21.427  0.00  0.00    +0.000 A 
ATOM     15  O   UNL     1       2.839   2.871  21.151  0.00  0.00    +0.000 OA
ENDBRANCH  10  11
ENDBRANCH   2   9
TORSDOF 3
ENDMDL
MODEL 9
REMARK VINA RESULT:      -6.1      3.103      6.301
REMARK  Name = 
REMARK  3 active torsions:
REMARK  status: ('A' for Active; 'I' for Inactive)
REMARK    1  A    between atoms: C_2  and  C_3
REMARK    2  A    between atoms: C_2  and  C_10
REMARK    3  A    between atoms: C_4  and  C_5
REMARK                            x       y       z     vdW  Elec       q    Type
REMARK                         _______ _______ _______ _____ _____    ______ ____
ROOT
ATOM      1  O   UNL     1       5.486   4.325  15.355  0.00  0.00    +0.000 OA
ATOM      2  C   UNL     1       5.451   4.533  16.564  0.00  0.00    +0.000 C 
ENDROOT
BRANCH   2   3
ATOM      3  C   UNL     1       6.377   5.509  17.173  0.00  0.00    +0.000 A 
ATOM      4  C   UNL     1       7.076   5.166  18.333  0.00  0.00    +0.000 A 
ATOM      5  C   UNL     1       7.933   6.095  18.916  0.00  0.00    +0.000 A 
ATOM      6  C   UNL     1       8.051   7.342  18.324  0.00  0.00    +0.000 A 
ATOM      7  N   UNL     1       7.380   7.712  17.210  0.00  0.00    +0.000 NA
ATOM      8  C   UNL     1       6.550   6.788  16.662  0.00  0.00    +0.000 A 
ENDBRANCH   2   3
BRANCH   2   9
ATOM      9  C   UNL     1       4.457   3.873  17.447  0.00  0.00    +0.000 C 
ATOM     10  C   UNL     1       3.178   4.272  17.406  0.00  0.00    +0.000 C 
BRANCH  10  11
ATOM     11  C   UNL     1       2.215   3.702  18.284  0.00  0.00    +0.000 A 
ATOM     12  C   UNL     1       1.921   4.043  19.599  0.00  0.00    +0.000 A 
ATOM     13  C   UNL     1       0.894   3.180  20.055  0.00  0.00    +0.000 A 
ATOM     14  C   UNL     1       0.609   2.351  19.001  0.00  0.00    +0.000 A 
ATOM     15  O   UNL     1       1.390   2.653  17.938  0.00  0.00    +0.000 OA
ENDBRANCH  10  11
ENDBRANCH   2   9
TORSDOF 3
ENDMDL
