MODEL 1
REMARK VINA RESULT:      -9.1      0.000      0.000
REMARK  Name = 
REMARK  5 active torsions:
REMARK  status: ('A' for Active; 'I' for Inactive)
REMARK    1  A    between atoms: C_1  and  C_2
REMARK    2  A    between atoms: C_10  and  O_11
REMARK    3  A    between atoms: O_11  and  C_12
REMARK    4  A    between atoms: C_12  and  C_13
REMARK    5  A    between atoms: C_12  and  C_20
REMARK                            x       y       z     vdW  Elec       q    Type
REMARK                         _______ _______ _______ _____ _____    ______ ____
ROOT
ATOM      1  C   UNL     1       5.754   4.272  16.195  0.00  0.00    +0.000 C 
ENDROOT
BRANCH   1   2
ATOM      2  C   UNL     1       6.110   4.345  14.717  0.00  0.00    +0.000 A 
ATOM      3  C   UNL     1       7.230   5.050  14.250  0.00  0.00    +0.000 A 
ATOM      4  C   UNL     1       7.662   4.896  12.927  0.00  0.00    +0.000 A 
ATOM      5  C   UNL     1       6.965   4.063  12.063  0.00  0.00    +0.000 A 
ATOM      6  F   UNL     1       7.411   3.871  10.816  0.00  0.00    +0.000 F 
ATOM      7  C   UNL     1       5.823   3.399  12.489  0.00  0.00    +0.000 A 
ATOM      8  C   UNL     1       5.395   3.542  13.810  0.00  0.00    +0.000 A 
ENDBRANCH   1   2
BRANCH   1   9
ATOM      9  C   UNL     1       6.550   5.311  17.007  0.00  0.00    +0.000 A 
ATOM     10  C   UNL     1       6.336   6.683  16.786  0.00  0.00    +0.000 A 
ATOM     11  C   UNL     1       7.080   7.634  17.495  0.00  0.00    +0.000 A 
ATOM     12  C   UNL     1       8.016   7.239  18.428  0.00  0.00    +0.000 A 
ATOM     13  F   UNL     1       8.748   8.152  19.081  0.00  0.00    +0.000 F 
ATOM     14  C   UNL     1       8.210   5.887  18.708  0.00  0.00    +0.000 A 
ATOM     15  C   UNL     1       7.466   4.941  18.007  0.00  0.00    +0.000 A 
ENDBRANCH   1   9
BRANCH   1  16
ATOM     16  O   UNL     1       4.413   4.515  16.537  0.00  0.00    +0.000 OA
BRANCH  16  26
ATOM     17  C   UNL     1       1.368   2.695  21.500  0.00  0.00    +0.000 C 
ATOM     18  C   UNL     1       1.468   3.880  20.573  0.00  0.00    +0.000 C 
ATOM     19  O   UNL     1       0.690   4.842  20.678  0.00  0.00    +0.000 OA
ATOM     20  N   UNL     1       2.426   3.842  19.586  0.00  0.00    +0.000 N 
ATOM     21  C   UNL     1       2.715   4.987  18.728  0.00  0.00    +0.000 C 
ATOM     22  C   UNL     1       4.028   5.338  19.476  0.00  0.00    +0.000 C 
ATOM     23  C   UNL     1       4.746   4.030  19.786  0.00  0.00    +0.000 C 
ATOM     24  C   UNL     1       3.652   3.010  19.498  0.00  0.00    +0.000 C 
ATOM     25  C   UNL     1       3.879   2.484  18.039  0.00  0.00    +0.000 C 
ATOM     26  C   UNL     1       3.519   3.475  16.897  0.00  0.00    +0.000 C 
ATOM     27  C   UNL     1       2.362   4.314  17.376  0.00  0.00    +0.000 C 
ENDBRANCH  16  26
ENDBRANCH   1  16
TORSDOF 4
ENDMDL
MODEL 2
REMARK VINA RESULT:      -8.8      0.235      1.331
REMARK  Name = 
REMARK  5 active torsions:
REMARK  status: ('A' for Active; 'I' for Inactive)
REMARK    1  A    between atoms: C_1  and  C_2
REMARK    2  A    between atoms: C_10  and  O_11
REMARK    3  A    between atoms: O_11  and  C_12
REMARK    4  A    between atoms: C_12  and  C_13
REMARK    5  A    between atoms: C_12  and  C_20
REMARK                            x       y       z     vdW  Elec       q    Type
REMARK                         _______ _______ _______ _____ _____    ______ ____
ROOT
ATOM      1  C   UNL     1       5.873   4.276  16.339  0.00  0.00    +0.000 C 
ENDROOT
BRANCH   1   2
ATOM      2  C   UNL     1       6.313   4.166  14.886  0.00  0.00    +0.000 A 
ATOM      3  C   UNL     1       5.538   3.513  13.915  0.00  0.00    +0.000 A 
ATOM      4  C   UNL     1       5.852   3.639  12.557  0.00  0.00    +0.000 A 
ATOM      5  C   UNL     1       6.950   4.392  12.167  0.00  0.00    +0.000 A 
ATOM      6  F   UNL     1       7.216   4.560  10.866  0.00  0.00    +0.000 F 
ATOM      7  C   UNL     1       7.763   5.000  13.113  0.00  0.00    +0.000 A 
ATOM      8  C   UNL     1       7.448   4.885  14.468  0.00  0.00    +0.000 A 
ENDBRANCH   1   2
BRANCH   1   9
ATOM      9  C   UNL     1       6.654   5.384  17.070  0.00  0.00    +0.000 A 
ATOM     10  C   UNL     1       7.560   5.043  18.089  0.00  0.00    +0.000 A 
ATOM     11  C   UNL     1       8.248   6.045  18.783  0.00  0.00    +0.000 A 
ATOM     12  C   UNL     1       8.062   7.374  18.463  0.00  0.00    +0.000 A 
ATOM     13  F   UNL     1       8.699   8.332  19.151  0.00  0.00    +0.000 F 
ATOM     14  C   UNL     1       7.211   7.739  17.420  0.00  0.00    +0.000 A 
ATOM     15  C   UNL     1       6.531   6.741  16.727  0.00  0.00    +0.000 A 
ENDBRANCH   1   9
BRANCH   1  16
ATOM     16  O   UNL     1       4.523   4.589  16.571  0.00  0.00    +0.000 OA
BRANCH  16  26
ATOM     17  C   UNL     1       1.335   2.748  21.434  0.00  0.00    +0.000 C 
ATOM     18  C   UNL     1       1.525   3.967  20.569  0.00  0.00    +0.000 C 
ATOM     19  O   UNL     1       0.818   4.977  20.722  0.00  0.00    +0.000 OA
ATOM     20  N   UNL     1       2.480   3.910  19.581  0.00  0.00    +0.000 N 
ATOM     21  C   UNL     1       2.855   5.073  18.782  0.00  0.00    +0.000 C 
ATOM     22  C   UNL     1       4.188   5.288  19.547  0.00  0.00    +0.000 C 
ATOM     23  C   UNL     1       4.807   3.917  19.790  0.00  0.00    +0.000 C 
ATOM     24  C   UNL     1       3.643   2.996  19.451  0.00  0.00    +0.000 C 
ATOM     25  C   UNL     1       3.837   2.529  17.967  0.00  0.00    +0.000 C 
ATOM     26  C   UNL     1       3.554   3.600  16.877  0.00  0.00    +0.000 C 
ATOM     27  C   UNL     1       2.459   4.497  17.398  0.00  0.00    +0.000 C 
ENDBRANCH  16  26
ENDBRANCH   1  16
TORSDOF 4
ENDMDL
MODEL 3
REMARK VINA RESULT:      -8.5      0.791      4.406
REMARK  Name = 
REMARK  5 active torsions:
REMARK  status: ('A' for Active; 'I' for Inactive)
REMARK    1  A    between atoms: C_1  and  C_2
REMARK    2  A    between atoms: C_10  and  O_11
REMARK    3  A    between atoms: O_11  and  C_12
REMARK    4  A    between atoms: C_12  and  C_13
REMARK    5  A    between atoms: C_12  and  C_20
REMARK                            x       y       z     vdW  Elec       q    Type
REMARK                         _______ _______ _______ _____ _____    ______ ____
ROOT
ATOM      1  C   UNL     1       4.988   5.013  16.139  0.00  0.00    +0.000 C 
ENDROOT
BRANCH   1   2
ATOM      2  C   UNL     1       5.941   5.779  17.045  0.00  0.00    +0.000 A 
ATOM      3  C   UNL     1       6.884   5.133  17.860  0.00  0.00    +0.000 A 
ATOM      4  C   UNL     1       7.896   5.867  18.489  0.00  0.00    +0.000 A 
ATOM      5  C   UNL     1       7.954   7.244  18.331  0.00  0.00    +0.000 A 
ATOM      6  F   UNL     1       8.954   7.939  18.886  0.00  0.00    +0.000 F 
ATOM      7  C   UNL     1       6.999   7.910  17.575  0.00  0.00    +0.000 A 
ATOM      8  C   UNL     1       5.994   7.181  16.937  0.00  0.00    +0.000 A 
ENDBRANCH   1   2
BRANCH   1   9
ATOM      9  C   UNL     1       5.675   4.630  14.813  0.00  0.00    +0.000 A 
ATOM     10  C   UNL     1       4.999   3.816  13.887  0.00  0.00    +0.000 A 
ATOM     11  C   UNL     1       5.628   3.435  12.696  0.00  0.00    +0.000 A 
ATOM     12  C   UNL     1       6.906   3.869  12.408  0.00  0.00    +0.000 A 
ATOM     13  F   UNL     1       7.516   3.476  11.281  0.00  0.00    +0.000 F 
ATOM     14  C   UNL     1       7.579   4.722  13.282  0.00  0.00    +0.000 A 
ATOM     15  C   UNL     1       6.950   5.105  14.465  0.00  0.00    +0.000 A 
ENDBRANCH   1   9
BRANCH   1  16
ATOM     16  O   UNL     1       4.481   3.799  16.632  0.00  0.00    +0.000 OA
BRANCH  16  26
ATOM     17  C   UNL     1       1.075   2.623  21.553  0.00  0.00    +0.000 C 
ATOM     18  C   UNL     1       2.022   3.669  21.025  0.00  0.00    +0.000 C 
ATOM     19  O   UNL     1       2.212   4.730  21.642  0.00  0.00    +0.000 OA
ATOM     20  N   UNL     1       2.640   3.425  19.821  0.00  0.00    +0.000 N 
ATOM     21  C   UNL     1       3.685   4.291  19.283  0.00  0.00    +0.000 C 
ATOM     22  C   UNL     1       4.824   3.303  19.648  0.00  0.00    +0.000 C 
ATOM     23  C   UNL     1       4.336   1.896  19.326  0.00  0.00    +0.000 C 
ATOM     24  C   UNL     1       2.847   2.135  19.115  0.00  0.00    +0.000 C 
ATOM     25  C   UNL     1       2.614   2.285  17.573  0.00  0.00    +0.000 C 
ATOM     26  C   UNL     1       3.109   3.616  16.939  0.00  0.00    +0.000 C 
ATOM     27  C   UNL     1       2.953   4.697  17.977  0.00  0.00    +0.000 C 
ENDBRANCH  16  26
ENDBRANCH   1  16
TORSDOF 4
ENDMDL
MODEL 4
REMARK VINA RESULT:      -8.3      0.744      4.513
REMARK  Name = 
REMARK  5 active torsions:
REMARK  status: ('A' for Active; 'I' for Inactive)
REMARK    1  A    between atoms: C_1  and  C_2
REMARK    2  A    between atoms: C_10  and  O_11
REMARK    3  A    between atoms: O_11  and  C_12
REMARK    4  A    between atoms: C_12  and  C_13
REMARK    5  A    between atoms: C_12  and  C_20
REMARK                            x       y       z     vdW  Elec       q    Type
REMARK                         _______ _______ _______ _____ _____    ______ ____
ROOT
ATOM      1  C   UNL     1       5.267   5.065  15.970  0.00  0.00    +0.000 C 
ENDROOT
BRANCH   1   2
ATOM      2  C   UNL     1       6.358   5.801  16.736  0.00  0.00    +0.000 A 
ATOM      3  C   UNL     1       6.508   7.195  16.672  0.00  0.00    +0.000 A 
ATOM      4  C   UNL     1       7.356   7.857  17.567  0.00  0.00    +0.000 A 
ATOM      5  C   UNL     1       8.074   7.130  18.507  0.00  0.00    +0.000 A 
ATOM      6  F   UNL     1       8.840   7.767  19.401  0.00  0.00    +0.000 F 
ATOM      7  C   UNL     1       7.982   5.746  18.552  0.00  0.00    +0.000 A 
ATOM      8  C   UNL     1       7.130   5.083  17.666  0.00  0.00    +0.000 A 
ENDBRANCH   1   2
BRANCH   1   9
ATOM      9  C   UNL     1       5.792   4.554  14.615  0.00  0.00    +0.000 A 
ATOM     10  C   UNL     1       7.085   4.906  14.190  0.00  0.00    +0.000 A 
ATOM     11  C   UNL     1       7.558   4.475  12.944  0.00  0.00    +0.000 A 
ATOM     12  C   UNL     1       6.771   3.686  12.130  0.00  0.00    +0.000 A 
ATOM     13  F   UNL     1       7.216   3.302  10.926  0.00  0.00    +0.000 F 
ATOM     14  C   UNL     1       5.506   3.276  12.550  0.00  0.00    +0.000 A 
ATOM     15  C   UNL     1       5.039   3.701  13.791  0.00  0.00    +0.000 A 
ENDBRANCH   1   9
BRANCH   1  16
ATOM     16  O   UNL     1       4.718   3.927  16.583  0.00  0.00    +0.000 OA
BRANCH  16  26
ATOM     17  C   UNL     1       1.052   2.819  21.331  0.00  0.00    +0.000 C 
ATOM     18  C   UNL     1       2.057   3.837  20.858  0.00  0.00    +0.000 C 
ATOM     19  O   UNL     1       2.255   4.885  21.495  0.00  0.00    +0.000 OA
ATOM     20  N   UNL     1       2.721   3.584  19.680  0.00  0.00    +0.000 N 
ATOM     21  C   UNL     1       3.818   4.420  19.201  0.00  0.00    +0.000 C 
ATOM     22  C   UNL     1       4.906   3.389  19.606  0.00  0.00    +0.000 C 
ATOM     23  C   UNL     1       4.385   2.003  19.245  0.00  0.00    +0.000 C 
ATOM     24  C   UNL     1       2.917   2.295  18.970  0.00  0.00    +0.000 C 
ATOM     25  C   UNL     1       2.760   2.469  17.420  0.00  0.00    +0.000 C 
ATOM     26  C   UNL     1       3.328   3.787  16.825  0.00  0.00    +0.000 C 
ATOM     27  C   UNL     1       3.161   4.863  17.868  0.00  0.00    +0.000 C 
ENDBRANCH  16  26
ENDBRANCH   1  16
TORSDOF 4
ENDMDL
MODEL 5
REMARK VINA RESULT:      -8.2      1.219      4.764
REMARK  Name = 
REMARK  5 active torsions:
REMARK  status: ('A' for Active; 'I' for Inactive)
REMARK    1  A    between atoms: C_1  and  C_2
REMARK    2  A    between atoms: C_10  and  O_11
REMARK    3  A    between atoms: O_11  and  C_12
REMARK    4  A    between atoms: C_12  and  C_13
REMARK    5  A    between atoms: C_12  and  C_20
REMARK                            x       y       z     vdW  Elec       q    Type
REMARK                         _______ _______ _______ _____ _____    ______ ____
ROOT
ATOM      1  C   UNL     1       5.321   6.167  16.346  0.00  0.00    +0.000 C 
ENDROOT
BRANCH   1   2
ATOM      2  C   UNL     1       6.505   6.858  17.009  0.00  0.00    +0.000 A 
ATOM      3  C   UNL     1       6.746   8.234  16.865  0.00  0.00    +0.000 A 
ATOM      4  C   UNL     1       7.691   8.874  17.675  0.00  0.00    +0.000 A 
ATOM      5  C   UNL     1       8.413   8.143  18.608  0.00  0.00    +0.000 A 
ATOM      6  F   UNL     1       9.274   8.765  19.422  0.00  0.00    +0.000 F 
ATOM      7  C   UNL     1       8.230   6.773  18.728  0.00  0.00    +0.000 A 
ATOM      8  C   UNL     1       7.282   6.132  17.929  0.00  0.00    +0.000 A 
ENDBRANCH   1   2
BRANCH   1   9
ATOM      9  C   UNL     1       5.777   5.334  15.133  0.00  0.00    +0.000 A 
ATOM     10  C   UNL     1       7.072   5.507  14.614  0.00  0.00    +0.000 A 
ATOM     11  C   UNL     1       7.482   4.779  13.490  0.00  0.00    +0.000 A 
ATOM     12  C   UNL     1       6.632   3.872  12.894  0.00  0.00    +0.000 A 
ATOM     13  F   UNL     1       7.018   3.200  11.800  0.00  0.00    +0.000 F 
ATOM     14  C   UNL     1       5.362   3.638  13.420  0.00  0.00    +0.000 A 
ATOM     15  C   UNL     1       4.956   4.359  14.541  0.00  0.00    +0.000 A 
ENDBRANCH   1   9
BRANCH   1  16
ATOM     16  O   UNL     1       4.590   5.265  17.135  0.00  0.00    +0.000 OA
BRANCH  16  26
ATOM     17  C   UNL     1       1.151   2.694  21.468  0.00  0.00    +0.000 C 
ATOM     18  C   UNL     1       2.588   2.757  21.016  0.00  0.00    +0.000 C 
ATOM     19  O   UNL     1       3.492   2.230  21.684  0.00  0.00    +0.000 OA
ATOM     20  N   UNL     1       2.866   3.447  19.860  0.00  0.00    +0.000 N 
ATOM     21  C   UNL     1       4.191   3.452  19.247  0.00  0.00    +0.000 C 
ATOM     22  C   UNL     1       3.779   2.467  18.122  0.00  0.00    +0.000 C 
ATOM     23  C   UNL     1       2.385   2.863  17.650  0.00  0.00    +0.000 C 
ATOM     24  C   UNL     1       1.957   3.826  18.749  0.00  0.00    +0.000 C 
ATOM     25  C   UNL     1       2.256   5.277  18.237  0.00  0.00    +0.000 C 
ATOM     26  C   UNL     1       3.754   5.687  18.200  0.00  0.00    +0.000 C 
ATOM     27  C   UNL     1       4.446   4.979  19.337  0.00  0.00    +0.000 C 
ENDBRANCH  16  26
ENDBRANCH   1  16
TORSDOF 4
ENDMDL
MODEL 6
REMARK VINA RESULT:      -8.1      3.613      7.039
REMARK  Name = 
REMARK  5 active torsions:
REMARK  status: ('A' for Active; 'I' for Inactive)
REMARK    1  A    between atoms: C_1  and  C_2
REMARK    2  A    between atoms: C_10  and  O_11
REMARK    3  A    between atoms: O_11  and  C_12
REMARK    4  A    between atoms: C_12  and  C_13
REMARK    5  A    between atoms: C_12  and  C_20
REMARK                            x       y       z     vdW  Elec       q    Type
REMARK                         _______ _______ _______ _____ _____    ______ ____
ROOT
ATOM      1  C   UNL     1       3.093   5.952  18.293  0.00  0.00    +0.000 C 
ENDROOT
BRANCH   1   2
ATOM      2  C   UNL     1       2.685   4.744  19.125  0.00  0.00    +0.000 A 
ATOM      3  C   UNL     1       3.590   4.066  19.957  0.00  0.00    +0.000 A 
ATOM      4  C   UNL     1       3.130   3.122  20.882  0.00  0.00    +0.000 A 
ATOM      5  C   UNL     1       1.775   2.834  20.962  0.00  0.00    +0.000 A 
ATOM      6  F   UNL     1       1.328   1.974  21.886  0.00  0.00    +0.000 F 
ATOM      7  C   UNL     1       0.869   3.451  20.111  0.00  0.00    +0.000 A 
ATOM      8  C   UNL     1       1.323   4.401  19.193  0.00  0.00    +0.000 A 
ENDBRANCH   1   2
BRANCH   1   9
ATOM      9  C   UNL     1       2.369   7.224  18.774  0.00  0.00    +0.000 A 
ATOM     10  C   UNL     1       2.078   7.387  20.140  0.00  0.00    +0.000 A 
ATOM     11  C   UNL     1       1.389   8.523  20.581  0.00  0.00    +0.000 A 
ATOM     12  C   UNL     1       1.007   9.502  19.687  0.00  0.00    +0.000 A 
ATOM     13  F   UNL     1       0.320  10.573  20.109  0.00  0.00    +0.000 F 
ATOM     14  C   UNL     1       1.330   9.394  18.335  0.00  0.00    +0.000 A 
ATOM     15  C   UNL     1       2.020   8.265  17.898  0.00  0.00    +0.000 A 
ENDBRANCH   1   9
BRANCH   1  16
ATOM     16  O   UNL     1       4.454   6.299  18.304  0.00  0.00    +0.000 OA
BRANCH  16  26
ATOM     17  C   UNL     1       8.105   5.093  13.570  0.00  0.00    +0.000 C 
ATOM     18  C   UNL     1       6.741   4.734  14.099  0.00  0.00    +0.000 C 
ATOM     19  O   UNL     1       5.957   4.040  13.431  0.00  0.00    +0.000 OA
ATOM     20  N   UNL     1       6.380   5.231  15.330  0.00  0.00    +0.000 N 
ATOM     21  C   UNL     1       5.150   4.832  16.009  0.00  0.00    +0.000 C 
ATOM     22  C   UNL     1       5.890   3.907  17.010  0.00  0.00    +0.000 C 
ATOM     23  C   UNL     1       7.164   4.622  17.445  0.00  0.00    +0.000 C 
ATOM     24  C   UNL     1       7.241   5.748  16.424  0.00  0.00    +0.000 C 
ATOM     25  C   UNL     1       6.613   7.022  17.088  0.00  0.00    +0.000 C 
ATOM     26  C   UNL     1       5.066   7.013  17.243  0.00  0.00    +0.000 C 
ATOM     27  C   UNL     1       4.500   6.239  16.081  0.00  0.00    +0.000 C 
ENDBRANCH  16  26
ENDBRANCH   1  16
TORSDOF 4
ENDMDL
MODEL 7
REMARK VINA RESULT:      -8.1      0.960      1.333
REMARK  Name = 
REMARK  5 active torsions:
REMARK  status: ('A' for Active; 'I' for Inactive)
REMARK    1  A    between atoms: C_1  and  C_2
REMARK    2  A    between atoms: C_10  and  O_11
REMARK    3  A    between atoms: O_11  and  C_12
REMARK    4  A    between atoms: C_12  and  C_13
REMARK    5  A    between atoms: C_12  and  C_20
REMARK                            x       y       z     vdW  Elec       q    Type
REMARK                         _______ _______ _______ _____ _____    ______ ____
ROOT
ATOM      1  C   UNL     1       6.574   4.327  16.538  0.00  0.00    +0.000 C 
ENDROOT
BRANCH   1   2
ATOM      2  C   UNL     1       6.643   4.496  15.027  0.00  0.00    +0.000 A 
ATOM      3  C   UNL     1       7.656   5.240  14.402  0.00  0.00    +0.000 A 
ATOM      4  C   UNL     1       7.828   5.174  13.014  0.00  0.00    +0.000 A 
ATOM      5  C   UNL     1       6.977   4.391  12.247  0.00  0.00    +0.000 A 
ATOM      6  F   UNL     1       7.177   4.282  10.928  0.00  0.00    +0.000 F 
ATOM      7  C   UNL     1       5.935   3.691  12.838  0.00  0.00    +0.000 A 
ATOM      8  C   UNL     1       5.766   3.746  14.224  0.00  0.00    +0.000 A 
ENDBRANCH   1   2
BRANCH   1   9
ATOM      9  C   UNL     1       7.143   5.564  17.259  0.00  0.00    +0.000 A 
ATOM     10  C   UNL     1       6.957   6.842  16.704  0.00  0.00    +0.000 A 
ATOM     11  C   UNL     1       7.501   7.968  17.334  0.00  0.00    +0.000 A 
ATOM     12  C   UNL     1       8.205   7.841  18.513  0.00  0.00    +0.000 A 
ATOM     13  F   UNL     1       8.750   8.917  19.096  0.00  0.00    +0.000 F 
ATOM     14  C   UNL     1       8.358   6.592  19.116  0.00  0.00    +0.000 A 
ATOM     15  C   UNL     1       7.812   5.473  18.491  0.00  0.00    +0.000 A 
ENDBRANCH   1   9
BRANCH   1  16
ATOM     16  O   UNL     1       5.299   4.152  17.100  0.00  0.00    +0.000 OA
BRANCH  16  26
ATOM     17  C   UNL     1       0.833   2.989  21.089  0.00  0.00    +0.000 C 
ATOM     18  C   UNL     1       1.084   2.996  19.603  0.00  0.00    +0.000 C 
ATOM     19  O   UNL     1       0.226   2.582  18.807  0.00  0.00    +0.000 OA
ATOM     20  N   UNL     1       2.309   3.442  19.162  0.00  0.00    +0.000 N 
ATOM     21  C   UNL     1       2.612   3.634  17.747  0.00  0.00    +0.000 C 
ATOM     22  C   UNL     1       2.494   5.179  17.834  0.00  0.00    +0.000 C 
ATOM     23  C   UNL     1       3.154   5.620  19.135  0.00  0.00    +0.000 C 
ATOM     24  C   UNL     1       3.307   4.290  19.860  0.00  0.00    +0.000 C 
ATOM     25  C   UNL     1       4.767   3.784  19.599  0.00  0.00    +0.000 C 
ATOM     26  C   UNL     1       5.053   3.251  18.167  0.00  0.00    +0.000 C 
ATOM     27  C   UNL     1       3.783   2.621  17.657  0.00  0.00    +0.000 C 
ENDBRANCH  16  26
ENDBRANCH   1  16
TORSDOF 4
ENDMDL
MODEL 8
REMARK VINA RESULT:      -7.9      3.616      6.741
REMARK  Name = 
REMARK  5 active torsions:
REMARK  status: ('A' for Active; 'I' for Inactive)
REMARK    1  A    between atoms: C_1  and  C_2
REMARK    2  A    between atoms: C_10  and  O_11
REMARK    3  A    between atoms: O_11  and  C_12
REMARK    4  A    between atoms: C_12  and  C_13
REMARK    5  A    between atoms: C_12  and  C_20
REMARK                            x       y       z     vdW  Elec       q    Type
REMARK                         _______ _______ _______ _____ _____    ______ ____
ROOT
ATOM      1  C   UNL     1       3.051   6.238  18.008  0.00  0.00    +0.000 C 
ENDROOT
BRANCH   1   2
ATOM      2  C   UNL     1       2.543   4.926  18.590  0.00  0.00    +0.000 A 
ATOM      3  C   UNL     1       1.468   4.222  18.024  0.00  0.00    +0.000 A 
ATOM      4  C   UNL     1       1.186   2.913  18.433  0.00  0.00    +0.000 A 
ATOM      5  C   UNL     1       1.956   2.315  19.421  0.00  0.00    +0.000 A 
ATOM      6  F   UNL     1       1.723   1.045  19.771  0.00  0.00    +0.000 F 
ATOM      7  C   UNL     1       2.988   3.012  20.032  0.00  0.00    +0.000 A 
ATOM      8  C   UNL     1       3.279   4.315  19.621  0.00  0.00    +0.000 A 
ENDBRANCH   1   2
BRANCH   1   9
ATOM      9  C   UNL     1       2.330   7.441  18.645  0.00  0.00    +0.000 A 
ATOM     10  C   UNL     1       1.944   8.528  17.842  0.00  0.00    +0.000 A 
ATOM     11  C   UNL     1       1.318   9.640  18.418  0.00  0.00    +0.000 A 
ATOM     12  C   UNL     1       1.057   9.675  19.772  0.00  0.00    +0.000 A 
ATOM     13  F   UNL     1       0.487  10.755  20.324  0.00  0.00    +0.000 F 
ATOM     14  C   UNL     1       1.378   8.588  20.584  0.00  0.00    +0.000 A 
ATOM     15  C   UNL     1       1.995   7.479  20.009  0.00  0.00    +0.000 A 
ENDBRANCH   1   9
BRANCH   1  16
ATOM     16  O   UNL     1       4.417   6.520  18.177  0.00  0.00    +0.000 OA
BRANCH  16  26
ATOM     17  C   UNL     1       8.279   5.060  13.688  0.00  0.00    +0.000 C 
ATOM     18  C   UNL     1       6.847   4.837  14.100  0.00  0.00    +0.000 C 
ATOM     19  O   UNL     1       6.049   4.252  13.350  0.00  0.00    +0.000 OA
ATOM     20  N   UNL     1       6.446   5.334  15.318  0.00  0.00    +0.000 N 
ATOM     21  C   UNL     1       5.131   5.053  15.888  0.00  0.00    +0.000 C 
ATOM     22  C   UNL     1       5.687   4.024  16.907  0.00  0.00    +0.000 C 
ATOM     23  C   UNL     1       6.992   4.583  17.462  0.00  0.00    +0.000 C 
ATOM     24  C   UNL     1       7.268   5.723  16.491  0.00  0.00    +0.000 C 
ATOM     25  C   UNL     1       6.730   7.037  17.154  0.00  0.00    +0.000 C 
ATOM     26  C   UNL     1       5.183   7.193  17.192  0.00  0.00    +0.000 C 
ATOM     27  C   UNL     1       4.631   6.519  15.963  0.00  0.00    +0.000 C 
ENDBRANCH  16  26
ENDBRANCH   1  16
TORSDOF 4
ENDMDL
MODEL 9
REMARK VINA RESULT:      -7.9      1.170      2.282
REMARK  Name = 
REMARK  5 active torsions:
REMARK  status: ('A' for Active; 'I' for Inactive)
REMARK    1  A    between atoms: C_1  and  C_2
REMARK    2  A    between atoms: C_10  and  O_11
REMARK    3  A    between atoms: O_11  and  C_12
REMARK    4  A    between atoms: C_12  and  C_13
REMARK    5  A    between atoms: C_12  and  C_20
REMARK                            x       y       z     vdW  Elec       q    Type
REMARK                         _______ _______ _______ _____ _____    ______ ____
ROOT
ATOM      1  C   UNL     1       5.814   4.914  16.943  0.00  0.00    +0.000 C 
ENDROOT
BRANCH   1   2
ATOM      2  C   UNL     1       6.216   4.529  15.526  0.00  0.00    +0.000 A 
ATOM      3  C   UNL     1       5.359   3.819  14.670  0.00  0.00    +0.000 A 
ATOM      4  C   UNL     1       5.662   3.696  13.309  0.00  0.00    +0.000 A 
ATOM      5  C   UNL     1       6.827   4.255  12.805  0.00  0.00    +0.000 A 
ATOM      6  F   UNL     1       7.088   4.187  11.494  0.00  0.00    +0.000 F 
ATOM      7  C   UNL     1       7.716   4.914  13.643  0.00  0.00    +0.000 A 
ATOM      8  C   UNL     1       7.413   5.048  15.000  0.00  0.00    +0.000 A 
ENDBRANCH   1   2
BRANCH   1   9
ATOM      9  C   UNL     1       6.702   6.052  17.480  0.00  0.00    +0.000 A 
ATOM     10  C   UNL     1       7.636   5.788  18.497  0.00  0.00    +0.000 A 
ATOM     11  C   UNL     1       8.423   6.824  19.015  0.00  0.00    +0.000 A 
ATOM     12  C   UNL     1       8.307   8.107  18.522  0.00  0.00    +0.000 A 
ATOM     13  F   UNL     1       9.040   9.101  19.042  0.00  0.00    +0.000 F 
ATOM     14  C   UNL     1       7.429   8.387  17.475  0.00  0.00    +0.000 A 
ATOM     15  C   UNL     1       6.650   7.355  16.956  0.00  0.00    +0.000 A 
ENDBRANCH   1   9
BRANCH   1  16
ATOM     16  O   UNL     1       4.501   5.379  17.126  0.00  0.00    +0.000 OA
BRANCH  16  26
ATOM     17  C   UNL     1       1.387   2.952  21.776  0.00  0.00    +0.000 C 
ATOM     18  C   UNL     1       2.685   2.770  21.032  0.00  0.00    +0.000 C 
ATOM     19  O   UNL     1       3.536   1.953  21.420  0.00  0.00    +0.000 OA
ATOM     20  N   UNL     1       2.910   3.563  19.931  0.00  0.00    +0.000 N 
ATOM     21  C   UNL     1       4.057   3.375  19.048  0.00  0.00    +0.000 C 
ATOM     22  C   UNL     1       3.211   2.706  17.933  0.00  0.00    +0.000 C 
ATOM     23  C   UNL     1       1.899   3.473  17.827  0.00  0.00    +0.000 C 
ATOM     24  C   UNL     1       1.936   4.311  19.097  0.00  0.00    +0.000 C 
ATOM     25  C   UNL     1       2.489   5.725  18.706  0.00  0.00    +0.000 C 
ATOM     26  C   UNL     1       4.009   5.794  18.390  0.00  0.00    +0.000 C 
ATOM     27  C   UNL     1       4.698   4.772  19.258  0.00  0.00    +0.000 C 
ENDBRANCH  16  26
ENDBRANCH   1  16
TORSDOF 4
ENDMDL
