MODEL 1
REMARK VINA RESULT:      -9.3      0.000      0.000
REMARK  Name = 
REMARK  3 active torsions:
REMARK  status: ('A' for Active; 'I' for Inactive)
REMARK    1  A    between atoms: C_7  and  C_8
REMARK    2  A    between atoms: C_13  and  C_14
REMARK    3  A    between atoms: C_20  and  C_21
REMARK                            x       y       z     vdW  Elec       q    Type
REMARK                         _______ _______ _______ _____ _____    ______ ____
ROOT
ATOM      1  N   UNL     1       0.698   4.008  20.370  0.00  0.00    +0.000 N 
ATOM      2  C   UNL     1       1.510   3.573  19.367  0.00  0.00    +0.000 A 
ATOM      3  N   UNL     1       1.515   2.283  19.192  0.00  0.00    +0.000 NA
ATOM      4  C   UNL     1       2.347   1.730  18.253  0.00  0.00    +0.000 A 
ATOM      5  N   UNL     1       3.187   2.361  17.499  0.00  0.00    +0.000 NA
ATOM      6  N   UNL     1       3.175   3.698  17.674  0.00  0.00    +0.000 N 
ATOM      7  C   UNL     1       4.045   4.595  17.104  0.00  0.00    +0.000 A 
ATOM      8  N   UNL     1       3.740   5.824  17.473  0.00  0.00    +0.000 NA
ATOM      9  C   UNL     1       2.665   5.716  18.366  0.00  0.00    +0.000 A 
ATOM     10  C   UNL     1       2.347   4.376  18.536  0.00  0.00    +0.000 A 
ATOM     11  H   UNL     1       0.027   3.313  20.675  0.00  0.00    +0.000 HD
ATOM     12  H   UNL     1       0.336   4.945  20.341  0.00  0.00    +0.000 HD
ENDROOT
BRANCH   9  13
ATOM     13  C   UNL     1       2.236   6.890  19.145  0.00  0.00    +0.000 A 
ATOM     14  C   UNL     1       1.817   6.620  20.449  0.00  0.00    +0.000 A 
ATOM     15  C   UNL     1       1.229   7.607  21.222  0.00  0.00    +0.000 A 
ATOM     16  C   UNL     1       1.037   8.889  20.702  0.00  0.00    +0.000 A 
ATOM     17  C   UNL     1       0.293   9.789  21.450  0.00  0.00    +0.000 A 
ATOM     18  C   UNL     1       0.081  11.067  20.974  0.00  0.00    +0.000 A 
ATOM     19  C   UNL     1       0.680  11.473  19.785  0.00  0.00    +0.000 A 
ATOM     20  N   UNL     1       1.383  10.579  19.008  0.00  0.00    +0.000 NA
ATOM     21  C   UNL     1       1.546   9.277  19.445  0.00  0.00    +0.000 A 
ATOM     22  C   UNL     1       2.176   8.237  18.701  0.00  0.00    +0.000 A 
BRANCH  19  23
ATOM     23  C   UNL     1       0.546  12.909  19.379  0.00  0.00    +0.000 A 
ATOM     24  C   UNL     1       1.664  13.622  18.866  0.00  0.00    +0.000 A 
ATOM     25  C   UNL     1       1.628  14.993  18.577  0.00  0.00    +0.000 A 
ATOM     26  C   UNL     1       0.452  15.699  18.768  0.00  0.00    +0.000 A 
ATOM     27  C   UNL     1      -0.677  15.028  19.236  0.00  0.00    +0.000 A 
ATOM     28  C   UNL     1      -0.634  13.651  19.535  0.00  0.00    +0.000 A 
ENDBRANCH  19  23
ENDBRANCH   9  13
BRANCH   7  29
ATOM     29  C   UNL     1       5.235   4.170  16.231  0.00  0.00    +0.000 C 
ATOM     30  C   UNL     1       5.608   5.107  15.049  0.00  0.00    +0.000 C 
ATOM     31  C   UNL     1       7.090   4.842  15.382  0.00  0.00    +0.000 C 
ATOM     32  C   UNL     1       6.626   4.568  16.824  0.00  0.00    +0.000 C 
ENDBRANCH   7  29
TORSDOF 3
ENDMDL
MODEL 2
REMARK VINA RESULT:      -9.2      2.223      9.475
REMARK  Name = 
REMARK  3 active torsions:
REMARK  status: ('A' for Active; 'I' for Inactive)
REMARK    1  A    between atoms: C_7  and  C_8
REMARK    2  A    between atoms: C_13  and  C_14
REMARK    3  A    between atoms: C_20  and  C_21
REMARK                            x       y       z     vdW  Elec       q    Type
REMARK                         _______ _______ _______ _____ _____    ______ ____
ROOT
ATOM      1  N   UNL     1       2.641  11.949  17.870  0.00  0.00    +0.000 N 
ATOM      2  C   UNL     1       1.668  12.708  18.445  0.00  0.00    +0.000 A 
ATOM      3  N   UNL     1       1.739  13.980  18.176  0.00  0.00    +0.000 NA
ATOM      4  C   UNL     1       0.849  14.846  18.756  0.00  0.00    +0.000 A 
ATOM      5  N   UNL     1      -0.085  14.545  19.598  0.00  0.00    +0.000 NA
ATOM      6  N   UNL     1      -0.165  13.226  19.870  0.00  0.00    +0.000 N 
ATOM      7  C   UNL     1      -0.972  12.645  20.817  0.00  0.00    +0.000 A 
ATOM      8  N   UNL     1      -0.815  11.334  20.807  0.00  0.00    +0.000 NA
ATOM      9  C   UNL     1       0.177  11.060  19.857  0.00  0.00    +0.000 A 
ATOM     10  C   UNL     1       0.626  12.252  19.308  0.00  0.00    +0.000 A 
ATOM     11  H   UNL     1       3.132  12.423  17.122  0.00  0.00    +0.000 HD
ATOM     12  H   UNL     1       2.469  10.974  17.698  0.00  0.00    +0.000 HD
ENDROOT
BRANCH   9  13
ATOM     13  C   UNL     1       0.757   9.709  19.769  0.00  0.00    +0.000 A 
ATOM     14  C   UNL     1       0.598   8.916  20.907  0.00  0.00    +0.000 A 
ATOM     15  C   UNL     1       1.246   7.696  21.015  0.00  0.00    +0.000 A 
ATOM     16  C   UNL     1       2.077   7.245  19.988  0.00  0.00    +0.000 A 
ATOM     17  C   UNL     1       2.833   6.105  20.217  0.00  0.00    +0.000 A 
ATOM     18  C   UNL     1       3.666   5.623  19.228  0.00  0.00    +0.000 A 
ATOM     19  C   UNL     1       3.686   6.237  17.978  0.00  0.00    +0.000 A 
ATOM     20  N   UNL     1       2.978   7.396  17.749  0.00  0.00    +0.000 NA
ATOM     21  C   UNL     1       2.190   7.923  18.756  0.00  0.00    +0.000 A 
ATOM     22  C   UNL     1       1.477   9.154  18.677  0.00  0.00    +0.000 A 
BRANCH  19  23
ATOM     23  C   UNL     1       4.492   5.597  16.889  0.00  0.00    +0.000 A 
ATOM     24  C   UNL     1       4.682   4.188  16.863  0.00  0.00    +0.000 A 
ATOM     25  C   UNL     1       5.516   3.547  15.938  0.00  0.00    +0.000 A 
ATOM     26  C   UNL     1       6.174   4.298  14.978  0.00  0.00    +0.000 A 
ATOM     27  C   UNL     1       5.986   5.680  14.947  0.00  0.00    +0.000 A 
ATOM     28  C   UNL     1       5.153   6.322  15.887  0.00  0.00    +0.000 A 
ENDBRANCH  19  23
ENDBRANCH   9  13
BRANCH   7  29
ATOM     29  C   UNL     1      -1.855  13.453  21.777  0.00  0.00    +0.000 C 
ATOM     30  C   UNL     1      -3.133  12.753  22.315  0.00  0.00    +0.000 C 
ATOM     31  C   UNL     1      -2.844  13.402  23.684  0.00  0.00    +0.000 C 
ATOM     32  C   UNL     1      -1.363  13.423  23.262  0.00  0.00    +0.000 C 
ENDBRANCH   7  29
TORSDOF 3
ENDMDL
MODEL 3
REMARK VINA RESULT:      -8.7      2.325      9.643
REMARK  Name = 
REMARK  3 active torsions:
REMARK  status: ('A' for Active; 'I' for Inactive)
REMARK    1  A    between atoms: C_7  and  C_8
REMARK    2  A    between atoms: C_13  and  C_14
REMARK    3  A    between atoms: C_20  and  C_21
REMARK                            x       y       z     vdW  Elec       q    Type
REMARK                         _______ _______ _______ _____ _____    ______ ____
ROOT
ATOM      1  N   UNL     1       2.584  12.566  18.579  0.00  0.00    +0.000 N 
ATOM      2  C   UNL     1       1.475  13.314  18.831  0.00  0.00    +0.000 A 
ATOM      3  N   UNL     1       1.626  14.593  18.640  0.00  0.00    +0.000 NA
ATOM      4  C   UNL     1       0.593  15.447  18.928  0.00  0.00    +0.000 A 
ATOM      5  N   UNL     1      -0.562  15.127  19.412  0.00  0.00    +0.000 NA
ATOM      6  N   UNL     1      -0.721  13.802  19.602  0.00  0.00    +0.000 N 
ATOM      7  C   UNL     1      -1.790  13.197  20.217  0.00  0.00    +0.000 A 
ATOM      8  N   UNL     1      -1.636  11.887  20.218  0.00  0.00    +0.000 NA
ATOM      9  C   UNL     1      -0.388  11.634  19.632  0.00  0.00    +0.000 A 
ATOM     10  C   UNL     1       0.211  12.840  19.296  0.00  0.00    +0.000 A 
ATOM     11  H   UNL     1       3.290  13.059  18.046  0.00  0.00    +0.000 HD
ATOM     12  H   UNL     1       2.480  11.597  18.329  0.00  0.00    +0.000 HD
ENDROOT
BRANCH   9  13
ATOM     13  C   UNL     1       0.193  10.282  19.694  0.00  0.00    +0.000 A 
ATOM     14  C   UNL     1      -0.012   9.599  20.894  0.00  0.00    +0.000 A 
ATOM     15  C   UNL     1       0.629   8.396  21.141  0.00  0.00    +0.000 A 
ATOM     16  C   UNL     1       1.499   7.853  20.194  0.00  0.00    +0.000 A 
ATOM     17  C   UNL     1       2.243   6.740  20.558  0.00  0.00    +0.000 A 
ATOM     18  C   UNL     1       3.114   6.170  19.652  0.00  0.00    +0.000 A 
ATOM     19  C   UNL     1       3.185   6.664  18.352  0.00  0.00    +0.000 A 
ATOM     20  N   UNL     1       2.488   7.795  17.988  0.00  0.00    +0.000 NA
ATOM     21  C   UNL     1       1.661   8.412  18.910  0.00  0.00    +0.000 A 
ATOM     22  C   UNL     1       0.954   9.629  18.688  0.00  0.00    +0.000 A 
BRANCH  19  23
ATOM     23  C   UNL     1       4.031   5.926  17.360  0.00  0.00    +0.000 A 
ATOM     24  C   UNL     1       4.790   6.636  16.390  0.00  0.00    +0.000 A 
ATOM     25  C   UNL     1       5.509   6.001  15.369  0.00  0.00    +0.000 A 
ATOM     26  C   UNL     1       5.516   4.618  15.299  0.00  0.00    +0.000 A 
ATOM     27  C   UNL     1       4.813   3.884  16.254  0.00  0.00    +0.000 A 
ATOM     28  C   UNL     1       4.082   4.528  17.274  0.00  0.00    +0.000 A 
ENDBRANCH  19  23
ENDBRANCH   9  13
BRANCH   7  29
ATOM     29  C   UNL     1      -2.939  13.983  20.866  0.00  0.00    +0.000 C 
ATOM     30  C   UNL     1      -4.307  13.257  20.985  0.00  0.00    +0.000 C 
ATOM     31  C   UNL     1      -4.462  13.898  22.379  0.00  0.00    +0.000 C 
ATOM     32  C   UNL     1      -2.924  13.948  22.429  0.00  0.00    +0.000 C 
ENDBRANCH   7  29
TORSDOF 3
ENDMDL
MODEL 4
REMARK VINA RESULT:      -8.7      3.231      9.890
REMARK  Name = 
REMARK  3 active torsions:
REMARK  status: ('A' for Active; 'I' for Inactive)
REMARK    1  A    between atoms: C_7  and  C_8
REMARK    2  A    between atoms: C_13  and  C_14
REMARK    3  A    between atoms: C_20  and  C_21
REMARK                            x       y       z     vdW  Elec       q    Type
REMARK                         _______ _______ _______ _____ _____    ______ ____
ROOT
ATOM      1  N   UNL     1      -2.831  10.628  17.982  0.00  0.00    +0.000 N 
ATOM      2  C   UNL     1      -3.167  11.510  18.964  0.00  0.00    +0.000 A 
ATOM      3  N   UNL     1      -4.342  12.052  18.831  0.00  0.00    +0.000 NA
ATOM      4  C   UNL     1      -4.754  13.005  19.727  0.00  0.00    +0.000 A 
ATOM      5  N   UNL     1      -4.077  13.471  20.724  0.00  0.00    +0.000 NA
ATOM      6  N   UNL     1      -2.863  12.902  20.868  0.00  0.00    +0.000 N 
ATOM      7  C   UNL     1      -1.890  13.290  21.757  0.00  0.00    +0.000 A 
ATOM      8  N   UNL     1      -0.832  12.508  21.646  0.00  0.00    +0.000 NA
ATOM      9  C   UNL     1      -1.108  11.614  20.602  0.00  0.00    +0.000 A 
ATOM     10  C   UNL     1      -2.360  11.898  20.077  0.00  0.00    +0.000 A 
ATOM     11  H   UNL     1      -3.622  10.326  17.426  0.00  0.00    +0.000 HD
ATOM     12  H   UNL     1      -2.162   9.904  18.176  0.00  0.00    +0.000 HD
ENDROOT
BRANCH   9  13
ATOM     13  C   UNL     1      -0.035  10.759  20.065  0.00  0.00    +0.000 A 
ATOM     14  C   UNL     1       0.614  11.255  18.933  0.00  0.00    +0.000 A 
ATOM     15  C   UNL     1       1.516  10.470  18.234  0.00  0.00    +0.000 A 
ATOM     16  C   UNL     1       1.783   9.164  18.648  0.00  0.00    +0.000 A 
ATOM     17  C   UNL     1       2.559   8.366  17.821  0.00  0.00    +0.000 A 
ATOM     18  C   UNL     1       2.849   7.069  18.192  0.00  0.00    +0.000 A 
ATOM     19  C   UNL     1       2.429   6.592  19.431  0.00  0.00    +0.000 A 
ATOM     20  N   UNL     1       1.619   7.354  20.243  0.00  0.00    +0.000 NA
ATOM     21  C   UNL     1       1.269   8.633  19.849  0.00  0.00    +0.000 A 
ATOM     22  C   UNL     1       0.374   9.490  20.554  0.00  0.00    +0.000 A 
BRANCH  19  23
ATOM     23  C   UNL     1       2.888   5.231  19.858  0.00  0.00    +0.000 A 
ATOM     24  C   UNL     1       4.001   4.613  19.225  0.00  0.00    +0.000 A 
ATOM     25  C   UNL     1       4.406   3.301  19.502  0.00  0.00    +0.000 A 
ATOM     26  C   UNL     1       3.720   2.563  20.453  0.00  0.00    +0.000 A 
ATOM     27  C   UNL     1       2.645   3.146  21.122  0.00  0.00    +0.000 A 
ATOM     28  C   UNL     1       2.235   4.464  20.832  0.00  0.00    +0.000 A 
ENDBRANCH  19  23
ENDBRANCH   9  13
BRANCH   7  29
ATOM     29  C   UNL     1      -2.030  14.514  22.673  0.00  0.00    +0.000 C 
ATOM     30  C   UNL     1      -2.616  14.267  24.090  0.00  0.00    +0.000 C 
ATOM     31  C   UNL     1      -1.582  15.275  24.631  0.00  0.00    +0.000 C 
ATOM     32  C   UNL     1      -0.710  14.897  23.420  0.00  0.00    +0.000 C 
ENDBRANCH   7  29
TORSDOF 3
ENDMDL
MODEL 5
REMARK VINA RESULT:      -8.7      2.336      9.663
REMARK  Name = 
REMARK  3 active torsions:
REMARK  status: ('A' for Active; 'I' for Inactive)
REMARK    1  A    between atoms: C_7  and  C_8
REMARK    2  A    between atoms: C_13  and  C_14
REMARK    3  A    between atoms: C_20  and  C_21
REMARK                            x       y       z     vdW  Elec       q    Type
REMARK                         _______ _______ _______ _____ _____    ______ ____
ROOT
ATOM      1  N   UNL     1       2.714  12.259  17.694  0.00  0.00    +0.000 N 
ATOM      2  C   UNL     1       2.042  13.197  18.418  0.00  0.00    +0.000 A 
ATOM      3  N   UNL     1       2.291  14.428  18.077  0.00  0.00    +0.000 NA
ATOM      4  C   UNL     1       1.719  15.455  18.783  0.00  0.00    +0.000 A 
ATOM      5  N   UNL     1       0.944  15.347  19.812  0.00  0.00    +0.000 NA
ATOM      6  N   UNL     1       0.679  14.071  20.159  0.00  0.00    +0.000 N 
ATOM      7  C   UNL     1      -0.005  13.665  21.279  0.00  0.00    +0.000 A 
ATOM      8  N   UNL     1      -0.100  12.349  21.303  0.00  0.00    +0.000 NA
ATOM      9  C   UNL     1       0.602  11.879  20.184  0.00  0.00    +0.000 A 
ATOM     10  C   UNL     1       1.138  12.958  19.497  0.00  0.00    +0.000 A 
ATOM     11  H   UNL     1       3.117  12.622  16.839  0.00  0.00    +0.000 HD
ATOM     12  H   UNL     1       2.331  11.333  17.610  0.00  0.00    +0.000 HD
ENDROOT
BRANCH   9  13
ATOM     13  C   UNL     1       0.889  10.441  20.047  0.00  0.00    +0.000 A 
ATOM     14  C   UNL     1       0.413   9.636  21.083  0.00  0.00    +0.000 A 
ATOM     15  C   UNL     1       0.766   8.299  21.160  0.00  0.00    +0.000 A 
ATOM     16  C   UNL     1       1.614   7.738  20.203  0.00  0.00    +0.000 A 
ATOM     17  C   UNL     1       2.073   6.447  20.418  0.00  0.00    +0.000 A 
ATOM     18  C   UNL     1       2.911   5.853  19.496  0.00  0.00    +0.000 A 
ATOM     19  C   UNL     1       3.230   6.521  18.317  0.00  0.00    +0.000 A 
ATOM     20  N   UNL     1       2.821   7.820  18.109  0.00  0.00    +0.000 NA
ATOM     21  C   UNL     1       2.033   8.447  19.058  0.00  0.00    +0.000 A 
ATOM     22  C   UNL     1       1.615   9.808  19.004  0.00  0.00    +0.000 A 
BRANCH  19  23
ATOM     23  C   UNL     1       4.021   5.786  17.279  0.00  0.00    +0.000 A 
ATOM     24  C   UNL     1       3.983   4.366  17.214  0.00  0.00    +0.000 A 
ATOM     25  C   UNL     1       4.787   3.620  16.342  0.00  0.00    +0.000 A 
ATOM     26  C   UNL     1       5.645   4.277  15.475  0.00  0.00    +0.000 A 
ATOM     27  C   UNL     1       5.685   5.671  15.484  0.00  0.00    +0.000 A 
ATOM     28  C   UNL     1       4.882   6.417  16.371  0.00  0.00    +0.000 A 
ENDBRANCH  19  23
ENDBRANCH   9  13
BRANCH   7  29
ATOM     29  C   UNL     1      -0.500  14.638  22.359  0.00  0.00    +0.000 C 
ATOM     30  C   UNL     1      -1.906  15.264  22.149  0.00  0.00    +0.000 C 
ATOM     31  C   UNL     1      -2.146  15.091  23.662  0.00  0.00    +0.000 C 
ATOM     32  C   UNL     1      -1.136  13.931  23.601  0.00  0.00    +0.000 C 
ENDBRANCH   7  29
TORSDOF 3
ENDMDL
MODEL 6
REMARK VINA RESULT:      -8.6      2.491      9.877
REMARK  Name = 
REMARK  3 active torsions:
REMARK  status: ('A' for Active; 'I' for Inactive)
REMARK    1  A    between atoms: C_7  and  C_8
REMARK    2  A    between atoms: C_13  and  C_14
REMARK    3  A    between atoms: C_20  and  C_21
REMARK                            x       y       z     vdW  Elec       q    Type
REMARK                         _______ _______ _______ _____ _____    ______ ____
ROOT
ATOM      1  N   UNL     1       3.308  12.937  17.999  0.00  0.00    +0.000 N 
ATOM      2  C   UNL     1       2.415  13.938  18.234  0.00  0.00    +0.000 A 
ATOM      3  N   UNL     1       2.841  15.129  17.932  0.00  0.00    +0.000 NA
ATOM      4  C   UNL     1       2.049  16.218  18.190  0.00  0.00    +0.000 A 
ATOM      5  N   UNL     1       0.881  16.209  18.745  0.00  0.00    +0.000 NA
ATOM      6  N   UNL     1       0.435  14.974  19.050  0.00  0.00    +0.000 N 
ATOM      7  C   UNL     1      -0.705  14.678  19.755  0.00  0.00    +0.000 A 
ATOM      8  N   UNL     1      -0.853  13.371  19.857  0.00  0.00    +0.000 NA
ATOM      9  C   UNL     1       0.268  12.795  19.244  0.00  0.00    +0.000 A 
ATOM     10  C   UNL     1       1.105  13.803  18.786  0.00  0.00    +0.000 A 
ATOM     11  H   UNL     1       4.075  13.214  17.399  0.00  0.00    +0.000 HD
ATOM     12  H   UNL     1       2.972  12.004  17.835  0.00  0.00    +0.000 HD
ENDROOT
BRANCH   9  13
ATOM     13  C   UNL     1       0.529  11.354  19.394  0.00  0.00    +0.000 A 
ATOM     14  C   UNL     1       0.005  10.769  20.549  0.00  0.00    +0.000 A 
ATOM     15  C   UNL     1       0.328   9.466  20.891  0.00  0.00    +0.000 A 
ATOM     16  C   UNL     1       1.193   8.720  20.088  0.00  0.00    +0.000 A 
ATOM     17  C   UNL     1       1.617   7.487  20.561  0.00  0.00    +0.000 A 
ATOM     18  C   UNL     1       2.471   6.716  19.799  0.00  0.00    +0.000 A 
ATOM     19  C   UNL     1       2.839   7.140  18.525  0.00  0.00    +0.000 A 
ATOM     20  N   UNL     1       2.464   8.381  18.059  0.00  0.00    +0.000 NA
ATOM     21  C   UNL     1       1.661   9.190  18.844  0.00  0.00    +0.000 A 
ATOM     22  C   UNL     1       1.274  10.521  18.517  0.00  0.00    +0.000 A 
BRANCH  19  23
ATOM     23  C   UNL     1       3.646   6.208  17.674  0.00  0.00    +0.000 A 
ATOM     24  C   UNL     1       4.632   6.714  16.784  0.00  0.00    +0.000 A 
ATOM     25  C   UNL     1       5.336   5.903  15.884  0.00  0.00    +0.000 A 
ATOM     26  C   UNL     1       5.095   4.539  15.863  0.00  0.00    +0.000 A 
ATOM     27  C   UNL     1       4.160   3.999  16.746  0.00  0.00    +0.000 A 
ATOM     28  C   UNL     1       3.447   4.820  17.643  0.00  0.00    +0.000 A 
ENDBRANCH  19  23
ENDBRANCH   9  13
BRANCH   7  29
ATOM     29  C   UNL     1      -1.606  15.752  20.382  0.00  0.00    +0.000 C 
ATOM     30  C   UNL     1      -2.969  15.278  20.957  0.00  0.00    +0.000 C 
ATOM     31  C   UNL     1      -2.749  16.253  22.131  0.00  0.00    +0.000 C 
ATOM     32  C   UNL     1      -1.241  16.094  21.865  0.00  0.00    +0.000 C 
ENDBRANCH   7  29
TORSDOF 3
ENDMDL
MODEL 7
REMARK VINA RESULT:      -8.6      1.982      3.022
REMARK  Name = 
REMARK  3 active torsions:
REMARK  status: ('A' for Active; 'I' for Inactive)
REMARK    1  A    between atoms: C_7  and  C_8
REMARK    2  A    between atoms: C_13  and  C_14
REMARK    3  A    between atoms: C_20  and  C_21
REMARK                            x       y       z     vdW  Elec       q    Type
REMARK                         _______ _______ _______ _____ _____    ______ ____
ROOT
ATOM      1  N   UNL     1       1.300   6.070  21.237  0.00  0.00    +0.000 N 
ATOM      2  C   UNL     1       2.134   5.302  20.483  0.00  0.00    +0.000 A 
ATOM      3  N   UNL     1       2.371   4.118  20.969  0.00  0.00    +0.000 NA
ATOM      4  C   UNL     1       3.250   3.285  20.326  0.00  0.00    +0.000 A 
ATOM      5  N   UNL     1       3.923   3.552  19.255  0.00  0.00    +0.000 NA
ATOM      6  N   UNL     1       3.669   4.774  18.745  0.00  0.00    +0.000 N 
ATOM      7  C   UNL     1       4.330   5.365  17.696  0.00  0.00    +0.000 A 
ATOM      8  N   UNL     1       3.818   6.554  17.445  0.00  0.00    +0.000 NA
ATOM      9  C   UNL     1       2.823   6.769  18.409  0.00  0.00    +0.000 A 
ATOM     10  C   UNL     1       2.768   5.675  19.259  0.00  0.00    +0.000 A 
ATOM     11  H   UNL     1       0.785   5.543  21.932  0.00  0.00    +0.000 HD
ATOM     12  H   UNL     1       0.769   6.801  20.796  0.00  0.00    +0.000 HD
ENDROOT
BRANCH   9  13
ATOM     13  C   UNL     1       2.217   8.104  18.554  0.00  0.00    +0.000 A 
ATOM     14  C   UNL     1       2.533   9.016  17.547  0.00  0.00    +0.000 A 
ATOM     15  C   UNL     1       2.171  10.348  17.659  0.00  0.00    +0.000 A 
ATOM     16  C   UNL     1       1.489  10.801  18.791  0.00  0.00    +0.000 A 
ATOM     17  C   UNL     1       1.301  12.167  18.933  0.00  0.00    +0.000 A 
ATOM     18  C   UNL     1       0.631  12.657  20.035  0.00  0.00    +0.000 A 
ATOM     19  C   UNL     1       0.078  11.776  20.960  0.00  0.00    +0.000 A 
ATOM     20  N   UNL     1       0.295  10.419  20.858  0.00  0.00    +0.000 NA
ATOM     21  C   UNL     1       1.022   9.923  19.790  0.00  0.00    +0.000 A 
ATOM     22  C   UNL     1       1.387   8.557  19.614  0.00  0.00    +0.000 A 
BRANCH  19  23
ATOM     23  C   UNL     1      -0.766  12.342  22.061  0.00  0.00    +0.000 A 
ATOM     24  C   UNL     1      -1.872  11.610  22.572  0.00  0.00    +0.000 A 
ATOM     25  C   UNL     1      -2.762  12.133  23.519  0.00  0.00    +0.000 A 
ATOM     26  C   UNL     1      -2.557  13.411  24.014  0.00  0.00    +0.000 A 
ATOM     27  C   UNL     1      -1.462  14.148  23.564  0.00  0.00    +0.000 A 
ATOM     28  C   UNL     1      -0.575  13.620  22.603  0.00  0.00    +0.000 A 
ENDBRANCH  19  23
ENDBRANCH   9  13
BRANCH   7  29
ATOM     29  C   UNL     1       5.538   4.724  16.998  0.00  0.00    +0.000 C 
ATOM     30  C   UNL     1       5.416   4.476  15.469  0.00  0.00    +0.000 C 
ATOM     31  C   UNL     1       6.887   4.919  15.338  0.00  0.00    +0.000 C 
ATOM     32  C   UNL     1       6.662   5.743  16.618  0.00  0.00    +0.000 C 
ENDBRANCH   7  29
TORSDOF 3
ENDMDL
MODEL 8
REMARK VINA RESULT:      -8.6      2.577     10.100
REMARK  Name = 
REMARK  3 active torsions:
REMARK  status: ('A' for Active; 'I' for Inactive)
REMARK    1  A    between atoms: C_7  and  C_8
REMARK    2  A    between atoms: C_13  and  C_14
REMARK    3  A    between atoms: C_20  and  C_21
REMARK                            x       y       z     vdW  Elec       q    Type
REMARK                         _______ _______ _______ _____ _____    ______ ____
ROOT
ATOM      1  N   UNL     1       3.842  13.175  18.078  0.00  0.00    +0.000 N 
ATOM      2  C   UNL     1       3.098  14.313  18.153  0.00  0.00    +0.000 A 
ATOM      3  N   UNL     1       3.724  15.397  17.796  0.00  0.00    +0.000 NA
ATOM      4  C   UNL     1       3.091  16.609  17.897  0.00  0.00    +0.000 A 
ATOM      5  N   UNL     1       1.898  16.822  18.347  0.00  0.00    +0.000 NA
ATOM      6  N   UNL     1       1.247  15.699  18.709  0.00  0.00    +0.000 N 
ATOM      7  C   UNL     1       0.025  15.640  19.334  0.00  0.00    +0.000 A 
ATOM      8  N   UNL     1      -0.329  14.383  19.526  0.00  0.00    +0.000 NA
ATOM      9  C   UNL     1       0.733  13.595  19.061  0.00  0.00    +0.000 A 
ATOM     10  C   UNL     1       1.746  14.423  18.599  0.00  0.00    +0.000 A 
ATOM     11  H   UNL     1       4.685  13.281  17.526  0.00  0.00    +0.000 HD
ATOM     12  H   UNL     1       3.379  12.290  17.959  0.00  0.00    +0.000 HD
ENDROOT
BRANCH   9  13
ATOM     13  C   UNL     1       0.757  12.151  19.347  0.00  0.00    +0.000 A 
ATOM     14  C   UNL     1       0.169  11.772  20.554  0.00  0.00    +0.000 A 
ATOM     15  C   UNL     1       0.282  10.471  21.018  0.00  0.00    +0.000 A 
ATOM     16  C   UNL     1       0.995   9.521  20.286  0.00  0.00    +0.000 A 
ATOM     17  C   UNL     1       1.222   8.285  20.873  0.00  0.00    +0.000 A 
ATOM     18  C   UNL     1       1.922   7.315  20.183  0.00  0.00    +0.000 A 
ATOM     19  C   UNL     1       2.328   7.552  18.873  0.00  0.00    +0.000 A 
ATOM     20  N   UNL     1       2.151   8.789  18.292  0.00  0.00    +0.000 NA
ATOM     21  C   UNL     1       1.509   9.788  19.000  0.00  0.00    +0.000 A 
ATOM     22  C   UNL     1       1.337  11.129  18.549  0.00  0.00    +0.000 A 
BRANCH  19  23
ATOM     23  C   UNL     1       2.953   6.424  18.111  0.00  0.00    +0.000 A 
ATOM     24  C   UNL     1       2.350   5.136  18.102  0.00  0.00    +0.000 A 
ATOM     25  C   UNL     1       2.946   4.019  17.503  0.00  0.00    +0.000 A 
ATOM     26  C   UNL     1       4.165   4.158  16.862  0.00  0.00    +0.000 A 
ATOM     27  C   UNL     1       4.773   5.412  16.818  0.00  0.00    +0.000 A 
ATOM     28  C   UNL     1       4.174   6.533  17.431  0.00  0.00    +0.000 A 
ENDBRANCH  19  23
ENDBRANCH   9  13
BRANCH   7  29
ATOM     29  C   UNL     1      -0.743  16.887  19.793  0.00  0.00    +0.000 C 
ATOM     30  C   UNL     1      -1.555  17.650  18.711  0.00  0.00    +0.000 C 
ATOM     31  C   UNL     1      -2.663  17.850  19.764  0.00  0.00    +0.000 C 
ATOM     32  C   UNL     1      -2.134  16.570  20.436  0.00  0.00    +0.000 C 
ENDBRANCH   7  29
TORSDOF 3
ENDMDL
MODEL 9
REMARK VINA RESULT:      -8.6      2.096      3.052
REMARK  Name = 
REMARK  3 active torsions:
REMARK  status: ('A' for Active; 'I' for Inactive)
REMARK    1  A    between atoms: C_7  and  C_8
REMARK    2  A    between atoms: C_13  and  C_14
REMARK    3  A    between atoms: C_20  and  C_21
REMARK                            x       y       z     vdW  Elec       q    Type
REMARK                         _______ _______ _______ _____ _____    ______ ____
ROOT
ATOM      1  N   UNL     1       0.272   5.233  20.710  0.00  0.00    +0.000 N 
ATOM      2  C   UNL     1       1.426   4.592  20.379  0.00  0.00    +0.000 A 
ATOM      3  N   UNL     1       1.505   3.362  20.798  0.00  0.00    +0.000 NA
ATOM      4  C   UNL     1       2.653   2.644  20.579  0.00  0.00    +0.000 A 
ATOM      5  N   UNL     1       3.728   3.065  19.999  0.00  0.00    +0.000 NA
ATOM      6  N   UNL     1       3.643   4.336  19.557  0.00  0.00    +0.000 N 
ATOM      7  C   UNL     1       4.670   5.076  19.023  0.00  0.00    +0.000 A 
ATOM      8  N   UNL     1       4.238   6.274  18.677  0.00  0.00    +0.000 NA
ATOM      9  C   UNL     1       2.890   6.335  19.056  0.00  0.00    +0.000 A 
ATOM     10  C   UNL     1       2.532   5.138  19.660  0.00  0.00    +0.000 A 
ATOM     11  H   UNL     1      -0.464   4.607  21.013  0.00  0.00    +0.000 HD
ATOM     12  H   UNL     1      -0.046   6.001  20.144  0.00  0.00    +0.000 HD
ENDROOT
BRANCH   9  13
ATOM     13  C   UNL     1       2.176   7.622  19.025  0.00  0.00    +0.000 A 
ATOM     14  C   UNL     1       2.255   8.320  17.819  0.00  0.00    +0.000 A 
ATOM     15  C   UNL     1       1.776   9.616  17.719  0.00  0.00    +0.000 A 
ATOM     16  C   UNL     1       1.212  10.247  18.829  0.00  0.00    +0.000 A 
ATOM     17  C   UNL     1       0.905  11.596  18.723  0.00  0.00    +0.000 A 
ATOM     18  C   UNL     1       0.345  12.259  19.796  0.00  0.00    +0.000 A 
ATOM     19  C   UNL     1       0.017  11.555  20.952  0.00  0.00    +0.000 A 
ATOM     20  N   UNL     1       0.357  10.228  21.090  0.00  0.00    +0.000 NA
ATOM     21  C   UNL     1       0.979   9.570  20.044  0.00  0.00    +0.000 A 
ATOM     22  C   UNL     1       1.456   8.228  20.089  0.00  0.00    +0.000 A 
BRANCH  19  23
ATOM     23  C   UNL     1      -0.722  12.280  22.035  0.00  0.00    +0.000 A 
ATOM     24  C   UNL     1      -1.855  11.687  22.657  0.00  0.00    +0.000 A 
ATOM     25  C   UNL     1      -2.652  12.360  23.592  0.00  0.00    +0.000 A 
ATOM     26  C   UNL     1      -2.322  13.653  23.964  0.00  0.00    +0.000 A 
ATOM     27  C   UNL     1      -1.197  14.257  23.403  0.00  0.00    +0.000 A 
ATOM     28  C   UNL     1      -0.404  13.579  22.454  0.00  0.00    +0.000 A 
ENDBRANCH  19  23
ENDBRANCH   9  13
BRANCH   7  29
ATOM     29  C   UNL     1       6.115   4.564  18.935  0.00  0.00    +0.000 C 
ATOM     30  C   UNL     1       6.773   4.558  17.528  0.00  0.00    +0.000 C 
ATOM     31  C   UNL     1       8.079   5.030  18.199  0.00  0.00    +0.000 C 
ATOM     32  C   UNL     1       7.190   5.642  19.297  0.00  0.00    +0.000 C 
ENDBRANCH   7  29
TORSDOF 3
ENDMDL
