MODEL 1
REMARK VINA RESULT:      -6.6      0.000      0.000
REMARK  Name = 
REMARK  5 active torsions:
REMARK  status: ('A' for Active; 'I' for Inactive)
REMARK    1  A    between atoms: C_1  and  O_2
REMARK    2  A    between atoms: O_2  and  C_3
REMARK    3  A    between atoms: C_8  and  C_9
REMARK    4  A    between atoms: C_9  and  N_10
REMARK    5  A    between atoms: C_18  and  C_20
REMARK                            x       y       z     vdW  Elec       q    Type
REMARK                         _______ _______ _______ _____ _____    ______ ____
ROOT
ATOM      1  N   UNL     1       2.082   6.895  19.271  0.00  0.00    +0.000 NA
ATOM      2  C   UNL     1       2.932   6.108  20.155  0.00  0.00    +0.000 C 
ATOM      3  C   UNL     1       3.783   5.148  19.326  0.00  0.00    +0.000 C 
ATOM      4  C   UNL     1       3.345   5.249  17.858  0.00  0.00    +0.000 C 
ATOM      5  C   UNL     1       2.851   3.854  17.354  0.00  0.00    +0.000 C 
ATOM      6  C   UNL     1       3.996   2.810  17.312  0.00  0.00    +0.000 C 
ATOM      7  C   UNL     1       5.208   3.286  16.513  0.00  0.00    +0.000 C 
ATOM      8  N   UNL     1       5.586   4.644  16.898  0.00  0.00    +0.000 N 
ATOM      9  C   UNL     1       6.953   4.955  17.016  0.00  0.00    +0.000 C 
ATOM     10  O   UNL     1       7.834   4.138  16.721  0.00  0.00    +0.000 OA
ATOM     11  C   UNL     1       4.483   5.620  16.869  0.00  0.00    +0.000 C 
ATOM     12  C   UNL     1       2.262   6.369  17.893  0.00  0.00    +0.000 C 
ENDROOT
BRANCH   9  13
ATOM     13  C   UNL     1       7.375   6.298  17.515  0.00  0.00    +0.000 A 
ATOM     14  C   UNL     1       8.098   6.390  18.694  0.00  0.00    +0.000 A 
ATOM     15  N   UNL     1       8.542   7.577  19.183  0.00  0.00    +0.000 NA
ATOM     16  C   UNL     1       8.228   8.664  18.440  0.00  0.00    +0.000 A 
ATOM     17  C   UNL     1       7.476   8.583  17.284  0.00  0.00    +0.000 A 
ATOM     18  N   UNL     1       7.025   7.407  16.808  0.00  0.00    +0.000 NA
ENDBRANCH   9  13
BRANCH   1  19
ATOM     19  C   UNL     1       2.263   8.371  19.445  0.00  0.00    +0.000 C 
BRANCH  19  25
ATOM     20  C   UNL     1       0.502   9.729  20.805  0.00  0.00    +0.000 A 
ATOM     21  C   UNL     1      -0.410  10.808  20.872  0.00  0.00    +0.000 A 
ATOM     22  C   UNL     1      -0.976  11.339  19.729  0.00  0.00    +0.000 A 
ATOM     23  C   UNL     1      -0.598  10.813  18.501  0.00  0.00    +0.000 A 
ATOM     24  C   UNL     1       0.396   9.819  18.415  0.00  0.00    +0.000 A 
ATOM     25  C   UNL     1       1.000   9.265  19.558  0.00  0.00    +0.000 A 
BRANCH  20  27
ATOM     26  C   UNL     1       0.128   9.473  23.118  0.00  0.00    +0.000 C 
ATOM     27  O   UNL     1       0.906   9.097  21.966  0.00  0.00    +0.000 OA
ENDBRANCH  20  27
ENDBRANCH  19  25
ENDBRANCH   1  19
TORSDOF 4
ENDMDL
MODEL 2
REMARK VINA RESULT:      -6.5      2.985      7.961
REMARK  Name = 
REMARK  5 active torsions:
REMARK  status: ('A' for Active; 'I' for Inactive)
REMARK    1  A    between atoms: C_1  and  O_2
REMARK    2  A    between atoms: O_2  and  C_3
REMARK    3  A    between atoms: C_8  and  C_9
REMARK    4  A    between atoms: C_9  and  N_10
REMARK    5  A    between atoms: C_18  and  C_20
REMARK                            x       y       z     vdW  Elec       q    Type
REMARK                         _______ _______ _______ _____ _____    ______ ____
ROOT
ATOM      1  N   UNL     1       6.340   6.352  16.323  0.00  0.00    +0.000 NA
ATOM      2  C   UNL     1       6.584   6.499  17.752  0.00  0.00    +0.000 C 
ATOM      3  C   UNL     1       5.251   6.561  18.496  0.00  0.00    +0.000 C 
ATOM      4  C   UNL     1       4.115   6.588  17.463  0.00  0.00    +0.000 C 
ATOM      5  C   UNL     1       3.271   7.892  17.636  0.00  0.00    +0.000 C 
ATOM      6  C   UNL     1       2.520   7.924  18.991  0.00  0.00    +0.000 C 
ATOM      7  C   UNL     1       1.665   6.680  19.229  0.00  0.00    +0.000 C 
ATOM      8  N   UNL     1       2.423   5.465  18.939  0.00  0.00    +0.000 N 
ATOM      9  C   UNL     1       2.272   4.357  19.794  0.00  0.00    +0.000 C 
ATOM     10  O   UNL     1       1.457   4.360  20.724  0.00  0.00    +0.000 OA
ATOM     11  C   UNL     1       3.075   5.447  17.619  0.00  0.00    +0.000 C 
ATOM     12  C   UNL     1       4.874   6.457  16.107  0.00  0.00    +0.000 C 
ENDROOT
BRANCH   9  13
ATOM     13  C   UNL     1       3.112   3.138  19.595  0.00  0.00    +0.000 A 
ATOM     14  C   UNL     1       4.177   2.899  20.449  0.00  0.00    +0.000 A 
ATOM     15  N   UNL     1       4.957   1.792  20.346  0.00  0.00    +0.000 NA
ATOM     16  C   UNL     1       4.625   0.940  19.349  0.00  0.00    +0.000 A 
ATOM     17  C   UNL     1       3.588   1.191  18.470  0.00  0.00    +0.000 A 
ATOM     18  N   UNL     1       2.824   2.296  18.566  0.00  0.00    +0.000 NA
ENDBRANCH   9  13
BRANCH   1  19
ATOM     19  C   UNL     1       7.011   5.150  15.734  0.00  0.00    +0.000 C 
BRANCH  19  25
ATOM     20  C   UNL     1       7.409   4.817  13.180  0.00  0.00    +0.000 A 
ATOM     21  C   UNL     1       7.164   4.077  12.000  0.00  0.00    +0.000 A 
ATOM     22  C   UNL     1       6.017   3.319  11.856  0.00  0.00    +0.000 A 
ATOM     23  C   UNL     1       5.123   3.267  12.918  0.00  0.00    +0.000 A 
ATOM     24  C   UNL     1       5.414   3.905  14.139  0.00  0.00    +0.000 A 
ATOM     25  C   UNL     1       6.577   4.675  14.323  0.00  0.00    +0.000 A 
BRANCH  20  27
ATOM     26  C   UNL     1       8.625   6.459  12.005  0.00  0.00    +0.000 C 
ATOM     27  O   UNL     1       8.463   5.710  13.224  0.00  0.00    +0.000 OA
ENDBRANCH  20  27
ENDBRANCH  19  25
ENDBRANCH   1  19
TORSDOF 4
ENDMDL
MODEL 3
REMARK VINA RESULT:      -6.5      6.622      9.831
REMARK  Name = 
REMARK  5 active torsions:
REMARK  status: ('A' for Active; 'I' for Inactive)
REMARK    1  A    between atoms: C_1  and  O_2
REMARK    2  A    between atoms: O_2  and  C_3
REMARK    3  A    between atoms: C_8  and  C_9
REMARK    4  A    between atoms: C_9  and  N_10
REMARK    5  A    between atoms: C_18  and  C_20
REMARK                            x       y       z     vdW  Elec       q    Type
REMARK                         _______ _______ _______ _____ _____    ______ ____
ROOT
ATOM      1  N   UNL     1      -0.223  10.709  18.472  0.00  0.00    +0.000 NA
ATOM      2  C   UNL     1       0.579  10.393  19.647  0.00  0.00    +0.000 C 
ATOM      3  C   UNL     1       1.049  11.687  20.309  0.00  0.00    +0.000 C 
ATOM      4  C   UNL     1       0.628  12.870  19.425  0.00  0.00    +0.000 C 
ATOM      5  C   UNL     1       1.892  13.672  18.977  0.00  0.00    +0.000 C 
ATOM      6  C   UNL     1       2.602  14.357  20.171  0.00  0.00    +0.000 C 
ATOM      7  C   UNL     1       1.663  15.230  21.004  0.00  0.00    +0.000 C 
ATOM      8  N   UNL     1       0.425  14.517  21.310  0.00  0.00    +0.000 N 
ATOM      9  C   UNL     1      -0.131  14.654  22.595  0.00  0.00    +0.000 C 
ATOM     10  O   UNL     1       0.353  15.424  23.434  0.00  0.00    +0.000 OA
ATOM     11  C   UNL     1      -0.251  13.930  20.141  0.00  0.00    +0.000 C 
ATOM     12  C   UNL     1      -0.169  12.180  18.276  0.00  0.00    +0.000 C 
ENDROOT
BRANCH   9  13
ATOM     13  C   UNL     1      -1.332  13.854  22.980  0.00  0.00    +0.000 A 
ATOM     14  C   UNL     1      -2.544  14.499  23.178  0.00  0.00    +0.000 A 
ATOM     15  N   UNL     1      -3.681  13.827  23.493  0.00  0.00    +0.000 NA
ATOM     16  C   UNL     1      -3.550  12.485  23.604  0.00  0.00    +0.000 A 
ATOM     17  C   UNL     1      -2.338  11.840  23.445  0.00  0.00    +0.000 A 
ATOM     18  N   UNL     1      -1.208  12.510  23.145  0.00  0.00    +0.000 NA
ENDBRANCH   9  13
BRANCH   1  19
ATOM     19  C   UNL     1      -1.588  10.096  18.512  0.00  0.00    +0.000 C 
BRANCH  19  25
ATOM     20  C   UNL     1      -3.333  10.974  16.786  0.00  0.00    +0.000 A 
ATOM     21  C   UNL     1      -4.626  11.480  16.518  0.00  0.00    +0.000 A 
ATOM     22  C   UNL     1      -5.354  12.136  17.493  0.00  0.00    +0.000 A 
ATOM     23  C   UNL     1      -4.801  12.255  18.761  0.00  0.00    +0.000 A 
ATOM     24  C   UNL     1      -3.566  11.652  19.070  0.00  0.00    +0.000 A 
ATOM     25  C   UNL     1      -2.805  10.968  18.105  0.00  0.00    +0.000 A 
BRANCH  20  27
ATOM     26  C   UNL     1      -3.311  10.209  14.557  0.00  0.00    +0.000 C 
ATOM     27  O   UNL     1      -2.556  10.492  15.750  0.00  0.00    +0.000 OA
ENDBRANCH  20  27
ENDBRANCH  19  25
ENDBRANCH   1  19
TORSDOF 4
ENDMDL
MODEL 4
REMARK VINA RESULT:      -6.5      6.925     10.006
REMARK  Name = 
REMARK  5 active torsions:
REMARK  status: ('A' for Active; 'I' for Inactive)
REMARK    1  A    between atoms: C_1  and  O_2
REMARK    2  A    between atoms: O_2  and  C_3
REMARK    3  A    between atoms: C_8  and  C_9
REMARK    4  A    between atoms: C_9  and  N_10
REMARK    5  A    between atoms: C_18  and  C_20
REMARK                            x       y       z     vdW  Elec       q    Type
REMARK                         _______ _______ _______ _____ _____    ______ ____
ROOT
ATOM      1  N   UNL     1      -0.145  11.009  18.779  0.00  0.00    +0.000 NA
ATOM      2  C   UNL     1       0.716  10.792  19.935  0.00  0.00    +0.000 C 
ATOM      3  C   UNL     1       1.057  12.135  20.579  0.00  0.00    +0.000 C 
ATOM      4  C   UNL     1       0.488  13.258  19.700  0.00  0.00    +0.000 C 
ATOM      5  C   UNL     1       1.645  14.190  19.215  0.00  0.00    +0.000 C 
ATOM      6  C   UNL     1       2.304  14.959  20.388  0.00  0.00    +0.000 C 
ATOM      7  C   UNL     1       1.295  15.730  21.240  0.00  0.00    +0.000 C 
ATOM      8  N   UNL     1       0.151  14.888  21.580  0.00  0.00    +0.000 N 
ATOM      9  C   UNL     1      -0.385  14.973  22.879  0.00  0.00    +0.000 C 
ATOM     10  O   UNL     1       0.032  15.798  23.701  0.00  0.00    +0.000 OA
ATOM     11  C   UNL     1      -0.485  14.220  20.432  0.00  0.00    +0.000 C 
ATOM     12  C   UNL     1      -0.257  12.476  18.575  0.00  0.00    +0.000 C 
ENDROOT
BRANCH   9  13
ATOM     13  C   UNL     1      -1.482  14.049  23.298  0.00  0.00    +0.000 A 
ATOM     14  C   UNL     1      -2.626  14.572  23.881  0.00  0.00    +0.000 A 
ATOM     15  N   UNL     1      -3.674  13.792  24.251  0.00  0.00    +0.000 NA
ATOM     16  C   UNL     1      -3.524  12.468  24.014  0.00  0.00    +0.000 A 
ATOM     17  C   UNL     1      -2.371  11.937  23.468  0.00  0.00    +0.000 A 
ATOM     18  N   UNL     1      -1.327  12.711  23.114  0.00  0.00    +0.000 NA
ENDBRANCH   9  13
BRANCH   1  19
ATOM     19  C   UNL     1      -1.433  10.251  18.857  0.00  0.00    +0.000 C 
BRANCH  19  25
ATOM     20  C   UNL     1      -3.578  11.148  17.680  0.00  0.00    +0.000 A 
ATOM     21  C   UNL     1      -4.255  11.487  16.486  0.00  0.00    +0.000 A 
ATOM     22  C   UNL     1      -3.912  10.907  15.279  0.00  0.00    +0.000 A 
ATOM     23  C   UNL     1      -2.856  10.006  15.257  0.00  0.00    +0.000 A 
ATOM     24  C   UNL     1      -2.100   9.751  16.418  0.00  0.00    +0.000 A 
ATOM     25  C   UNL     1      -2.415  10.333  17.660  0.00  0.00    +0.000 A 
BRANCH  20  27
ATOM     26  C   UNL     1      -5.372  12.187  18.802  0.00  0.00    +0.000 C 
ATOM     27  O   UNL     1      -4.061  11.598  18.895  0.00  0.00    +0.000 OA
ENDBRANCH  20  27
ENDBRANCH  19  25
ENDBRANCH   1  19
TORSDOF 4
ENDMDL
MODEL 5
REMARK VINA RESULT:      -6.4      6.921     10.089
REMARK  Name = 
REMARK  5 active torsions:
REMARK  status: ('A' for Active; 'I' for Inactive)
REMARK    1  A    between atoms: C_1  and  O_2
REMARK    2  A    between atoms: O_2  and  C_3
REMARK    3  A    between atoms: C_8  and  C_9
REMARK    4  A    between atoms: C_9  and  N_10
REMARK    5  A    between atoms: C_18  and  C_20
REMARK                            x       y       z     vdW  Elec       q    Type
REMARK                         _______ _______ _______ _____ _____    ______ ____
ROOT
ATOM      1  N   UNL     1      -0.388  11.197  18.356  0.00  0.00    +0.000 NA
ATOM      2  C   UNL     1       0.492  10.877  19.473  0.00  0.00    +0.000 C 
ATOM      3  C   UNL     1       0.892  12.163  20.195  0.00  0.00    +0.000 C 
ATOM      4  C   UNL     1       0.340  13.359  19.406  0.00  0.00    +0.000 C 
ATOM      5  C   UNL     1       1.516  14.284  18.954  0.00  0.00    +0.000 C 
ATOM      6  C   UNL     1       2.228  14.952  20.157  0.00  0.00    +0.000 C 
ATOM      7  C   UNL     1       1.266  15.696  21.083  0.00  0.00    +0.000 C 
ATOM      8  N   UNL     1       0.103  14.870  21.397  0.00  0.00    +0.000 N 
ATOM      9  C   UNL     1      -0.399  14.886  22.712  0.00  0.00    +0.000 C 
ATOM     10  O   UNL     1       0.064  15.641  23.576  0.00  0.00    +0.000 OA
ATOM     11  C   UNL     1      -0.582  14.301  20.224  0.00  0.00    +0.000 C 
ATOM     12  C   UNL     1      -0.456  12.678  18.252  0.00  0.00    +0.000 C 
ENDROOT
BRANCH   9  13
ATOM     13  C   UNL     1      -1.516  13.972  23.098  0.00  0.00    +0.000 A 
ATOM     14  C   UNL     1      -1.320  12.600  23.052  0.00  0.00    +0.000 A 
ATOM     15  N   UNL     1      -2.281  11.716  23.424  0.00  0.00    +0.000 NA
ATOM     16  C   UNL     1      -3.445  12.266  23.841  0.00  0.00    +0.000 A 
ATOM     17  C   UNL     1      -3.660  13.631  23.853  0.00  0.00    +0.000 A 
ATOM     18  N   UNL     1      -2.710  14.507  23.471  0.00  0.00    +0.000 NA
ENDBRANCH   9  13
BRANCH   1  19
ATOM     19  C   UNL     1      -1.699  10.477  18.418  0.00  0.00    +0.000 C 
BRANCH  19  25
ATOM     20  C   UNL     1      -3.522  11.351  16.774  0.00  0.00    +0.000 A 
ATOM     21  C   UNL     1      -4.859  11.755  16.547  0.00  0.00    +0.000 A 
ATOM     22  C   UNL     1      -5.645  12.238  17.576  0.00  0.00    +0.000 A 
ATOM     23  C   UNL     1      -5.104  12.282  18.854  0.00  0.00    +0.000 A 
ATOM     24  C   UNL     1      -3.816  11.773  19.112  0.00  0.00    +0.000 A 
ATOM     25  C   UNL     1      -2.994  11.265  18.089  0.00  0.00    +0.000 A 
BRANCH  20  27
ATOM     26  C   UNL     1      -3.325  10.178  14.739  0.00  0.00    +0.000 C 
ATOM     27  O   UNL     1      -2.704  11.051  15.701  0.00  0.00    +0.000 OA
ENDBRANCH  20  27
ENDBRANCH  19  25
ENDBRANCH   1  19
TORSDOF 4
ENDMDL
MODEL 6
REMARK VINA RESULT:      -6.4      1.456      2.071
REMARK  Name = 
REMARK  5 active torsions:
REMARK  status: ('A' for Active; 'I' for Inactive)
REMARK    1  A    between atoms: C_1  and  O_2
REMARK    2  A    between atoms: O_2  and  C_3
REMARK    3  A    between atoms: C_8  and  C_9
REMARK    4  A    between atoms: C_9  and  N_10
REMARK    5  A    between atoms: C_18  and  C_20
REMARK                            x       y       z     vdW  Elec       q    Type
REMARK                         _______ _______ _______ _____ _____    ______ ____
ROOT
ATOM      1  N   UNL     1       1.612   6.040  20.740  0.00  0.00    +0.000 NA
ATOM      2  C   UNL     1       2.610   5.093  21.221  0.00  0.00    +0.000 C 
ATOM      3  C   UNL     1       2.953   4.102  20.110  0.00  0.00    +0.000 C 
ATOM      4  C   UNL     1       2.023   4.363  18.917  0.00  0.00    +0.000 C 
ATOM      5  C   UNL     1       1.189   3.078  18.604  0.00  0.00    +0.000 C 
ATOM      6  C   UNL     1       2.080   1.911  18.110  0.00  0.00    +0.000 C 
ATOM      7  C   UNL     1       2.966   2.295  16.924  0.00  0.00    +0.000 C 
ATOM      8  N   UNL     1       3.643   3.566  17.172  0.00  0.00    +0.000 N 
ATOM      9  C   UNL     1       4.987   3.701  16.775  0.00  0.00    +0.000 C 
ATOM     10  O   UNL     1       5.573   2.808  16.151  0.00  0.00    +0.000 OA
ATOM     11  C   UNL     1       2.755   4.667  17.583  0.00  0.00    +0.000 C 
ATOM     12  C   UNL     1       1.197   5.600  19.383  0.00  0.00    +0.000 C 
ENDROOT
BRANCH   9  13
ATOM     13  C   UNL     1       5.745   4.943  17.110  0.00  0.00    +0.000 A 
ATOM     14  C   UNL     1       5.736   6.007  16.221  0.00  0.00    +0.000 A 
ATOM     15  N   UNL     1       6.374   7.177  16.482  0.00  0.00    +0.000 NA
ATOM     16  C   UNL     1       7.022   7.233  17.669  0.00  0.00    +0.000 A 
ATOM     17  C   UNL     1       7.066   6.163  18.542  0.00  0.00    +0.000 A 
ATOM     18  N   UNL     1       6.443   4.998  18.276  0.00  0.00    +0.000 NA
ENDBRANCH   9  13
BRANCH   1  19
ATOM     19  C   UNL     1       2.048   7.466  20.868  0.00  0.00    +0.000 C 
BRANCH  19  25
ATOM     20  C   UNL     1       0.175   9.277  20.808  0.00  0.00    +0.000 A 
ATOM     21  C   UNL     1      -0.324  10.490  20.279  0.00  0.00    +0.000 A 
ATOM     22  C   UNL     1       0.063  10.939  19.030  0.00  0.00    +0.000 A 
ATOM     23  C   UNL     1       0.987  10.188  18.317  0.00  0.00    +0.000 A 
ATOM     24  C   UNL     1       1.578   9.041  18.883  0.00  0.00    +0.000 A 
ATOM     25  C   UNL     1       1.215   8.563  20.155  0.00  0.00    +0.000 A 
BRANCH  20  27
ATOM     26  C   UNL     1      -0.292   9.667  23.085  0.00  0.00    +0.000 C 
ATOM     27  O   UNL     1      -0.367   8.760  21.969  0.00  0.00    +0.000 OA
ENDBRANCH  20  27
ENDBRANCH  19  25
ENDBRANCH   1  19
TORSDOF 4
ENDMDL
MODEL 7
REMARK VINA RESULT:      -6.4      5.365      9.673
REMARK  Name = 
REMARK  5 active torsions:
REMARK  status: ('A' for Active; 'I' for Inactive)
REMARK    1  A    between atoms: C_1  and  O_2
REMARK    2  A    between atoms: O_2  and  C_3
REMARK    3  A    between atoms: C_8  and  C_9
REMARK    4  A    between atoms: C_9  and  N_10
REMARK    5  A    between atoms: C_18  and  C_20
REMARK                            x       y       z     vdW  Elec       q    Type
REMARK                         _______ _______ _______ _____ _____    ______ ____
ROOT
ATOM      1  N   UNL     1       0.611  11.332  18.526  0.00  0.00    +0.000 NA
ATOM      2  C   UNL     1       0.130  12.630  18.070  0.00  0.00    +0.000 C 
ATOM      3  C   UNL     1      -1.355  12.533  17.724  0.00  0.00    +0.000 C 
ATOM      4  C   UNL     1      -1.791  11.065  17.845  0.00  0.00    +0.000 C 
ATOM      5  C   UNL     1      -2.337  10.560  16.470  0.00  0.00    +0.000 C 
ATOM      6  C   UNL     1      -3.644  11.285  16.060  0.00  0.00    +0.000 C 
ATOM      7  C   UNL     1      -4.725  11.224  17.138  0.00  0.00    +0.000 C 
ATOM      8  N   UNL     1      -4.176  11.572  18.446  0.00  0.00    +0.000 N 
ATOM      9  C   UNL     1      -4.945  12.377  19.307  0.00  0.00    +0.000 C 
ATOM     10  O   UNL     1      -6.099  12.719  19.019  0.00  0.00    +0.000 OA
ATOM     11  C   UNL     1      -2.968  10.821  18.827  0.00  0.00    +0.000 C 
ATOM     12  C   UNL     1      -0.498  10.358  18.352  0.00  0.00    +0.000 C 
ENDROOT
BRANCH   9  13
ATOM     13  C   UNL     1      -4.373  12.846  20.605  0.00  0.00    +0.000 A 
ATOM     14  C   UNL     1      -3.346  13.778  20.599  0.00  0.00    +0.000 A 
ATOM     15  N   UNL     1      -2.807  14.272  21.743  0.00  0.00    +0.000 NA
ATOM     16  C   UNL     1      -3.339  13.790  22.890  0.00  0.00    +0.000 A 
ATOM     17  C   UNL     1      -4.336  12.833  22.903  0.00  0.00    +0.000 A 
ATOM     18  N   UNL     1      -4.861  12.334  21.767  0.00  0.00    +0.000 NA
ENDBRANCH   9  13
BRANCH   1  19
ATOM     19  C   UNL     1       1.239  11.384  19.883  0.00  0.00    +0.000 C 
BRANCH  19  25
ATOM     20  C   UNL     1       0.909   9.507  21.661  0.00  0.00    +0.000 A 
ATOM     21  C   UNL     1       0.448   9.114  22.939  0.00  0.00    +0.000 A 
ATOM     22  C   UNL     1      -0.549   9.816  23.588  0.00  0.00    +0.000 A 
ATOM     23  C   UNL     1      -1.067  10.948  22.971  0.00  0.00    +0.000 A 
ATOM     24  C   UNL     1      -0.534  11.415  21.754  0.00  0.00    +0.000 A 
ATOM     25  C   UNL     1       0.489  10.730  21.073  0.00  0.00    +0.000 A 
BRANCH  20  27
ATOM     26  C   UNL     1       1.290   7.332  20.837  0.00  0.00    +0.000 C 
ATOM     27  O   UNL     1       1.769   8.685  20.958  0.00  0.00    +0.000 OA
ENDBRANCH  20  27
ENDBRANCH  19  25
ENDBRANCH   1  19
TORSDOF 4
ENDMDL
MODEL 8
REMARK VINA RESULT:      -6.4      2.408      4.200
REMARK  Name = 
REMARK  5 active torsions:
REMARK  status: ('A' for Active; 'I' for Inactive)
REMARK    1  A    between atoms: C_1  and  O_2
REMARK    2  A    between atoms: O_2  and  C_3
REMARK    3  A    between atoms: C_8  and  C_9
REMARK    4  A    between atoms: C_9  and  N_10
REMARK    5  A    between atoms: C_18  and  C_20
REMARK                            x       y       z     vdW  Elec       q    Type
REMARK                         _______ _______ _______ _____ _____    ______ ____
ROOT
ATOM      1  N   UNL     1       2.277   8.263  18.586  0.00  0.00    +0.000 NA
ATOM      2  C   UNL     1       1.504   7.381  17.722  0.00  0.00    +0.000 C 
ATOM      3  C   UNL     1       2.372   6.203  17.283  0.00  0.00    +0.000 C 
ATOM      4  C   UNL     1       3.802   6.433  17.793  0.00  0.00    +0.000 C 
ATOM      5  C   UNL     1       4.795   6.480  16.587  0.00  0.00    +0.000 C 
ATOM      6  C   UNL     1       4.893   5.116  15.859  0.00  0.00    +0.000 C 
ATOM      7  C   UNL     1       5.226   3.959  16.801  0.00  0.00    +0.000 C 
ATOM      8  N   UNL     1       4.381   3.997  17.991  0.00  0.00    +0.000 N 
ATOM      9  C   UNL     1       3.876   2.785  18.499  0.00  0.00    +0.000 C 
ATOM     10  O   UNL     1       4.201   1.693  18.015  0.00  0.00    +0.000 OA
ATOM     11  C   UNL     1       4.359   5.294  18.689  0.00  0.00    +0.000 C 
ATOM     12  C   UNL     1       3.674   7.757  18.606  0.00  0.00    +0.000 C 
ENDROOT
BRANCH   9  13
ATOM     13  C   UNL     1       2.920   2.794  19.646  0.00  0.00    +0.000 A 
ATOM     14  C   UNL     1       3.381   2.498  20.919  0.00  0.00    +0.000 A 
ATOM     15  N   UNL     1       2.572   2.524  22.009  0.00  0.00    +0.000 NA
ATOM     16  C   UNL     1       1.283   2.856  21.767  0.00  0.00    +0.000 A 
ATOM     17  C   UNL     1       0.809   3.115  20.495  0.00  0.00    +0.000 A 
ATOM     18  N   UNL     1       1.610   3.076  19.413  0.00  0.00    +0.000 NA
ENDBRANCH   9  13
BRANCH   1  19
ATOM     19  C   UNL     1       1.635   8.488  19.919  0.00  0.00    +0.000 C 
BRANCH  19  25
ATOM     20  C   UNL     1       0.577  10.435  21.291  0.00  0.00    +0.000 A 
ATOM     21  C   UNL     1      -0.021  11.717  21.317  0.00  0.00    +0.000 A 
ATOM     22  C   UNL     1      -0.680  12.221  20.212  0.00  0.00    +0.000 A 
ATOM     23  C   UNL     1      -0.711  11.454  19.055  0.00  0.00    +0.000 A 
ATOM     24  C   UNL     1      -0.019  10.229  18.982  0.00  0.00    +0.000 A 
ATOM     25  C   UNL     1       0.671   9.692  20.084  0.00  0.00    +0.000 A 
BRANCH  20  27
ATOM     26  C   UNL     1       0.026   9.462  23.366  0.00  0.00    +0.000 C 
ATOM     27  O   UNL     1       1.064   9.881  22.460  0.00  0.00    +0.000 OA
ENDBRANCH  20  27
ENDBRANCH  19  25
ENDBRANCH   1  19
TORSDOF 4
ENDMDL
MODEL 9
REMARK VINA RESULT:      -6.4      7.250     10.806
REMARK  Name = 
REMARK  5 active torsions:
REMARK  status: ('A' for Active; 'I' for Inactive)
REMARK    1  A    between atoms: C_1  and  O_2
REMARK    2  A    between atoms: O_2  and  C_3
REMARK    3  A    between atoms: C_8  and  C_9
REMARK    4  A    between atoms: C_9  and  N_10
REMARK    5  A    between atoms: C_18  and  C_20
REMARK                            x       y       z     vdW  Elec       q    Type
REMARK                         _______ _______ _______ _____ _____    ______ ____
ROOT
ATOM      1  N   UNL     1      -0.155  11.493  18.786  0.00  0.00    +0.000 NA
ATOM      2  C   UNL     1       0.292  11.405  20.171  0.00  0.00    +0.000 C 
ATOM      3  C   UNL     1       0.309  12.800  20.793  0.00  0.00    +0.000 C 
ATOM      4  C   UNL     1      -0.016  13.827  19.700  0.00  0.00    +0.000 C 
ATOM      5  C   UNL     1       1.169  14.836  19.550  0.00  0.00    +0.000 C 
ATOM      6  C   UNL     1       1.352  15.711  20.816  0.00  0.00    +0.000 C 
ATOM      7  C   UNL     1       0.070  16.427  21.238  0.00  0.00    +0.000 C 
ATOM      8  N   UNL     1      -1.062  15.503  21.250  0.00  0.00    +0.000 N 
ATOM      9  C   UNL     1      -1.999  15.599  22.296  0.00  0.00    +0.000 C 
ATOM     10  O   UNL     1      -1.933  16.493  23.148  0.00  0.00    +0.000 OA
ATOM     11  C   UNL     1      -1.239  14.732  20.008  0.00  0.00    +0.000 C 
ATOM     12  C   UNL     1      -0.295  12.934  18.453  0.00  0.00    +0.000 C 
ENDROOT
BRANCH   9  13
ATOM     13  C   UNL     1      -3.106  14.602  22.402  0.00  0.00    +0.000 A 
ATOM     14  C   UNL     1      -2.828  13.321  22.855  0.00  0.00    +0.000 A 
ATOM     15  N   UNL     1      -3.794  12.380  23.010  0.00  0.00    +0.000 NA
ATOM     16  C   UNL     1      -5.047  12.776  22.688  0.00  0.00    +0.000 A 
ATOM     17  C   UNL     1      -5.325  14.039  22.201  0.00  0.00    +0.000 A 
ATOM     18  N   UNL     1      -4.364  14.968  22.035  0.00  0.00    +0.000 NA
ENDBRANCH   9  13
BRANCH   1  19
ATOM     19  C   UNL     1      -1.342  10.628  18.497  0.00  0.00    +0.000 C 
BRANCH  19  25
ATOM     20  C   UNL     1      -3.300  11.255  16.896  0.00  0.00    +0.000 A 
ATOM     21  C   UNL     1      -4.668  11.563  16.714  0.00  0.00    +0.000 A 
ATOM     22  C   UNL     1      -5.426  12.089  17.744  0.00  0.00    +0.000 A 
ATOM     23  C   UNL     1      -4.821  12.274  18.980  0.00  0.00    +0.000 A 
ATOM     24  C   UNL     1      -3.493  11.860  19.203  0.00  0.00    +0.000 A 
ATOM     25  C   UNL     1      -2.698  11.312  18.181  0.00  0.00    +0.000 A 
BRANCH  20  27
ATOM     26  C   UNL     1      -3.283  10.331  14.727  0.00  0.00    +0.000 C 
ATOM     27  O   UNL     1      -2.524  10.909  15.805  0.00  0.00    +0.000 OA
ENDBRANCH  20  27
ENDBRANCH  19  25
ENDBRANCH   1  19
TORSDOF 4
ENDMDL
