MODEL 1
REMARK VINA RESULT:      -8.6      0.000      0.000
REMARK  Name = 
REMARK  12 active torsions:
REMARK  status: ('A' for Active; 'I' for Inactive)
REMARK    1  A    between atoms: C_1  and  C_2
REMARK    2  A    between atoms: C_4  and  C_5
REMARK    3  A    between atoms: C_5  and  C_6
REMARK    4  A    between atoms: C_5  and  C_7
REMARK    5  A    between atoms: N_9  and  C_10
REMARK    6  A    between atoms: C_10  and  C_11
REMARK    7  A    between atoms: N_13  and  C_14
REMARK    8  A    between atoms: C_18  and  C_19
REMARK    9  A    between atoms: C_19  and  C_21
REMARK   10  A    between atoms: N_23  and  C_24
REMARK   11  A    between atoms: C_24  and  C_25
REMARK   12  A    between atoms: C_24  and  C_26
REMARK                            x       y       z     vdW  Elec       q    Type
REMARK                         _______ _______ _______ _____ _____    ______ ____
ROOT
ATOM      1  C   UNL     1       0.404   9.753  20.169  0.00  0.00    +0.000 A 
ATOM      2  C   UNL     1       0.516   8.935  21.291  0.00  0.00    +0.000 A 
ATOM      3  N   UNL     1       1.269   7.805  21.328  0.00  0.00    +0.000 NA
ATOM      4  C   UNL     1       1.966   7.498  20.206  0.00  0.00    +0.000 A 
ATOM      5  C   UNL     1       1.938   8.263  19.048  0.00  0.00    +0.000 A 
ATOM      6  C   UNL     1       1.104   9.388  19.023  0.00  0.00    +0.000 A 
ENDROOT
BRANCH   1   9
ATOM      7  C   UNL     1      -1.475  11.057  19.282  0.00  0.00    +0.000 C 
ATOM      8  O   UNL     1      -1.833  10.184  18.488  0.00  0.00    +0.000 OA
ATOM      9  N   UNL     1      -0.386  10.919  20.122  0.00  0.00    +0.000 N 
ATOM     10  H   UNL     1      -0.471  11.457  20.990  0.00  0.00    +0.000 HD
BRANCH   7  11
ATOM     11  C   UNL     1      -2.228  12.382  19.339  0.00  0.00    +0.000 C 
BRANCH  11  17
ATOM     12  C   UNL     1      -5.368  12.640  19.297  0.00  0.00    +0.000 C 
ATOM     13  C   UNL     1      -4.481  12.685  20.487  0.00  0.00    +0.000 A 
ATOM     14  C   UNL     1      -4.842  12.811  21.813  0.00  0.00    +0.000 A 
ATOM     15  C   UNL     1      -3.635  12.797  22.539  0.00  0.00    +0.000 A 
ATOM     16  N   UNL     1      -2.579  12.674  21.732  0.00  0.00    +0.000 NA
ATOM     17  N   UNL     1      -3.108  12.594  20.483  0.00  0.00    +0.000 N 
BRANCH  15  18
ATOM     18  C   UNL     1      -3.493  12.913  24.030  0.00  0.00    +0.000 C 
ATOM     19  C   UNL     1      -3.272  14.358  24.481  0.00  0.00    +0.000 C 
ATOM     20  C   UNL     1      -4.680  12.290  24.763  0.00  0.00    +0.000 C 
ENDBRANCH  15  18
ENDBRANCH  11  17
ENDBRANCH   7  11
ENDBRANCH   1   9
BRANCH   5  21
ATOM     21  C   UNL     1       2.744   7.846  17.878  0.00  0.00    +0.000 C 
ATOM     22  O   UNL     1       2.772   8.575  16.887  0.00  0.00    +0.000 OA
BRANCH  21  23
ATOM     23  C   UNL     1       3.516   6.606  17.943  0.00  0.00    +0.000 A 
ATOM     24  C   UNL     1       4.882   6.492  18.123  0.00  0.00    +0.000 A 
ATOM     25  N   UNL     1       5.245   5.167  18.041  0.00  0.00    +0.000 N 
ATOM     26  C   UNL     1       4.097   4.398  17.917  0.00  0.00    +0.000 A 
ATOM     27  C   UNL     1       3.893   3.015  17.838  0.00  0.00    +0.000 A 
ATOM     28  C   UNL     1       2.574   2.594  17.759  0.00  0.00    +0.000 A 
ATOM     29  N   UNL     1       1.507   3.412  17.698  0.00  0.00    +0.000 NA
ATOM     30  C   UNL     1       1.711   4.749  17.743  0.00  0.00    +0.000 A 
ATOM     31  C   UNL     1       3.006   5.275  17.873  0.00  0.00    +0.000 A 
BRANCH  25  32
ATOM     32  C   UNL     1       6.628   4.672  17.970  0.00  0.00    +0.000 C 
ATOM     33  C   UNL     1       7.155   4.493  16.534  0.00  0.00    +0.000 C 
ATOM     34  C   UNL     1       7.633   5.549  18.726  0.00  0.00    +0.000 C 
ENDBRANCH  25  32
ENDBRANCH  21  23
ENDBRANCH   5  21
TORSDOF 7
ENDMDL
MODEL 2
REMARK VINA RESULT:      -8.5      1.229      2.528
REMARK  Name = 
REMARK  12 active torsions:
REMARK  status: ('A' for Active; 'I' for Inactive)
REMARK    1  A    between atoms: C_1  and  C_2
REMARK    2  A    between atoms: C_4  and  C_5
REMARK    3  A    between atoms: C_5  and  C_6
REMARK    4  A    between atoms: C_5  and  C_7
REMARK    5  A    between atoms: N_9  and  C_10
REMARK    6  A    between atoms: C_10  and  C_11
REMARK    7  A    between atoms: N_13  and  C_14
REMARK    8  A    between atoms: C_18  and  C_19
REMARK    9  A    between atoms: C_19  and  C_21
REMARK   10  A    between atoms: N_23  and  C_24
REMARK   11  A    between atoms: C_24  and  C_25
REMARK   12  A    between atoms: C_24  and  C_26
REMARK                            x       y       z     vdW  Elec       q    Type
REMARK                         _______ _______ _______ _____ _____    ______ ____
ROOT
ATOM      1  C   UNL     1       0.254   9.651  20.397  0.00  0.00    +0.000 A 
ATOM      2  C   UNL     1       0.416   8.806  21.493  0.00  0.00    +0.000 A 
ATOM      3  N   UNL     1       1.206   7.701  21.484  0.00  0.00    +0.000 NA
ATOM      4  C   UNL     1       1.891   7.449  20.341  0.00  0.00    +0.000 A 
ATOM      5  C   UNL     1       1.815   8.245  19.205  0.00  0.00    +0.000 A 
ATOM      6  C   UNL     1       0.944   9.341  19.228  0.00  0.00    +0.000 A 
ENDROOT
BRANCH   1   9
ATOM      7  C   UNL     1      -0.180  12.007  20.924  0.00  0.00    +0.000 C 
ATOM      8  O   UNL     1       0.917  12.191  21.458  0.00  0.00    +0.000 OA
ATOM      9  N   UNL     1      -0.573  10.790  20.397  0.00  0.00    +0.000 N 
ATOM     10  H   UNL     1      -1.242  10.879  19.625  0.00  0.00    +0.000 HD
BRANCH   7  11
ATOM     11  C   UNL     1      -1.190  13.147  20.858  0.00  0.00    +0.000 C 
BRANCH  11  17
ATOM     12  C   UNL     1      -3.586  13.212  22.903  0.00  0.00    +0.000 C 
ATOM     13  C   UNL     1      -3.642  12.831  21.469  0.00  0.00    +0.000 A 
ATOM     14  C   UNL     1      -4.748  12.465  20.727  0.00  0.00    +0.000 A 
ATOM     15  C   UNL     1      -4.267  12.209  19.428  0.00  0.00    +0.000 A 
ATOM     16  N   UNL     1      -2.947  12.395  19.349  0.00  0.00    +0.000 NA
ATOM     17  N   UNL     1      -2.578  12.787  20.596  0.00  0.00    +0.000 N 
BRANCH  15  18
ATOM     18  C   UNL     1      -5.085  11.768  18.249  0.00  0.00    +0.000 C 
ATOM     19  C   UNL     1      -4.216  11.288  17.086  0.00  0.00    +0.000 C 
ATOM     20  C   UNL     1      -6.112  10.706  18.636  0.00  0.00    +0.000 C 
ENDBRANCH  15  18
ENDBRANCH  11  17
ENDBRANCH   7  11
ENDBRANCH   1   9
BRANCH   5  21
ATOM     21  C   UNL     1       2.611   7.886  18.010  0.00  0.00    +0.000 C 
ATOM     22  O   UNL     1       2.623   8.659  17.052  0.00  0.00    +0.000 OA
BRANCH  21  23
ATOM     23  C   UNL     1       3.393   6.652  18.011  0.00  0.00    +0.000 A 
ATOM     24  C   UNL     1       4.763   6.542  18.168  0.00  0.00    +0.000 A 
ATOM     25  N   UNL     1       5.136   5.225  18.024  0.00  0.00    +0.000 N 
ATOM     26  C   UNL     1       3.992   4.452  17.883  0.00  0.00    +0.000 A 
ATOM     27  C   UNL     1       3.798   3.072  17.747  0.00  0.00    +0.000 A 
ATOM     28  C   UNL     1       2.481   2.643  17.667  0.00  0.00    +0.000 A 
ATOM     29  N   UNL     1       1.407   3.454  17.655  0.00  0.00    +0.000 NA
ATOM     30  C   UNL     1       1.602   4.790  17.755  0.00  0.00    +0.000 A 
ATOM     31  C   UNL     1       2.893   5.321  17.890  0.00  0.00    +0.000 A 
BRANCH  25  32
ATOM     32  C   UNL     1       6.522   4.745  17.913  0.00  0.00    +0.000 C 
ATOM     33  C   UNL     1       7.023   4.611  16.464  0.00  0.00    +0.000 C 
ATOM     34  C   UNL     1       7.532   5.610  18.675  0.00  0.00    +0.000 C 
ENDBRANCH  25  32
ENDBRANCH  21  23
ENDBRANCH   5  21
TORSDOF 7
ENDMDL
MODEL 3
REMARK VINA RESULT:      -8.3      2.378     10.613
REMARK  Name = 
REMARK  12 active torsions:
REMARK  status: ('A' for Active; 'I' for Inactive)
REMARK    1  A    between atoms: C_1  and  C_2
REMARK    2  A    between atoms: C_4  and  C_5
REMARK    3  A    between atoms: C_5  and  C_6
REMARK    4  A    between atoms: C_5  and  C_7
REMARK    5  A    between atoms: N_9  and  C_10
REMARK    6  A    between atoms: C_10  and  C_11
REMARK    7  A    between atoms: N_13  and  C_14
REMARK    8  A    between atoms: C_18  and  C_19
REMARK    9  A    between atoms: C_19  and  C_21
REMARK   10  A    between atoms: N_23  and  C_24
REMARK   11  A    between atoms: C_24  and  C_25
REMARK   12  A    between atoms: C_24  and  C_26
REMARK                            x       y       z     vdW  Elec       q    Type
REMARK                         _______ _______ _______ _____ _____    ______ ____
ROOT
ATOM      1  C   UNL     1       3.055   6.266  19.268  0.00  0.00    +0.000 A 
ATOM      2  C   UNL     1       2.307   6.013  20.415  0.00  0.00    +0.000 A 
ATOM      3  N   UNL     1       1.379   6.869  20.916  0.00  0.00    +0.000 NA
ATOM      4  C   UNL     1       1.167   8.015  20.221  0.00  0.00    +0.000 A 
ATOM      5  C   UNL     1       1.843   8.345  19.054  0.00  0.00    +0.000 A 
ATOM      6  C   UNL     1       2.836   7.468  18.599  0.00  0.00    +0.000 A 
ENDROOT
BRANCH   1   9
ATOM      7  C   UNL     1       3.742   4.425  17.799  0.00  0.00    +0.000 C 
ATOM      8  O   UNL     1       2.612   4.241  17.340  0.00  0.00    +0.000 OA
ATOM      9  N   UNL     1       4.026   5.387  18.752  0.00  0.00    +0.000 N 
ATOM     10  H   UNL     1       4.989   5.736  18.702  0.00  0.00    +0.000 HD
BRANCH   7  11
ATOM     11  C   UNL     1       4.897   3.542  17.343  0.00  0.00    +0.000 C 
BRANCH  11  17
ATOM     12  C   UNL     1       7.152   5.739  17.225  0.00  0.00    +0.000 C 
ATOM     13  C   UNL     1       6.641   4.918  16.098  0.00  0.00    +0.000 A 
ATOM     14  C   UNL     1       7.067   4.917  14.785  0.00  0.00    +0.000 A 
ATOM     15  C   UNL     1       6.268   3.962  14.127  0.00  0.00    +0.000 A 
ATOM     16  N   UNL     1       5.392   3.396  14.962  0.00  0.00    +0.000 NA
ATOM     17  N   UNL     1       5.638   3.978  16.165  0.00  0.00    +0.000 N 
BRANCH  15  18
ATOM     18  C   UNL     1       6.338   3.594  12.673  0.00  0.00    +0.000 C 
ATOM     19  C   UNL     1       4.954   3.497  12.031  0.00  0.00    +0.000 C 
ATOM     20  C   UNL     1       7.237   4.548  11.890  0.00  0.00    +0.000 C 
ENDBRANCH  15  18
ENDBRANCH  11  17
ENDBRANCH   7  11
ENDBRANCH   1   9
BRANCH   5  21
ATOM     21  C   UNL     1       1.530   9.617  18.365  0.00  0.00    +0.000 C 
ATOM     22  O   UNL     1       2.129   9.891  17.325  0.00  0.00    +0.000 OA
BRANCH  21  23
ATOM     23  C   UNL     1       0.494  10.493  18.909  0.00  0.00    +0.000 A 
ATOM     24  C   UNL     1       0.629  11.378  19.962  0.00  0.00    +0.000 A 
ATOM     25  N   UNL     1      -0.589  11.958  20.232  0.00  0.00    +0.000 N 
ATOM     26  C   UNL     1      -1.504  11.534  19.279  0.00  0.00    +0.000 A 
ATOM     27  C   UNL     1      -2.853  11.844  19.065  0.00  0.00    +0.000 A 
ATOM     28  C   UNL     1      -3.451  11.246  17.965  0.00  0.00    +0.000 A 
ATOM     29  N   UNL     1      -2.848  10.366  17.144  0.00  0.00    +0.000 NA
ATOM     30  C   UNL     1      -1.553  10.046  17.375  0.00  0.00    +0.000 A 
ATOM     31  C   UNL     1      -0.844  10.634  18.433  0.00  0.00    +0.000 A 
BRANCH  25  32
ATOM     32  C   UNL     1      -0.889  12.786  21.410  0.00  0.00    +0.000 C 
ATOM     33  C   UNL     1      -1.049  11.984  22.714  0.00  0.00    +0.000 C 
ATOM     34  C   UNL     1       0.148  13.886  21.666  0.00  0.00    +0.000 C 
ENDBRANCH  25  32
ENDBRANCH  21  23
ENDBRANCH   5  21
TORSDOF 7
ENDMDL
MODEL 4
REMARK VINA RESULT:      -8.3      2.343     10.759
REMARK  Name = 
REMARK  12 active torsions:
REMARK  status: ('A' for Active; 'I' for Inactive)
REMARK    1  A    between atoms: C_1  and  C_2
REMARK    2  A    between atoms: C_4  and  C_5
REMARK    3  A    between atoms: C_5  and  C_6
REMARK    4  A    between atoms: C_5  and  C_7
REMARK    5  A    between atoms: N_9  and  C_10
REMARK    6  A    between atoms: C_10  and  C_11
REMARK    7  A    between atoms: N_13  and  C_14
REMARK    8  A    between atoms: C_18  and  C_19
REMARK    9  A    between atoms: C_19  and  C_21
REMARK   10  A    between atoms: N_23  and  C_24
REMARK   11  A    between atoms: C_24  and  C_25
REMARK   12  A    between atoms: C_24  and  C_26
REMARK                            x       y       z     vdW  Elec       q    Type
REMARK                         _______ _______ _______ _____ _____    ______ ____
ROOT
ATOM      1  C   UNL     1       2.980   6.481  19.292  0.00  0.00    +0.000 A 
ATOM      2  C   UNL     1       2.216   6.264  20.437  0.00  0.00    +0.000 A 
ATOM      3  N   UNL     1       1.276   7.132  20.893  0.00  0.00    +0.000 NA
ATOM      4  C   UNL     1       1.067   8.250  20.154  0.00  0.00    +0.000 A 
ATOM      5  C   UNL     1       1.760   8.543  18.986  0.00  0.00    +0.000 A 
ATOM      6  C   UNL     1       2.764   7.657  18.578  0.00  0.00    +0.000 A 
ENDROOT
BRANCH   1   9
ATOM      7  C   UNL     1       3.719   4.646  17.843  0.00  0.00    +0.000 C 
ATOM      8  O   UNL     1       2.616   4.488  17.316  0.00  0.00    +0.000 OA
ATOM      9  N   UNL     1       3.964   5.590  18.823  0.00  0.00    +0.000 N 
ATOM     10  H   UNL     1       4.934   5.922  18.834  0.00  0.00    +0.000 HD
BRANCH   7  11
ATOM     11  C   UNL     1       4.884   3.746  17.444  0.00  0.00    +0.000 C 
BRANCH  11  17
ATOM     12  C   UNL     1       7.145   5.927  17.203  0.00  0.00    +0.000 C 
ATOM     13  C   UNL     1       6.629   5.048  16.124  0.00  0.00    +0.000 A 
ATOM     14  C   UNL     1       7.052   4.974  14.811  0.00  0.00    +0.000 A 
ATOM     15  C   UNL     1       6.248   3.987  14.208  0.00  0.00    +0.000 A 
ATOM     16  N   UNL     1       5.373   3.471  15.074  0.00  0.00    +0.000 NA
ATOM     17  N   UNL     1       5.623   4.116  16.243  0.00  0.00    +0.000 N 
BRANCH  15  18
ATOM     18  C   UNL     1       6.315   3.541  12.775  0.00  0.00    +0.000 C 
ATOM     19  C   UNL     1       4.930   3.433  12.136  0.00  0.00    +0.000 C 
ATOM     20  C   UNL     1       7.229   4.438  11.944  0.00  0.00    +0.000 C 
ENDBRANCH  15  18
ENDBRANCH  11  17
ENDBRANCH   7  11
ENDBRANCH   1   9
BRANCH   5  21
ATOM     21  C   UNL     1       1.450   9.788  18.247  0.00  0.00    +0.000 C 
ATOM     22  O   UNL     1       2.301  10.255  17.490  0.00  0.00    +0.000 OA
BRANCH  21  23
ATOM     23  C   UNL     1       0.134  10.406  18.400  0.00  0.00    +0.000 A 
ATOM     24  C   UNL     1      -0.975  10.197  17.601  0.00  0.00    +0.000 A 
ATOM     25  N   UNL     1      -1.996  11.023  18.011  0.00  0.00    +0.000 N 
ATOM     26  C   UNL     1      -1.592  11.697  19.155  0.00  0.00    +0.000 A 
ATOM     27  C   UNL     1      -2.245  12.611  19.990  0.00  0.00    +0.000 A 
ATOM     28  C   UNL     1      -1.526  13.057  21.089  0.00  0.00    +0.000 A 
ATOM     29  N   UNL     1      -0.253  12.719  21.366  0.00  0.00    +0.000 NA
ATOM     30  C   UNL     1       0.384  11.859  20.538  0.00  0.00    +0.000 A 
ATOM     31  C   UNL     1      -0.273  11.312  19.425  0.00  0.00    +0.000 A 
BRANCH  25  32
ATOM     32  C   UNL     1      -3.253  11.240  17.279  0.00  0.00    +0.000 C 
ATOM     33  C   UNL     1      -3.175  10.887  15.783  0.00  0.00    +0.000 C 
ATOM     34  C   UNL     1      -4.447  10.483  17.872  0.00  0.00    +0.000 C 
ENDBRANCH  25  32
ENDBRANCH  21  23
ENDBRANCH   5  21
TORSDOF 7
ENDMDL
MODEL 5
REMARK VINA RESULT:      -8.2      2.041      9.660
REMARK  Name = 
REMARK  12 active torsions:
REMARK  status: ('A' for Active; 'I' for Inactive)
REMARK    1  A    between atoms: C_1  and  C_2
REMARK    2  A    between atoms: C_4  and  C_5
REMARK    3  A    between atoms: C_5  and  C_6
REMARK    4  A    between atoms: C_5  and  C_7
REMARK    5  A    between atoms: N_9  and  C_10
REMARK    6  A    between atoms: C_10  and  C_11
REMARK    7  A    between atoms: N_13  and  C_14
REMARK    8  A    between atoms: C_18  and  C_19
REMARK    9  A    between atoms: C_19  and  C_21
REMARK   10  A    between atoms: N_23  and  C_24
REMARK   11  A    between atoms: C_24  and  C_25
REMARK   12  A    between atoms: C_24  and  C_26
REMARK                            x       y       z     vdW  Elec       q    Type
REMARK                         _______ _______ _______ _____ _____    ______ ____
ROOT
ATOM      1  C   UNL     1       1.377   8.690  20.245  0.00  0.00    +0.000 A 
ATOM      2  C   UNL     1       1.151   8.591  21.616  0.00  0.00    +0.000 A 
ATOM      3  N   UNL     1       0.491   9.529  22.343  0.00  0.00    +0.000 NA
ATOM      4  C   UNL     1       0.006  10.599  21.663  0.00  0.00    +0.000 A 
ATOM      5  C   UNL     1       0.158  10.775  20.294  0.00  0.00    +0.000 A 
ATOM      6  C   UNL     1       0.896   9.819  19.585  0.00  0.00    +0.000 A 
ENDROOT
BRANCH   1   9
ATOM      7  C   UNL     1       2.588   7.982  18.233  0.00  0.00    +0.000 C 
ATOM      8  O   UNL     1       2.464   9.066  17.658  0.00  0.00    +0.000 OA
ATOM      9  N   UNL     1       2.071   7.726  19.490  0.00  0.00    +0.000 N 
ATOM     10  H   UNL     1       2.603   7.022  20.012  0.00  0.00    +0.000 HD
BRANCH   7  11
ATOM     11  C   UNL     1       3.310   6.834  17.535  0.00  0.00    +0.000 C 
BRANCH  11  17
ATOM     12  C   UNL     1       5.965   5.613  18.711  0.00  0.00    +0.000 C 
ATOM     13  C   UNL     1       4.594   5.052  18.823  0.00  0.00    +0.000 A 
ATOM     14  C   UNL     1       4.193   3.912  19.489  0.00  0.00    +0.000 A 
ATOM     15  C   UNL     1       2.801   3.828  19.294  0.00  0.00    +0.000 A 
ATOM     16  N   UNL     1       2.347   4.841  18.552  0.00  0.00    +0.000 NA
ATOM     17  N   UNL     1       3.448   5.589  18.282  0.00  0.00    +0.000 N 
BRANCH  15  18
ATOM     18  C   UNL     1       1.893   2.752  19.818  0.00  0.00    +0.000 C 
ATOM     19  C   UNL     1       1.326   3.091  21.197  0.00  0.00    +0.000 C 
ATOM     20  C   UNL     1       0.772   2.426  18.833  0.00  0.00    +0.000 C 
ENDBRANCH  15  18
ENDBRANCH  11  17
ENDBRANCH   7  11
ENDBRANCH   1   9
BRANCH   5  21
ATOM     21  C   UNL     1      -0.418  11.974  19.645  0.00  0.00    +0.000 C 
ATOM     22  O   UNL     1       0.322  12.924  19.391  0.00  0.00    +0.000 OA
BRANCH  21  23
ATOM     23  C   UNL     1      -1.834  11.986  19.285  0.00  0.00    +0.000 A 
ATOM     24  C   UNL     1      -2.874  12.501  20.037  0.00  0.00    +0.000 A 
ATOM     25  N   UNL     1      -4.068  12.247  19.401  0.00  0.00    +0.000 N 
ATOM     26  C   UNL     1      -3.802  11.661  18.172  0.00  0.00    +0.000 A 
ATOM     27  C   UNL     1      -4.635  11.244  17.127  0.00  0.00    +0.000 A 
ATOM     28  C   UNL     1      -4.000  10.725  16.008  0.00  0.00    +0.000 A 
ATOM     29  N   UNL     1      -2.672  10.549  15.888  0.00  0.00    +0.000 NA
ATOM     30  C   UNL     1      -1.873  10.925  16.915  0.00  0.00    +0.000 A 
ATOM     31  C   UNL     1      -2.414  11.506  18.072  0.00  0.00    +0.000 A 
BRANCH  25  32
ATOM     32  C   UNL     1      -5.400  12.452  19.991  0.00  0.00    +0.000 C 
ATOM     33  C   UNL     1      -5.395  12.556  21.526  0.00  0.00    +0.000 C 
ATOM     34  C   UNL     1      -6.129  13.685  19.445  0.00  0.00    +0.000 C 
ENDBRANCH  25  32
ENDBRANCH  21  23
ENDBRANCH   5  21
TORSDOF 7
ENDMDL
MODEL 6
REMARK VINA RESULT:      -8.2      2.406     10.756
REMARK  Name = 
REMARK  12 active torsions:
REMARK  status: ('A' for Active; 'I' for Inactive)
REMARK    1  A    between atoms: C_1  and  C_2
REMARK    2  A    between atoms: C_4  and  C_5
REMARK    3  A    between atoms: C_5  and  C_6
REMARK    4  A    between atoms: C_5  and  C_7
REMARK    5  A    between atoms: N_9  and  C_10
REMARK    6  A    between atoms: C_10  and  C_11
REMARK    7  A    between atoms: N_13  and  C_14
REMARK    8  A    between atoms: C_18  and  C_19
REMARK    9  A    between atoms: C_19  and  C_21
REMARK   10  A    between atoms: N_23  and  C_24
REMARK   11  A    between atoms: C_24  and  C_25
REMARK   12  A    between atoms: C_24  and  C_26
REMARK                            x       y       z     vdW  Elec       q    Type
REMARK                         _______ _______ _______ _____ _____    ______ ____
ROOT
ATOM      1  C   UNL     1       2.808   6.306  18.915  0.00  0.00    +0.000 A 
ATOM      2  C   UNL     1       2.330   6.159  20.216  0.00  0.00    +0.000 A 
ATOM      3  N   UNL     1       1.606   7.106  20.866  0.00  0.00    +0.000 NA
ATOM      4  C   UNL     1       1.318   8.237  20.174  0.00  0.00    +0.000 A 
ATOM      5  C   UNL     1       1.727   8.466  18.867  0.00  0.00    +0.000 A 
ATOM      6  C   UNL     1       2.524   7.495  18.248  0.00  0.00    +0.000 A 
ENDROOT
BRANCH   1   9
ATOM      7  C   UNL     1       4.834   4.949  18.652  0.00  0.00    +0.000 C 
ATOM      8  O   UNL     1       5.409   5.444  19.624  0.00  0.00    +0.000 OA
ATOM      9  N   UNL     1       3.569   5.332  18.242  0.00  0.00    +0.000 N 
ATOM     10  H   UNL     1       3.053   4.585  17.767  0.00  0.00    +0.000 HD
BRANCH   7  11
ATOM     11  C   UNL     1       5.539   3.886  17.816  0.00  0.00    +0.000 C 
BRANCH  11  17
ATOM     12  C   UNL     1       7.278   6.415  17.105  0.00  0.00    +0.000 C 
ATOM     13  C   UNL     1       6.786   5.374  16.168  0.00  0.00    +0.000 A 
ATOM     14  C   UNL     1       7.015   5.274  14.810  0.00  0.00    +0.000 A 
ATOM     15  C   UNL     1       6.335   4.114  14.394  0.00  0.00    +0.000 A 
ATOM     16  N   UNL     1       5.713   3.517  15.415  0.00  0.00    +0.000 NA
ATOM     17  N   UNL     1       6.006   4.288  16.494  0.00  0.00    +0.000 N 
BRANCH  15  18
ATOM     18  C   UNL     1       6.271   3.575  12.994  0.00  0.00    +0.000 C 
ATOM     19  C   UNL     1       4.846   3.561  12.441  0.00  0.00    +0.000 C 
ATOM     20  C   UNL     1       7.213   4.325  12.054  0.00  0.00    +0.000 C 
ENDBRANCH  15  18
ENDBRANCH  11  17
ENDBRANCH   7  11
ENDBRANCH   1   9
BRANCH   5  21
ATOM     21  C   UNL     1       1.352   9.731  18.197  0.00  0.00    +0.000 C 
ATOM     22  O   UNL     1       2.227  10.381  17.623  0.00  0.00    +0.000 OA
BRANCH  21  23
ATOM     23  C   UNL     1      -0.046  10.156  18.194  0.00  0.00    +0.000 A 
ATOM     24  C   UNL     1      -1.045   9.710  17.347  0.00  0.00    +0.000 A 
ATOM     25  N   UNL     1      -2.204  10.407  17.598  0.00  0.00    +0.000 N 
ATOM     26  C   UNL     1      -1.996  11.238  18.690  0.00  0.00    +0.000 A 
ATOM     27  C   UNL     1      -2.839  12.117  19.379  0.00  0.00    +0.000 A 
ATOM     28  C   UNL     1      -2.285  12.767  20.473  0.00  0.00    +0.000 A 
ATOM     29  N   UNL     1      -1.004  12.651  20.870  0.00  0.00    +0.000 NA
ATOM     30  C   UNL     1      -0.184  11.823  20.181  0.00  0.00    +0.000 A 
ATOM     31  C   UNL     1      -0.662  11.082  19.089  0.00  0.00    +0.000 A 
BRANCH  25  32
ATOM     32  C   UNL     1      -3.414  10.364  16.764  0.00  0.00    +0.000 C 
ATOM     33  C   UNL     1      -4.338  11.583  16.940  0.00  0.00    +0.000 C 
ATOM     34  C   UNL     1      -3.122  10.216  15.267  0.00  0.00    +0.000 C 
ENDBRANCH  25  32
ENDBRANCH  21  23
ENDBRANCH   5  21
TORSDOF 7
ENDMDL
MODEL 7
REMARK VINA RESULT:      -8.1      2.209     10.468
REMARK  Name = 
REMARK  12 active torsions:
REMARK  status: ('A' for Active; 'I' for Inactive)
REMARK    1  A    between atoms: C_1  and  C_2
REMARK    2  A    between atoms: C_4  and  C_5
REMARK    3  A    between atoms: C_5  and  C_6
REMARK    4  A    between atoms: C_5  and  C_7
REMARK    5  A    between atoms: N_9  and  C_10
REMARK    6  A    between atoms: C_10  and  C_11
REMARK    7  A    between atoms: N_13  and  C_14
REMARK    8  A    between atoms: C_18  and  C_19
REMARK    9  A    between atoms: C_19  and  C_21
REMARK   10  A    between atoms: N_23  and  C_24
REMARK   11  A    between atoms: C_24  and  C_25
REMARK   12  A    between atoms: C_24  and  C_26
REMARK                            x       y       z     vdW  Elec       q    Type
REMARK                         _______ _______ _______ _____ _____    ______ ____
ROOT
ATOM      1  C   UNL     1       1.071   9.233  19.514  0.00  0.00    +0.000 A 
ATOM      2  C   UNL     1       0.333   9.918  18.552  0.00  0.00    +0.000 A 
ATOM      3  N   UNL     1      -0.640  10.819  18.847  0.00  0.00    +0.000 NA
ATOM      4  C   UNL     1      -0.863  11.070  20.161  0.00  0.00    +0.000 A 
ATOM      5  C   UNL     1      -0.163  10.456  21.192  0.00  0.00    +0.000 A 
ATOM      6  C   UNL     1       0.791   9.489  20.854  0.00  0.00    +0.000 A 
ENDROOT
BRANCH   1   9
ATOM      7  C   UNL     1       2.695   8.220  17.980  0.00  0.00    +0.000 C 
ATOM      8  O   UNL     1       2.410   8.960  17.035  0.00  0.00    +0.000 OA
ATOM      9  N   UNL     1       2.072   8.290  19.213  0.00  0.00    +0.000 N 
ATOM     10  H   UNL     1       2.670   7.983  19.987  0.00  0.00    +0.000 HD
BRANCH   7  11
ATOM     11  C   UNL     1       3.756   7.140  17.802  0.00  0.00    +0.000 C 
BRANCH  11  17
ATOM     12  C   UNL     1       5.910   5.224  19.073  0.00  0.00    +0.000 C 
ATOM     13  C   UNL     1       4.439   5.023  19.042  0.00  0.00    +0.000 A 
ATOM     14  C   UNL     1       3.709   3.987  19.590  0.00  0.00    +0.000 A 
ATOM     15  C   UNL     1       2.363   4.268  19.288  0.00  0.00    +0.000 A 
ATOM     16  N   UNL     1       2.243   5.402  18.593  0.00  0.00    +0.000 NA
ATOM     17  N   UNL     1       3.514   5.861  18.461  0.00  0.00    +0.000 N 
BRANCH  15  18
ATOM     18  C   UNL     1       1.174   3.430  19.662  0.00  0.00    +0.000 C 
ATOM     19  C   UNL     1       1.011   2.214  18.749  0.00  0.00    +0.000 C 
ATOM     20  C   UNL     1       1.217   3.007  21.129  0.00  0.00    +0.000 C 
ENDBRANCH  15  18
ENDBRANCH  11  17
ENDBRANCH   7  11
ENDBRANCH   1   9
BRANCH   5  21
ATOM     21  C   UNL     1      -0.476  10.807  22.595  0.00  0.00    +0.000 C 
ATOM     22  O   UNL     1       0.044  10.154  23.500  0.00  0.00    +0.000 OA
BRANCH  21  23
ATOM     23  C   UNL     1      -1.356  11.940  22.874  0.00  0.00    +0.000 A 
ATOM     24  C   UNL     1      -2.627  11.885  23.417  0.00  0.00    +0.000 A 
ATOM     25  N   UNL     1      -3.168  13.150  23.445  0.00  0.00    +0.000 N 
ATOM     26  C   UNL     1      -2.204  14.055  23.022  0.00  0.00    +0.000 A 
ATOM     27  C   UNL     1      -2.210  15.450  22.900  0.00  0.00    +0.000 A 
ATOM     28  C   UNL     1      -1.027  16.032  22.471  0.00  0.00    +0.000 A 
ATOM     29  N   UNL     1       0.082  15.355  22.119  0.00  0.00    +0.000 NA
ATOM     30  C   UNL     1       0.072  14.004  22.209  0.00  0.00    +0.000 A 
ATOM     31  C   UNL     1      -1.061  13.322  22.679  0.00  0.00    +0.000 A 
BRANCH  25  32
ATOM     32  C   UNL     1      -4.571  13.464  23.752  0.00  0.00    +0.000 C 
ATOM     33  C   UNL     1      -5.465  13.618  22.508  0.00  0.00    +0.000 C 
ATOM     34  C   UNL     1      -5.239  12.442  24.679  0.00  0.00    +0.000 C 
ENDBRANCH  25  32
ENDBRANCH  21  23
ENDBRANCH   5  21
TORSDOF 7
ENDMDL
MODEL 8
REMARK VINA RESULT:      -8.1      1.488      3.563
REMARK  Name = 
REMARK  12 active torsions:
REMARK  status: ('A' for Active; 'I' for Inactive)
REMARK    1  A    between atoms: C_1  and  C_2
REMARK    2  A    between atoms: C_4  and  C_5
REMARK    3  A    between atoms: C_5  and  C_6
REMARK    4  A    between atoms: C_5  and  C_7
REMARK    5  A    between atoms: N_9  and  C_10
REMARK    6  A    between atoms: C_10  and  C_11
REMARK    7  A    between atoms: N_13  and  C_14
REMARK    8  A    between atoms: C_18  and  C_19
REMARK    9  A    between atoms: C_19  and  C_21
REMARK   10  A    between atoms: N_23  and  C_24
REMARK   11  A    between atoms: C_24  and  C_25
REMARK   12  A    between atoms: C_24  and  C_26
REMARK                            x       y       z     vdW  Elec       q    Type
REMARK                         _______ _______ _______ _____ _____    ______ ____
ROOT
ATOM      1  C   UNL     1      -0.023   9.995  20.479  0.00  0.00    +0.000 A 
ATOM      2  C   UNL     1       0.285   9.291  21.641  0.00  0.00    +0.000 A 
ATOM      3  N   UNL     1       1.161   8.254  21.685  0.00  0.00    +0.000 NA
ATOM      4  C   UNL     1       1.780   7.927  20.523  0.00  0.00    +0.000 A 
ATOM      5  C   UNL     1       1.558   8.584  19.320  0.00  0.00    +0.000 A 
ATOM      6  C   UNL     1       0.604   9.608  19.297  0.00  0.00    +0.000 A 
ENDROOT
BRANCH   1   9
ATOM      7  C   UNL     1      -0.707  12.285  21.030  0.00  0.00    +0.000 C 
ATOM      8  O   UNL     1       0.308  12.535  21.684  0.00  0.00    +0.000 OA
ATOM      9  N   UNL     1      -0.940  11.063  20.426  0.00  0.00    +0.000 N 
ATOM     10  H   UNL     1      -1.528  11.128  19.590  0.00  0.00    +0.000 HD
BRANCH   7  11
ATOM     11  C   UNL     1      -1.797  13.342  20.892  0.00  0.00    +0.000 C 
BRANCH  11  17
ATOM     12  C   UNL     1      -4.295  13.405  22.812  0.00  0.00    +0.000 C 
ATOM     13  C   UNL     1      -4.252  12.909  21.413  0.00  0.00    +0.000 A 
ATOM     14  C   UNL     1      -5.293  12.411  20.654  0.00  0.00    +0.000 A 
ATOM     15  C   UNL     1      -4.731  12.086  19.405  0.00  0.00    +0.000 A 
ATOM     16  N   UNL     1      -3.423  12.354  19.370  0.00  0.00    +0.000 NA
ATOM     17  N   UNL     1      -3.145  12.868  20.596  0.00  0.00    +0.000 N 
BRANCH  15  18
ATOM     18  C   UNL     1      -5.458  11.498  18.229  0.00  0.00    +0.000 C 
ATOM     19  C   UNL     1      -6.617  10.596  18.655  0.00  0.00    +0.000 C 
ATOM     20  C   UNL     1      -5.937  12.578  17.261  0.00  0.00    +0.000 C 
ENDBRANCH  15  18
ENDBRANCH  11  17
ENDBRANCH   7  11
ENDBRANCH   1   9
BRANCH   5  21
ATOM     21  C   UNL     1       2.292   8.154  18.109  0.00  0.00    +0.000 C 
ATOM     22  O   UNL     1       2.442   8.959  17.189  0.00  0.00    +0.000 OA
BRANCH  21  23
ATOM     23  C   UNL     1       2.856   6.807  18.050  0.00  0.00    +0.000 A 
ATOM     24  C   UNL     1       2.222   5.629  18.401  0.00  0.00    +0.000 A 
ATOM     25  N   UNL     1       3.108   4.582  18.289  0.00  0.00    +0.000 N 
ATOM     26  C   UNL     1       4.297   5.059  17.756  0.00  0.00    +0.000 A 
ATOM     27  C   UNL     1       5.493   4.424  17.403  0.00  0.00    +0.000 A 
ATOM     28  C   UNL     1       6.475   5.233  16.849  0.00  0.00    +0.000 A 
ATOM     29  N   UNL     1       6.374   6.564  16.684  0.00  0.00    +0.000 NA
ATOM     30  C   UNL     1       5.226   7.178  17.056  0.00  0.00    +0.000 A 
ATOM     31  C   UNL     1       4.154   6.442  17.581  0.00  0.00    +0.000 A 
BRANCH  25  32
ATOM     32  C   UNL     1       2.867   3.215  18.775  0.00  0.00    +0.000 C 
ATOM     33  C   UNL     1       1.807   3.125  19.888  0.00  0.00    +0.000 C 
ATOM     34  C   UNL     1       2.462   2.234  17.670  0.00  0.00    +0.000 C 
ENDBRANCH  25  32
ENDBRANCH  21  23
ENDBRANCH   5  21
TORSDOF 7
ENDMDL
MODEL 9
REMARK VINA RESULT:      -8.1      1.083      1.192
REMARK  Name = 
REMARK  12 active torsions:
REMARK  status: ('A' for Active; 'I' for Inactive)
REMARK    1  A    between atoms: C_1  and  C_2
REMARK    2  A    between atoms: C_4  and  C_5
REMARK    3  A    between atoms: C_5  and  C_6
REMARK    4  A    between atoms: C_5  and  C_7
REMARK    5  A    between atoms: N_9  and  C_10
REMARK    6  A    between atoms: C_10  and  C_11
REMARK    7  A    between atoms: N_13  and  C_14
REMARK    8  A    between atoms: C_18  and  C_19
REMARK    9  A    between atoms: C_19  and  C_21
REMARK   10  A    between atoms: N_23  and  C_24
REMARK   11  A    between atoms: C_24  and  C_25
REMARK   12  A    between atoms: C_24  and  C_26
REMARK                            x       y       z     vdW  Elec       q    Type
REMARK                         _______ _______ _______ _____ _____    ______ ____
ROOT
ATOM      1  C   UNL     1       0.351   9.843  19.992  0.00  0.00    +0.000 A 
ATOM      2  C   UNL     1       0.476   9.092  21.159  0.00  0.00    +0.000 A 
ATOM      3  N   UNL     1       1.257   7.985  21.264  0.00  0.00    +0.000 NA
ATOM      4  C   UNL     1       1.968   7.632  20.164  0.00  0.00    +0.000 A 
ATOM      5  C   UNL     1       1.929   8.331  18.964  0.00  0.00    +0.000 A 
ATOM      6  C   UNL     1       1.068   9.431  18.872  0.00  0.00    +0.000 A 
ENDROOT
BRANCH   1   9
ATOM      7  C   UNL     1      -0.492  11.991  20.823  0.00  0.00    +0.000 C 
ATOM      8  O   UNL     1       0.178  11.965  21.858  0.00  0.00    +0.000 OA
ATOM      9  N   UNL     1      -0.466  10.984  19.876  0.00  0.00    +0.000 N 
ATOM     10  H   UNL     1      -0.672  11.312  18.927  0.00  0.00    +0.000 HD
BRANCH   7  11
ATOM     11  C   UNL     1      -1.434  13.161  20.561  0.00  0.00    +0.000 C 
BRANCH  11  17
ATOM     12  C   UNL     1      -3.968  12.137  18.994  0.00  0.00    +0.000 C 
ATOM     13  C   UNL     1      -3.908  12.575  20.411  0.00  0.00    +0.000 A 
ATOM     14  C   UNL     1      -4.928  12.590  21.342  0.00  0.00    +0.000 A 
ATOM     15  C   UNL     1      -4.353  13.085  22.528  0.00  0.00    +0.000 A 
ATOM     16  N   UNL     1      -3.059  13.369  22.364  0.00  0.00    +0.000 NA
ATOM     17  N   UNL     1      -2.795  13.041  21.073  0.00  0.00    +0.000 N 
BRANCH  15  18
ATOM     18  C   UNL     1      -5.060  13.300  23.836  0.00  0.00    +0.000 C 
ATOM     19  C   UNL     1      -6.576  13.149  23.708  0.00  0.00    +0.000 C 
ATOM     20  C   UNL     1      -4.513  12.388  24.932  0.00  0.00    +0.000 C 
ENDBRANCH  15  18
ENDBRANCH  11  17
ENDBRANCH   7  11
ENDBRANCH   1   9
BRANCH   5  21
ATOM     21  C   UNL     1       2.752   7.868  17.824  0.00  0.00    +0.000 C 
ATOM     22  O   UNL     1       2.798   8.560  16.807  0.00  0.00    +0.000 OA
BRANCH  21  23
ATOM     23  C   UNL     1       3.519   6.631  17.947  0.00  0.00    +0.000 A 
ATOM     24  C   UNL     1       4.881   6.520  18.161  0.00  0.00    +0.000 A 
ATOM     25  N   UNL     1       5.243   5.193  18.131  0.00  0.00    +0.000 N 
ATOM     26  C   UNL     1       4.096   4.421  18.008  0.00  0.00    +0.000 A 
ATOM     27  C   UNL     1       3.891   3.037  17.971  0.00  0.00    +0.000 A 
ATOM     28  C   UNL     1       2.573   2.616  17.876  0.00  0.00    +0.000 A 
ATOM     29  N   UNL     1       1.509   3.433  17.765  0.00  0.00    +0.000 NA
ATOM     30  C   UNL     1       1.716   4.771  17.770  0.00  0.00    +0.000 A 
ATOM     31  C   UNL     1       3.008   5.298  17.910  0.00  0.00    +0.000 A 
BRANCH  25  32
ATOM     32  C   UNL     1       6.626   4.694  18.107  0.00  0.00    +0.000 C 
ATOM     33  C   UNL     1       7.194   4.492  16.691  0.00  0.00    +0.000 C 
ATOM     34  C   UNL     1       7.611   5.579  18.880  0.00  0.00    +0.000 C 
ENDBRANCH  25  32
ENDBRANCH  21  23
ENDBRANCH   5  21
TORSDOF 7
ENDMDL
