MODEL 1
REMARK VINA RESULT:      -7.8      0.000      0.000
REMARK  Name = 
REMARK  5 active torsions:
REMARK  status: ('A' for Active; 'I' for Inactive)
REMARK    1  A    between atoms: C_2  and  C_3
REMARK    2  A    between atoms: C_3  and  N_4
REMARK    3  A    between atoms: C_5  and  C_6
REMARK    4  A    between atoms: N_18  and  C_19
REMARK    5  A    between atoms: C_19  and  C_20
REMARK                            x       y       z     vdW  Elec       q    Type
REMARK                         _______ _______ _______ _____ _____    ______ ____
ROOT
ATOM      1  N   UNL     1       3.782   4.838  18.459  0.00  0.00    +0.000 N 
ATOM      2  C   UNL     1       4.370   4.008  17.523  0.00  0.00    +0.000 A 
ATOM      3  N   UNL     1       3.703   2.870  17.442  0.00  0.00    +0.000 NA
ATOM      4  C   UNL     1       2.665   2.960  18.329  0.00  0.00    +0.000 A 
ATOM      5  C   UNL     1       1.659   2.026  18.622  0.00  0.00    +0.000 A 
ATOM      6  C   UNL     1       0.689   2.356  19.576  0.00  0.00    +0.000 A 
ATOM      7  C   UNL     1       0.723   3.588  20.227  0.00  0.00    +0.000 A 
ATOM      8  C   UNL     1       1.723   4.529  19.951  0.00  0.00    +0.000 A 
ATOM      9  C   UNL     1       2.683   4.182  18.989  0.00  0.00    +0.000 A 
ENDROOT
BRANCH   2  10
ATOM     10  C   UNL     1       5.518   4.279  16.697  0.00  0.00    +0.000 A 
ATOM     11  C   UNL     1       6.862   4.383  17.012  0.00  0.00    +0.000 A 
ATOM     12  N   UNL     1       7.726   4.657  15.966  0.00  0.00    +0.000 NA
ATOM     13  C   UNL     1       7.032   4.742  14.854  0.00  0.00    +0.000 A 
ATOM     14  S   UNL     1       5.346   4.481  14.991  0.00  0.00    +0.000 S 
ENDBRANCH   2  10
BRANCH   1  15
ATOM     15  C   UNL     1       4.180   6.175  18.850  0.00  0.00    +0.000 C 
BRANCH  15  17
ATOM     16  O   UNL     1       3.989   7.516  16.864  0.00  0.00    +0.000 OA
ATOM     17  C   UNL     1       3.551   7.238  17.976  0.00  0.00    +0.000 C 
ATOM     18  N   UNL     1       2.475   7.877  18.552  0.00  0.00    +0.000 N 
ATOM     19  H   UNL     1       2.041   7.467  19.368  0.00  0.00    +0.000 HD
BRANCH  18  20
ATOM     20  C   UNL     1       1.685   8.864  17.845  0.00  0.00    +0.000 C 
BRANCH  20  21
ATOM     21  C   UNL     1       0.844   9.634  18.828  0.00  0.00    +0.000 A 
ATOM     22  C   UNL     1       1.013   9.455  20.210  0.00  0.00    +0.000 A 
ATOM     23  C   UNL     1       0.167  10.099  21.114  0.00  0.00    +0.000 A 
ATOM     24  C   UNL     1      -0.852  10.927  20.647  0.00  0.00    +0.000 A 
ATOM     25  C   UNL     1      -1.020  11.121  19.278  0.00  0.00    +0.000 A 
ATOM     26  C   UNL     1      -0.180  10.474  18.371  0.00  0.00    +0.000 A 
ENDBRANCH  20  21
ENDBRANCH  18  20
ENDBRANCH  15  17
ENDBRANCH   1  15
TORSDOF 5
ENDMDL
MODEL 2
REMARK VINA RESULT:      -7.7      1.781      2.128
REMARK  Name = 
REMARK  5 active torsions:
REMARK  status: ('A' for Active; 'I' for Inactive)
REMARK    1  A    between atoms: C_2  and  C_3
REMARK    2  A    between atoms: C_3  and  N_4
REMARK    3  A    between atoms: C_5  and  C_6
REMARK    4  A    between atoms: N_18  and  C_19
REMARK    5  A    between atoms: C_19  and  C_20
REMARK                            x       y       z     vdW  Elec       q    Type
REMARK                         _______ _______ _______ _____ _____    ______ ____
ROOT
ATOM      1  N   UNL     1       3.354   5.298  19.122  0.00  0.00    +0.000 N 
ATOM      2  C   UNL     1       4.394   5.009  18.258  0.00  0.00    +0.000 A 
ATOM      3  N   UNL     1       4.199   3.830  17.692  0.00  0.00    +0.000 NA
ATOM      4  C   UNL     1       3.017   3.349  18.186  0.00  0.00    +0.000 A 
ATOM      5  C   UNL     1       2.356   2.144  17.901  0.00  0.00    +0.000 A 
ATOM      6  C   UNL     1       1.138   1.876  18.536  0.00  0.00    +0.000 A 
ATOM      7  C   UNL     1       0.592   2.787  19.439  0.00  0.00    +0.000 A 
ATOM      8  C   UNL     1       1.241   3.990  19.740  0.00  0.00    +0.000 A 
ATOM      9  C   UNL     1       2.458   4.243  19.090  0.00  0.00    +0.000 A 
ENDROOT
BRANCH   2  10
ATOM     10  C   UNL     1       5.537   5.825  17.944  0.00  0.00    +0.000 A 
ATOM     11  C   UNL     1       5.710   6.827  17.003  0.00  0.00    +0.000 A 
ATOM     12  N   UNL     1       6.957   7.426  16.958  0.00  0.00    +0.000 NA
ATOM     13  C   UNL     1       7.722   6.887  17.879  0.00  0.00    +0.000 A 
ATOM     14  S   UNL     1       7.000   5.675  18.848  0.00  0.00    +0.000 S 
ENDBRANCH   2  10
BRANCH   1  15
ATOM     15  C   UNL     1       3.164   6.485  19.931  0.00  0.00    +0.000 C 
BRANCH  15  17
ATOM     16  O   UNL     1       2.188   7.574  18.024  0.00  0.00    +0.000 OA
ATOM     17  C   UNL     1       2.291   7.513  19.245  0.00  0.00    +0.000 C 
ATOM     18  N   UNL     1       1.658   8.381  20.108  0.00  0.00    +0.000 N 
ATOM     19  H   UNL     1       1.618   8.151  21.092  0.00  0.00    +0.000 HD
BRANCH  18  20
ATOM     20  C   UNL     1       0.714   9.380  19.654  0.00  0.00    +0.000 C 
BRANCH  20  21
ATOM     21  C   UNL     1       0.074  10.046  20.843  0.00  0.00    +0.000 A 
ATOM     22  C   UNL     1      -0.001   9.385  22.079  0.00  0.00    +0.000 A 
ATOM     23  C   UNL     1      -0.678   9.968  23.151  0.00  0.00    +0.000 A 
ATOM     24  C   UNL     1      -1.284  11.214  22.999  0.00  0.00    +0.000 A 
ATOM     25  C   UNL     1      -1.205  11.884  21.780  0.00  0.00    +0.000 A 
ATOM     26  C   UNL     1      -0.533  11.301  20.704  0.00  0.00    +0.000 A 
ENDBRANCH  20  21
ENDBRANCH  18  20
ENDBRANCH  15  17
ENDBRANCH   1  15
TORSDOF 5
ENDMDL
MODEL 3
REMARK VINA RESULT:      -7.7      1.278      1.695
REMARK  Name = 
REMARK  5 active torsions:
REMARK  status: ('A' for Active; 'I' for Inactive)
REMARK    1  A    between atoms: C_2  and  C_3
REMARK    2  A    between atoms: C_3  and  N_4
REMARK    3  A    between atoms: C_5  and  C_6
REMARK    4  A    between atoms: N_18  and  C_19
REMARK    5  A    between atoms: C_19  and  C_20
REMARK                            x       y       z     vdW  Elec       q    Type
REMARK                         _______ _______ _______ _____ _____    ______ ____
ROOT
ATOM      1  N   UNL     1       3.365   4.487  18.423  0.00  0.00    +0.000 N 
ATOM      2  C   UNL     1       4.651   3.981  18.459  0.00  0.00    +0.000 A 
ATOM      3  N   UNL     1       4.790   3.163  19.487  0.00  0.00    +0.000 NA
ATOM      4  C   UNL     1       3.580   3.129  20.126  0.00  0.00    +0.000 A 
ATOM      5  C   UNL     1       3.194   2.409  21.267  0.00  0.00    +0.000 A 
ATOM      6  C   UNL     1       1.880   2.533  21.732  0.00  0.00    +0.000 A 
ATOM      7  C   UNL     1       0.970   3.362  21.077  0.00  0.00    +0.000 A 
ATOM      8  C   UNL     1       1.340   4.092  19.941  0.00  0.00    +0.000 A 
ATOM      9  C   UNL     1       2.660   3.950  19.487  0.00  0.00    +0.000 A 
ENDROOT
BRANCH   2  10
ATOM     10  C   UNL     1       5.727   4.234  17.536  0.00  0.00    +0.000 A 
ATOM     11  C   UNL     1       7.048   4.587  17.752  0.00  0.00    +0.000 A 
ATOM     12  N   UNL     1       7.837   4.758  16.627  0.00  0.00    +0.000 NA
ATOM     13  C   UNL     1       7.112   4.515  15.559  0.00  0.00    +0.000 A 
ATOM     14  S   UNL     1       5.487   4.056  15.835  0.00  0.00    +0.000 S 
ENDBRANCH   2  10
BRANCH   1  15
ATOM     15  C   UNL     1       2.786   5.402  17.460  0.00  0.00    +0.000 C 
BRANCH  15  17
ATOM     16  O   UNL     1       4.188   7.325  17.797  0.00  0.00    +0.000 OA
ATOM     17  C   UNL     1       3.057   6.849  17.809  0.00  0.00    +0.000 C 
ATOM     18  N   UNL     1       1.934   7.562  18.167  0.00  0.00    +0.000 N 
ATOM     19  H   UNL     1       1.023   7.178  17.958  0.00  0.00    +0.000 HD
BRANCH  18  20
ATOM     20  C   UNL     1       1.971   8.981  18.452  0.00  0.00    +0.000 C 
BRANCH  20  21
ATOM     21  C   UNL     1       1.139   9.271  19.673  0.00  0.00    +0.000 A 
ATOM     22  C   UNL     1       0.319  10.409  19.726  0.00  0.00    +0.000 A 
ATOM     23  C   UNL     1      -0.377  10.723  20.894  0.00  0.00    +0.000 A 
ATOM     24  C   UNL     1      -0.260   9.906  22.017  0.00  0.00    +0.000 A 
ATOM     25  C   UNL     1       0.542   8.767  21.970  0.00  0.00    +0.000 A 
ATOM     26  C   UNL     1       1.243   8.453  20.806  0.00  0.00    +0.000 A 
ENDBRANCH  20  21
ENDBRANCH  18  20
ENDBRANCH  15  17
ENDBRANCH   1  15
TORSDOF 5
ENDMDL
MODEL 4
REMARK VINA RESULT:      -7.6      1.442      1.764
REMARK  Name = 
REMARK  5 active torsions:
REMARK  status: ('A' for Active; 'I' for Inactive)
REMARK    1  A    between atoms: C_2  and  C_3
REMARK    2  A    between atoms: C_3  and  N_4
REMARK    3  A    between atoms: C_5  and  C_6
REMARK    4  A    between atoms: N_18  and  C_19
REMARK    5  A    between atoms: C_19  and  C_20
REMARK                            x       y       z     vdW  Elec       q    Type
REMARK                         _______ _______ _______ _____ _____    ______ ____
ROOT
ATOM      1  N   UNL     1       3.225   4.800  18.543  0.00  0.00    +0.000 N 
ATOM      2  C   UNL     1       4.542   4.398  18.419  0.00  0.00    +0.000 A 
ATOM      3  N   UNL     1       4.818   3.464  19.313  0.00  0.00    +0.000 NA
ATOM      4  C   UNL     1       3.668   3.249  20.023  0.00  0.00    +0.000 A 
ATOM      5  C   UNL     1       3.425   2.355  21.077  0.00  0.00    +0.000 A 
ATOM      6  C   UNL     1       2.146   2.312  21.645  0.00  0.00    +0.000 A 
ATOM      7  C   UNL     1       1.132   3.146  21.175  0.00  0.00    +0.000 A 
ATOM      8  C   UNL     1       1.359   4.048  20.128  0.00  0.00    +0.000 A 
ATOM      9  C   UNL     1       2.645   4.072  19.569  0.00  0.00    +0.000 A 
ENDROOT
BRANCH   2  10
ATOM     10  C   UNL     1       5.521   4.856  17.468  0.00  0.00    +0.000 A 
ATOM     11  C   UNL     1       6.448   5.881  17.537  0.00  0.00    +0.000 A 
ATOM     12  N   UNL     1       7.258   6.062  16.429  0.00  0.00    +0.000 NA
ATOM     13  C   UNL     1       6.951   5.159  15.527  0.00  0.00    +0.000 A 
ATOM     14  S   UNL     1       5.720   4.049  15.954  0.00  0.00    +0.000 S 
ENDBRANCH   2  10
BRANCH   1  15
ATOM     15  C   UNL     1       2.509   5.786  17.759  0.00  0.00    +0.000 C 
BRANCH  15  17
ATOM     16  O   UNL     1       2.755   7.306  19.604  0.00  0.00    +0.000 OA
ATOM     17  C   UNL     1       2.514   7.151  18.411  0.00  0.00    +0.000 C 
ATOM     18  N   UNL     1       2.195   8.184  17.557  0.00  0.00    +0.000 N 
ATOM     19  H   UNL     1       2.213   8.019  16.560  0.00  0.00    +0.000 HD
BRANCH  18  20
ATOM     20  C   UNL     1       2.229   9.572  17.968  0.00  0.00    +0.000 C 
BRANCH  20  21
ATOM     21  C   UNL     1       0.889   9.963  18.534  0.00  0.00    +0.000 A 
ATOM     22  C   UNL     1      -0.271   9.876  17.750  0.00  0.00    +0.000 A 
ATOM     23  C   UNL     1      -1.494  10.327  18.248  0.00  0.00    +0.000 A 
ATOM     24  C   UNL     1      -1.569  10.868  19.530  0.00  0.00    +0.000 A 
ATOM     25  C   UNL     1      -0.425  10.947  20.321  0.00  0.00    +0.000 A 
ATOM     26  C   UNL     1       0.801  10.501  19.825  0.00  0.00    +0.000 A 
ENDBRANCH  20  21
ENDBRANCH  18  20
ENDBRANCH  15  17
ENDBRANCH   1  15
TORSDOF 5
ENDMDL
MODEL 5
REMARK VINA RESULT:      -7.6      0.831      1.095
REMARK  Name = 
REMARK  5 active torsions:
REMARK  status: ('A' for Active; 'I' for Inactive)
REMARK    1  A    between atoms: C_2  and  C_3
REMARK    2  A    between atoms: C_3  and  N_4
REMARK    3  A    between atoms: C_5  and  C_6
REMARK    4  A    between atoms: N_18  and  C_19
REMARK    5  A    between atoms: C_19  and  C_20
REMARK                            x       y       z     vdW  Elec       q    Type
REMARK                         _______ _______ _______ _____ _____    ______ ____
ROOT
ATOM      1  N   UNL     1       3.817   4.789  18.525  0.00  0.00    +0.000 N 
ATOM      2  C   UNL     1       4.414   3.967  17.588  0.00  0.00    +0.000 A 
ATOM      3  N   UNL     1       3.760   2.821  17.505  0.00  0.00    +0.000 NA
ATOM      4  C   UNL     1       2.722   2.899  18.394  0.00  0.00    +0.000 A 
ATOM      5  C   UNL     1       1.727   1.953  18.687  0.00  0.00    +0.000 A 
ATOM      6  C   UNL     1       0.754   2.271  19.641  0.00  0.00    +0.000 A 
ATOM      7  C   UNL     1       0.775   3.503  20.294  0.00  0.00    +0.000 A 
ATOM      8  C   UNL     1       1.763   4.455  20.018  0.00  0.00    +0.000 A 
ATOM      9  C   UNL     1       2.726   4.120  19.055  0.00  0.00    +0.000 A 
ENDROOT
BRANCH   2  10
ATOM     10  C   UNL     1       5.559   4.251  16.762  0.00  0.00    +0.000 A 
ATOM     11  C   UNL     1       6.895   4.415  17.082  0.00  0.00    +0.000 A 
ATOM     12  N   UNL     1       7.757   4.685  16.033  0.00  0.00    +0.000 NA
ATOM     13  C   UNL     1       7.070   4.707  14.914  0.00  0.00    +0.000 A 
ATOM     14  S   UNL     1       5.394   4.390  15.048  0.00  0.00    +0.000 S 
ENDBRANCH   2  10
BRANCH   1  15
ATOM     15  C   UNL     1       4.201   6.130  18.917  0.00  0.00    +0.000 C 
BRANCH  15  17
ATOM     16  O   UNL     1       4.111   7.469  16.923  0.00  0.00    +0.000 OA
ATOM     17  C   UNL     1       3.610   7.184  18.007  0.00  0.00    +0.000 C 
ATOM     18  N   UNL     1       2.492   7.806  18.516  0.00  0.00    +0.000 N 
ATOM     19  H   UNL     1       2.015   7.390  19.305  0.00  0.00    +0.000 HD
BRANCH  18  20
ATOM     20  C   UNL     1       1.732   8.781  17.763  0.00  0.00    +0.000 C 
BRANCH  20  21
ATOM     21  C   UNL     1       1.384   9.946  18.652  0.00  0.00    +0.000 A 
ATOM     22  C   UNL     1       1.878  11.230  18.375  0.00  0.00    +0.000 A 
ATOM     23  C   UNL     1       1.630  12.285  19.254  0.00  0.00    +0.000 A 
ATOM     24  C   UNL     1       0.888  12.069  20.413  0.00  0.00    +0.000 A 
ATOM     25  C   UNL     1       0.381  10.801  20.690  0.00  0.00    +0.000 A 
ATOM     26  C   UNL     1       0.632   9.742  19.817  0.00  0.00    +0.000 A 
ENDBRANCH  20  21
ENDBRANCH  18  20
ENDBRANCH  15  17
ENDBRANCH   1  15
TORSDOF 5
ENDMDL
MODEL 6
REMARK VINA RESULT:      -7.5      0.891      1.419
REMARK  Name = 
REMARK  5 active torsions:
REMARK  status: ('A' for Active; 'I' for Inactive)
REMARK    1  A    between atoms: C_2  and  C_3
REMARK    2  A    between atoms: C_3  and  N_4
REMARK    3  A    between atoms: C_5  and  C_6
REMARK    4  A    between atoms: N_18  and  C_19
REMARK    5  A    between atoms: C_19  and  C_20
REMARK                            x       y       z     vdW  Elec       q    Type
REMARK                         _______ _______ _______ _____ _____    ______ ____
ROOT
ATOM      1  N   UNL     1       3.653   5.176  18.477  0.00  0.00    +0.000 N 
ATOM      2  C   UNL     1       4.284   4.428  17.500  0.00  0.00    +0.000 A 
ATOM      3  N   UNL     1       3.695   3.251  17.378  0.00  0.00    +0.000 NA
ATOM      4  C   UNL     1       2.665   3.233  18.280  0.00  0.00    +0.000 A 
ATOM      5  C   UNL     1       1.729   2.221  18.544  0.00  0.00    +0.000 A 
ATOM      6  C   UNL     1       0.752   2.444  19.521  0.00  0.00    +0.000 A 
ATOM      7  C   UNL     1       0.711   3.648  20.224  0.00  0.00    +0.000 A 
ATOM      8  C   UNL     1       1.641   4.665  19.977  0.00  0.00    +0.000 A 
ATOM      9  C   UNL     1       2.609   4.425  18.990  0.00  0.00    +0.000 A 
ENDROOT
BRANCH   2  10
ATOM     10  C   UNL     1       5.399   4.811  16.675  0.00  0.00    +0.000 A 
ATOM     11  C   UNL     1       6.520   5.575  16.954  0.00  0.00    +0.000 A 
ATOM     12  N   UNL     1       7.421   5.757  15.919  0.00  0.00    +0.000 NA
ATOM     13  C   UNL     1       6.987   5.113  14.860  0.00  0.00    +0.000 A 
ATOM     14  S   UNL     1       5.520   4.252  15.045  0.00  0.00    +0.000 S 
ENDBRANCH   2  10
BRANCH   1  15
ATOM     15  C   UNL     1       3.965   6.520  18.919  0.00  0.00    +0.000 C 
BRANCH  15  17
ATOM     16  O   UNL     1       2.886   7.815  17.206  0.00  0.00    +0.000 OA
ATOM     17  C   UNL     1       2.976   7.539  18.398  0.00  0.00    +0.000 C 
ATOM     18  N   UNL     1       2.218   8.142  19.379  0.00  0.00    +0.000 N 
ATOM     19  H   UNL     1       2.192   7.729  20.301  0.00  0.00    +0.000 HD
BRANCH  18  20
ATOM     20  C   UNL     1       1.158   9.080  19.077  0.00  0.00    +0.000 C 
BRANCH  20  21
ATOM     21  C   UNL     1       0.491   9.515  20.355  0.00  0.00    +0.000 A 
ATOM     22  C   UNL     1       0.169  10.864  20.571  0.00  0.00    +0.000 A 
ATOM     23  C   UNL     1      -0.361  11.276  21.794  0.00  0.00    +0.000 A 
ATOM     24  C   UNL     1      -0.577  10.346  22.810  0.00  0.00    +0.000 A 
ATOM     25  C   UNL     1      -0.273   9.003  22.601  0.00  0.00    +0.000 A 
ATOM     26  C   UNL     1       0.264   8.588  21.381  0.00  0.00    +0.000 A 
ENDBRANCH  20  21
ENDBRANCH  18  20
ENDBRANCH  15  17
ENDBRANCH   1  15
TORSDOF 5
ENDMDL
MODEL 7
REMARK VINA RESULT:      -7.5      1.103      1.378
REMARK  Name = 
REMARK  5 active torsions:
REMARK  status: ('A' for Active; 'I' for Inactive)
REMARK    1  A    between atoms: C_2  and  C_3
REMARK    2  A    between atoms: C_3  and  N_4
REMARK    3  A    between atoms: C_5  and  C_6
REMARK    4  A    between atoms: N_18  and  C_19
REMARK    5  A    between atoms: C_19  and  C_20
REMARK                            x       y       z     vdW  Elec       q    Type
REMARK                         _______ _______ _______ _____ _____    ______ ____
ROOT
ATOM      1  N   UNL     1       3.576   5.056  18.477  0.00  0.00    +0.000 N 
ATOM      2  C   UNL     1       4.137   4.339  17.437  0.00  0.00    +0.000 A 
ATOM      3  N   UNL     1       3.504   3.189  17.284  0.00  0.00    +0.000 NA
ATOM      4  C   UNL     1       2.514   3.158  18.229  0.00  0.00    +0.000 A 
ATOM      5  C   UNL     1       1.557   2.165  18.485  0.00  0.00    +0.000 A 
ATOM      6  C   UNL     1       0.631   2.369  19.515  0.00  0.00    +0.000 A 
ATOM      7  C   UNL     1       0.662   3.537  20.276  0.00  0.00    +0.000 A 
ATOM      8  C   UNL     1       1.614   4.535  20.038  0.00  0.00    +0.000 A 
ATOM      9  C   UNL     1       2.530   4.314  18.999  0.00  0.00    +0.000 A 
ENDROOT
BRANCH   2  10
ATOM     10  C   UNL     1       5.229   4.727  16.582  0.00  0.00    +0.000 A 
ATOM     11  C   UNL     1       5.240   5.307  15.325  0.00  0.00    +0.000 A 
ATOM     12  N   UNL     1       6.482   5.558  14.767  0.00  0.00    +0.000 NA
ATOM     13  C   UNL     1       7.411   5.183  15.615  0.00  0.00    +0.000 A 
ATOM     14  S   UNL     1       6.864   4.543  17.105  0.00  0.00    +0.000 S 
ENDBRANCH   2  10
BRANCH   1  15
ATOM     15  C   UNL     1       3.952   6.366  18.970  0.00  0.00    +0.000 C 
BRANCH  15  17
ATOM     16  O   UNL     1       3.040   7.834  17.299  0.00  0.00    +0.000 OA
ATOM     17  C   UNL     1       3.030   7.455  18.466  0.00  0.00    +0.000 C 
ATOM     18  N   UNL     1       2.211   7.993  19.435  0.00  0.00    +0.000 N 
ATOM     19  H   UNL     1       2.104   7.503  20.313  0.00  0.00    +0.000 HD
BRANCH  18  20
ATOM     20  C   UNL     1       1.200   8.985  19.137  0.00  0.00    +0.000 C 
BRANCH  20  21
ATOM     21  C   UNL     1       0.617   9.512  20.422  0.00  0.00    +0.000 A 
ATOM     22  C   UNL     1       0.478   8.676  21.540  0.00  0.00    +0.000 A 
ATOM     23  C   UNL     1      -0.149   9.143  22.697  0.00  0.00    +0.000 A 
ATOM     24  C   UNL     1      -0.640  10.446  22.747  0.00  0.00    +0.000 A 
ATOM     25  C   UNL     1      -0.495  11.288  21.646  0.00  0.00    +0.000 A 
ATOM     26  C   UNL     1       0.126  10.823  20.486  0.00  0.00    +0.000 A 
ENDBRANCH  20  21
ENDBRANCH  18  20
ENDBRANCH  15  17
ENDBRANCH   1  15
TORSDOF 5
ENDMDL
MODEL 8
REMARK VINA RESULT:      -7.4      1.965      2.399
REMARK  Name = 
REMARK  5 active torsions:
REMARK  status: ('A' for Active; 'I' for Inactive)
REMARK    1  A    between atoms: C_2  and  C_3
REMARK    2  A    between atoms: C_3  and  N_4
REMARK    3  A    between atoms: C_5  and  C_6
REMARK    4  A    between atoms: N_18  and  C_19
REMARK    5  A    between atoms: C_19  and  C_20
REMARK                            x       y       z     vdW  Elec       q    Type
REMARK                         _______ _______ _______ _____ _____    ______ ____
ROOT
ATOM      1  N   UNL     1       3.520   5.480  18.082  0.00  0.00    +0.000 N 
ATOM      2  C   UNL     1       4.852   5.160  18.267  0.00  0.00    +0.000 A 
ATOM      3  N   UNL     1       4.970   3.892  18.624  0.00  0.00    +0.000 NA
ATOM      4  C   UNL     1       3.702   3.378  18.664  0.00  0.00    +0.000 A 
ATOM      5  C   UNL     1       3.277   2.078  18.979  0.00  0.00    +0.000 A 
ATOM      6  C   UNL     1       1.908   1.788  18.943  0.00  0.00    +0.000 A 
ATOM      7  C   UNL     1       0.982   2.774  18.606  0.00  0.00    +0.000 A 
ATOM      8  C   UNL     1       1.388   4.077  18.295  0.00  0.00    +0.000 A 
ATOM      9  C   UNL     1       2.764   4.347  18.332  0.00  0.00    +0.000 A 
ENDROOT
BRANCH   2  10
ATOM     10  C   UNL     1       6.000   6.011  18.091  0.00  0.00    +0.000 A 
ATOM     11  C   UNL     1       6.248   7.031  17.189  0.00  0.00    +0.000 A 
ATOM     12  N   UNL     1       7.475   7.664  17.288  0.00  0.00    +0.000 NA
ATOM     13  C   UNL     1       8.148   7.131  18.281  0.00  0.00    +0.000 A 
ATOM     14  S   UNL     1       7.359   5.885  19.149  0.00  0.00    +0.000 S 
ENDBRANCH   2  10
BRANCH   1  15
ATOM     15  C   UNL     1       2.950   6.749  17.677  0.00  0.00    +0.000 C 
BRANCH  15  17
ATOM     16  O   UNL     1       2.408   7.087  19.994  0.00  0.00    +0.000 OA
ATOM     17  C   UNL     1       2.353   7.507  18.842  0.00  0.00    +0.000 C 
ATOM     18  N   UNL     1       1.725   8.681  18.488  0.00  0.00    +0.000 N 
ATOM     19  H   UNL     1       1.893   9.069  17.570  0.00  0.00    +0.000 HD
BRANCH  18  20
ATOM     20  C   UNL     1       1.167   9.591  19.466  0.00  0.00    +0.000 C 
BRANCH  20  21
ATOM     21  C   UNL     1      -0.086  10.218  18.914  0.00  0.00    +0.000 A 
ATOM     22  C   UNL     1      -0.725  11.263  19.598  0.00  0.00    +0.000 A 
ATOM     23  C   UNL     1      -1.935  11.776  19.132  0.00  0.00    +0.000 A 
ATOM     24  C   UNL     1      -2.518  11.252  17.979  0.00  0.00    +0.000 A 
ATOM     25  C   UNL     1      -1.885  10.222  17.285  0.00  0.00    +0.000 A 
ATOM     26  C   UNL     1      -0.677   9.703  17.752  0.00  0.00    +0.000 A 
ENDBRANCH  20  21
ENDBRANCH  18  20
ENDBRANCH  15  17
ENDBRANCH   1  15
TORSDOF 5
ENDMDL
MODEL 9
REMARK VINA RESULT:      -7.4      2.263      4.655
REMARK  Name = 
REMARK  5 active torsions:
REMARK  status: ('A' for Active; 'I' for Inactive)
REMARK    1  A    between atoms: C_2  and  C_3
REMARK    2  A    between atoms: C_3  and  N_4
REMARK    3  A    between atoms: C_5  and  C_6
REMARK    4  A    between atoms: N_18  and  C_19
REMARK    5  A    between atoms: C_19  and  C_20
REMARK                            x       y       z     vdW  Elec       q    Type
REMARK                         _______ _______ _______ _____ _____    ______ ____
ROOT
ATOM      1  N   UNL     1       3.861   5.726  18.437  0.00  0.00    +0.000 N 
ATOM      2  C   UNL     1       3.983   4.645  19.290  0.00  0.00    +0.000 A 
ATOM      3  N   UNL     1       5.259   4.394  19.526  0.00  0.00    +0.000 NA
ATOM      4  C   UNL     1       5.977   5.325  18.825  0.00  0.00    +0.000 A 
ATOM      5  C   UNL     1       7.367   5.501  18.741  0.00  0.00    +0.000 A 
ATOM      6  C   UNL     1       7.869   6.544  17.954  0.00  0.00    +0.000 A 
ATOM      7  C   UNL     1       7.005   7.391  17.261  0.00  0.00    +0.000 A 
ATOM      8  C   UNL     1       5.617   7.226  17.329  0.00  0.00    +0.000 A 
ATOM      9  C   UNL     1       5.133   6.178  18.127  0.00  0.00    +0.000 A 
ENDROOT
BRANCH   2  10
ATOM     10  C   UNL     1       2.930   3.874  19.898  0.00  0.00    +0.000 A 
ATOM     11  C   UNL     1       2.354   3.950  21.155  0.00  0.00    +0.000 A 
ATOM     12  N   UNL     1       1.344   3.045  21.431  0.00  0.00    +0.000 NA
ATOM     13  C   UNL     1       1.144   2.295  20.371  0.00  0.00    +0.000 A 
ATOM     14  S   UNL     1       2.118   2.639  19.006  0.00  0.00    +0.000 S 
ENDBRANCH   2  10
BRANCH   1  15
ATOM     15  C   UNL     1       2.649   6.341  17.936  0.00  0.00    +0.000 C 
BRANCH  15  17
ATOM     16  O   UNL     1       2.224   7.585  19.948  0.00  0.00    +0.000 OA
ATOM     17  C   UNL     1       2.264   7.575  18.722  0.00  0.00    +0.000 C 
ATOM     18  N   UNL     1       1.938   8.662  17.940  0.00  0.00    +0.000 N 
ATOM     19  H   UNL     1       2.188   8.654  16.961  0.00  0.00    +0.000 HD
BRANCH  18  20
ATOM     20  C   UNL     1       1.627   9.960  18.502  0.00  0.00    +0.000 C 
BRANCH  20  21
ATOM     21  C   UNL     1       0.143  10.203  18.417  0.00  0.00    +0.000 A 
ATOM     22  C   UNL     1      -0.625   9.595  17.412  0.00  0.00    +0.000 A 
ATOM     23  C   UNL     1      -1.981   9.897  17.280  0.00  0.00    +0.000 A 
ATOM     24  C   UNL     1      -2.581  10.806  18.150  0.00  0.00    +0.000 A 
ATOM     25  C   UNL     1      -1.830  11.405  19.160  0.00  0.00    +0.000 A 
ATOM     26  C   UNL     1      -0.473  11.110  19.290  0.00  0.00    +0.000 A 
ENDBRANCH  20  21
ENDBRANCH  18  20
ENDBRANCH  15  17
ENDBRANCH   1  15
TORSDOF 5
ENDMDL
