MODEL 1
REMARK VINA RESULT:      -8.0      0.000      0.000
REMARK  Name = 
REMARK  2 active torsions:
REMARK  status: ('A' for Active; 'I' for Inactive)
REMARK    1  A    between atoms: O_1  and  C_2
REMARK    2  A    between atoms: N_10  and  C_11
REMARK                            x       y       z     vdW  Elec       q    Type
REMARK                         _______ _______ _______ _____ _____    ______ ____
ROOT
ATOM      1  C   UNL     1       7.041   5.519  16.855  0.00  0.00    +0.000 A 
ATOM      2  N   UNL     1       7.772   5.987  17.883  0.00  0.00    +0.000 NA
ATOM      3  C   UNL     1       7.319   5.702  19.124  0.00  0.00    +0.000 A 
ATOM      4  N   UNL     1       6.219   5.001  19.480  0.00  0.00    +0.000 NA
ATOM      5  C   UNL     1       5.542   4.572  18.398  0.00  0.00    +0.000 A 
ATOM      6  C   UNL     1       5.879   4.785  17.069  0.00  0.00    +0.000 A 
ATOM      7  N   UNL     1       4.955   4.205  16.232  0.00  0.00    +0.000 NA
ATOM      8  C   UNL     1       4.070   3.655  17.036  0.00  0.00    +0.000 A 
ATOM      9  N   UNL     1       4.379   3.839  18.358  0.00  0.00    +0.000 N 
ENDROOT
BRANCH   9  10
ATOM     10  C   UNL     1       3.620   3.396  19.513  0.00  0.00    +0.000 C 
ATOM     11  C   UNL     1       2.745   2.152  19.238  0.00  0.00    +0.000 C 
ATOM     12  C   UNL     1       1.369   2.558  19.805  0.00  0.00    +0.000 C 
ATOM     13  C   UNL     1       1.457   2.703  21.336  0.00  0.00    +0.000 C 
ATOM     14  C   UNL     1       2.248   4.007  21.517  0.00  0.00    +0.000 C 
ATOM     15  C   UNL     1       2.580   4.412  20.068  0.00  0.00    +0.000 C 
ATOM     16  C   UNL     1       1.277   4.014  19.362  0.00  0.00    +0.000 C 
ENDBRANCH   9  10
BRANCH   1  17
ATOM     17  O   UNL     1       7.529   5.825  15.615  0.00  0.00    +0.000 OA
ATOM     18  H   UNL     1       6.703   5.990  15.129  0.00  0.00    +0.000 HD
ENDBRANCH   1  17
TORSDOF 2
ENDMDL
MODEL 2
REMARK VINA RESULT:      -7.6      1.289      1.316
REMARK  Name = 
REMARK  2 active torsions:
REMARK  status: ('A' for Active; 'I' for Inactive)
REMARK    1  A    between atoms: O_1  and  C_2
REMARK    2  A    between atoms: N_10  and  C_11
REMARK                            x       y       z     vdW  Elec       q    Type
REMARK                         _______ _______ _______ _____ _____    ______ ____
ROOT
ATOM      1  C   UNL     1       7.007   6.767  17.760  0.00  0.00    +0.000 A 
ATOM      2  N   UNL     1       7.915   6.408  18.686  0.00  0.00    +0.000 NA
ATOM      3  C   UNL     1       7.509   5.510  19.610  0.00  0.00    +0.000 A 
ATOM      4  N   UNL     1       6.303   4.914  19.736  0.00  0.00    +0.000 NA
ATOM      5  C   UNL     1       5.452   5.328  18.778  0.00  0.00    +0.000 A 
ATOM      6  C   UNL     1       5.720   6.240  17.768  0.00  0.00    +0.000 A 
ATOM      7  N   UNL     1       4.613   6.427  16.973  0.00  0.00    +0.000 NA
ATOM      8  C   UNL     1       3.688   5.649  17.493  0.00  0.00    +0.000 A 
ATOM      9  N   UNL     1       4.143   4.954  18.583  0.00  0.00    +0.000 N 
ENDROOT
BRANCH   9  10
ATOM     10  C   UNL     1       3.396   4.031  19.417  0.00  0.00    +0.000 C 
ATOM     11  C   UNL     1       2.196   3.377  18.695  0.00  0.00    +0.000 C 
ATOM     12  C   UNL     1       1.037   3.571  19.693  0.00  0.00    +0.000 C 
ATOM     13  C   UNL     1       1.293   2.735  20.961  0.00  0.00    +0.000 C 
ATOM     14  C   UNL     1       2.421   3.506  21.664  0.00  0.00    +0.000 C 
ATOM     15  C   UNL     1       2.722   4.650  20.676  0.00  0.00    +0.000 C 
ATOM     16  C   UNL     1       1.304   4.985  20.196  0.00  0.00    +0.000 C 
ENDBRANCH   9  10
BRANCH   1  17
ATOM     17  O   UNL     1       7.451   7.676  16.840  0.00  0.00    +0.000 OA
ATOM     18  H   UNL     1       6.615   8.101  16.585  0.00  0.00    +0.000 HD
ENDBRANCH   1  17
TORSDOF 2
ENDMDL
MODEL 3
REMARK VINA RESULT:      -7.5      1.439      1.551
REMARK  Name = 
REMARK  2 active torsions:
REMARK  status: ('A' for Active; 'I' for Inactive)
REMARK    1  A    between atoms: O_1  and  C_2
REMARK    2  A    between atoms: N_10  and  C_11
REMARK                            x       y       z     vdW  Elec       q    Type
REMARK                         _______ _______ _______ _____ _____    ______ ____
ROOT
ATOM      1  C   UNL     1       7.323   6.961  17.755  0.00  0.00    +0.000 A 
ATOM      2  N   UNL     1       8.136   6.566  18.751  0.00  0.00    +0.000 NA
ATOM      3  C   UNL     1       7.634   5.654  19.612  0.00  0.00    +0.000 A 
ATOM      4  N   UNL     1       6.413   5.075  19.612  0.00  0.00    +0.000 NA
ATOM      5  C   UNL     1       5.661   5.525  18.590  0.00  0.00    +0.000 A 
ATOM      6  C   UNL     1       6.034   6.455  17.630  0.00  0.00    +0.000 A 
ATOM      7  N   UNL     1       5.008   6.678  16.741  0.00  0.00    +0.000 NA
ATOM      8  C   UNL     1       4.029   5.904  17.155  0.00  0.00    +0.000 A 
ATOM      9  N   UNL     1       4.370   5.177  18.266  0.00  0.00    +0.000 N 
ENDROOT
BRANCH   9  10
ATOM     10  C   UNL     1       3.536   4.247  19.004  0.00  0.00    +0.000 C 
ATOM     11  C   UNL     1       3.445   2.847  18.354  0.00  0.00    +0.000 C 
ATOM     12  C   UNL     1       1.929   2.564  18.343  0.00  0.00    +0.000 C 
ATOM     13  C   UNL     1       1.415   2.411  19.786  0.00  0.00    +0.000 C 
ATOM     14  C   UNL     1       1.442   3.851  20.320  0.00  0.00    +0.000 C 
ATOM     15  C   UNL     1       2.038   4.643  19.139  0.00  0.00    +0.000 C 
ATOM     16  C   UNL     1       1.369   3.929  17.958  0.00  0.00    +0.000 C 
ENDBRANCH   9  10
BRANCH   1  17
ATOM     17  O   UNL     1       7.863   7.883  16.902  0.00  0.00    +0.000 OA
ATOM     18  H   UNL     1       7.370   8.681  17.157  0.00  0.00    +0.000 HD
ENDBRANCH   1  17
TORSDOF 2
ENDMDL
MODEL 4
REMARK VINA RESULT:      -7.4      2.658      5.509
REMARK  Name = 
REMARK  2 active torsions:
REMARK  status: ('A' for Active; 'I' for Inactive)
REMARK    1  A    between atoms: O_1  and  C_2
REMARK    2  A    between atoms: N_10  and  C_11
REMARK                            x       y       z     vdW  Elec       q    Type
REMARK                         _______ _______ _______ _____ _____    ______ ____
ROOT
ATOM      1  C   UNL     1       1.109   3.042  19.198  0.00  0.00    +0.000 A 
ATOM      2  N   UNL     1       0.947   3.448  20.470  0.00  0.00    +0.000 NA
ATOM      3  C   UNL     1       1.873   4.306  20.952  0.00  0.00    +0.000 A 
ATOM      4  N   UNL     1       2.954   4.820  20.324  0.00  0.00    +0.000 NA
ATOM      5  C   UNL     1       3.048   4.363  19.061  0.00  0.00    +0.000 A 
ATOM      6  C   UNL     1       2.180   3.484  18.429  0.00  0.00    +0.000 A 
ATOM      7  N   UNL     1       2.590   3.236  17.140  0.00  0.00    +0.000 NA
ATOM      8  C   UNL     1       3.688   3.944  16.992  0.00  0.00    +0.000 A 
ATOM      9  N   UNL     1       4.009   4.653  18.120  0.00  0.00    +0.000 N 
ENDROOT
BRANCH   9  10
ATOM     10  C   UNL     1       5.158   5.515  18.326  0.00  0.00    +0.000 C 
ATOM     11  C   UNL     1       5.439   6.465  17.140  0.00  0.00    +0.000 C 
ATOM     12  C   UNL     1       6.949   6.275  16.888  0.00  0.00    +0.000 C 
ATOM     13  C   UNL     1       7.751   6.819  18.085  0.00  0.00    +0.000 C 
ATOM     14  C   UNL     1       7.499   5.771  19.179  0.00  0.00    +0.000 C 
ATOM     15  C   UNL     1       6.524   4.791  18.497  0.00  0.00    +0.000 C 
ATOM     16  C   UNL     1       7.100   4.769  17.075  0.00  0.00    +0.000 C 
ENDBRANCH   9  10
BRANCH   1  17
ATOM     17  O   UNL     1       0.153   2.176  18.743  0.00  0.00    +0.000 OA
ATOM     18  H   UNL     1      -0.045   2.562  17.873  0.00  0.00    +0.000 HD
ENDBRANCH   1  17
TORSDOF 2
ENDMDL
MODEL 5
REMARK VINA RESULT:      -6.8      1.587      2.443
REMARK  Name = 
REMARK  2 active torsions:
REMARK  status: ('A' for Active; 'I' for Inactive)
REMARK    1  A    between atoms: O_1  and  C_2
REMARK    2  A    between atoms: N_10  and  C_11
REMARK                            x       y       z     vdW  Elec       q    Type
REMARK                         _______ _______ _______ _____ _____    ______ ____
ROOT
ATOM      1  C   UNL     1       6.925   6.429  16.667  0.00  0.00    +0.000 A 
ATOM      2  N   UNL     1       7.542   5.418  16.027  0.00  0.00    +0.000 NA
ATOM      3  C   UNL     1       6.855   4.258  15.931  0.00  0.00    +0.000 A 
ATOM      4  N   UNL     1       5.618   3.969  16.392  0.00  0.00    +0.000 NA
ATOM      5  C   UNL     1       5.072   5.027  17.021  0.00  0.00    +0.000 A 
ATOM      6  C   UNL     1       5.650   6.276  17.201  0.00  0.00    +0.000 A 
ATOM      7  N   UNL     1       4.804   7.110  17.893  0.00  0.00    +0.000 NA
ATOM      8  C   UNL     1       3.736   6.383  18.135  0.00  0.00    +0.000 A 
ATOM      9  N   UNL     1       3.839   5.115  17.624  0.00  0.00    +0.000 N 
ENDROOT
BRANCH   9  10
ATOM     10  C   UNL     1       2.869   4.041  17.723  0.00  0.00    +0.000 C 
ATOM     11  C   UNL     1       1.438   4.526  18.047  0.00  0.00    +0.000 C 
ATOM     12  C   UNL     1       1.010   3.607  19.209  0.00  0.00    +0.000 C 
ATOM     13  C   UNL     1       0.877   2.157  18.707  0.00  0.00    +0.000 C 
ATOM     14  C   UNL     1       2.337   1.723  18.509  0.00  0.00    +0.000 C 
ATOM     15  C   UNL     1       3.125   3.001  18.853  0.00  0.00    +0.000 C 
ATOM     16  C   UNL     1       2.294   3.534  20.027  0.00  0.00    +0.000 C 
ENDBRANCH   9  10
BRANCH   1  17
ATOM     17  O   UNL     1       7.648   7.587  16.745  0.00  0.00    +0.000 OA
ATOM     18  H   UNL     1       8.555   7.239  16.718  0.00  0.00    +0.000 HD
ENDBRANCH   1  17
TORSDOF 2
ENDMDL
MODEL 6
REMARK VINA RESULT:      -6.8      1.265      2.351
REMARK  Name = 
REMARK  2 active torsions:
REMARK  status: ('A' for Active; 'I' for Inactive)
REMARK    1  A    between atoms: O_1  and  C_2
REMARK    2  A    between atoms: N_10  and  C_11
REMARK                            x       y       z     vdW  Elec       q    Type
REMARK                         _______ _______ _______ _____ _____    ______ ____
ROOT
ATOM      1  C   UNL     1       6.921   6.043  16.455  0.00  0.00    +0.000 A 
ATOM      2  N   UNL     1       6.768   5.602  15.193  0.00  0.00    +0.000 NA
ATOM      3  C   UNL     1       5.781   4.703  14.984  0.00  0.00    +0.000 A 
ATOM      4  N   UNL     1       4.913   4.179  15.878  0.00  0.00    +0.000 NA
ATOM      5  C   UNL     1       5.134   4.666  17.114  0.00  0.00    +0.000 A 
ATOM      6  C   UNL     1       6.104   5.586  17.483  0.00  0.00    +0.000 A 
ATOM      7  N   UNL     1       6.039   5.849  18.832  0.00  0.00    +0.000 NA
ATOM      8  C   UNL     1       5.055   5.098  19.276  0.00  0.00    +0.000 A 
ATOM      9  N   UNL     1       4.465   4.366  18.278  0.00  0.00    +0.000 N 
ENDROOT
BRANCH   9  10
ATOM     10  C   UNL     1       3.375   3.418  18.405  0.00  0.00    +0.000 C 
ATOM     11  C   UNL     1       2.164   3.742  17.500  0.00  0.00    +0.000 C 
ATOM     12  C   UNL     1       0.967   3.647  18.467  0.00  0.00    +0.000 C 
ATOM     13  C   UNL     1       0.787   2.190  18.934  0.00  0.00    +0.000 C 
ATOM     14  C   UNL     1       1.964   1.986  19.899  0.00  0.00    +0.000 C 
ATOM     15  C   UNL     1       2.716   3.328  19.812  0.00  0.00    +0.000 C 
ATOM     16  C   UNL     1       1.536   4.304  19.719  0.00  0.00    +0.000 C 
ENDBRANCH   9  10
BRANCH   1  17
ATOM     17  O   UNL     1       7.927   6.952  16.629  0.00  0.00    +0.000 OA
ATOM     18  H   UNL     1       8.482   6.762  15.854  0.00  0.00    +0.000 HD
ENDBRANCH   1  17
TORSDOF 2
ENDMDL
MODEL 7
REMARK VINA RESULT:      -6.8      2.825      5.564
REMARK  Name = 
REMARK  2 active torsions:
REMARK  status: ('A' for Active; 'I' for Inactive)
REMARK    1  A    between atoms: O_1  and  C_2
REMARK    2  A    between atoms: N_10  and  C_11
REMARK                            x       y       z     vdW  Elec       q    Type
REMARK                         _______ _______ _______ _____ _____    ______ ____
ROOT
ATOM      1  C   UNL     1       2.191   2.965  20.783  0.00  0.00    +0.000 A 
ATOM      2  N   UNL     1       3.088   2.254  21.491  0.00  0.00    +0.000 NA
ATOM      3  C   UNL     1       4.318   2.124  20.948  0.00  0.00    +0.000 A 
ATOM      4  N   UNL     1       4.779   2.615  19.776  0.00  0.00    +0.000 NA
ATOM      5  C   UNL     1       3.824   3.308  19.128  0.00  0.00    +0.000 A 
ATOM      6  C   UNL     1       2.522   3.527  19.555  0.00  0.00    +0.000 A 
ATOM      7  N   UNL     1       1.825   4.275  18.634  0.00  0.00    +0.000 NA
ATOM      8  C   UNL     1       2.684   4.500  17.664  0.00  0.00    +0.000 A 
ATOM      9  N   UNL     1       3.912   3.946  17.912  0.00  0.00    +0.000 N 
ENDROOT
BRANCH   9  10
ATOM     10  C   UNL     1       5.083   3.972  17.056  0.00  0.00    +0.000 C 
ATOM     11  C   UNL     1       6.229   4.854  17.602  0.00  0.00    +0.000 C 
ATOM     12  C   UNL     1       6.617   5.718  16.385  0.00  0.00    +0.000 C 
ATOM     13  C   UNL     1       7.233   4.830  15.288  0.00  0.00    +0.000 C 
ATOM     14  C   UNL     1       6.019   4.068  14.735  0.00  0.00    +0.000 C 
ATOM     15  C   UNL     1       4.867   4.561  15.632  0.00  0.00    +0.000 C 
ATOM     16  C   UNL     1       5.249   6.037  15.792  0.00  0.00    +0.000 C 
ENDBRANCH   9  10
BRANCH   1  17
ATOM     17  O   UNL     1       0.958   3.078  21.363  0.00  0.00    +0.000 OA
ATOM     18  H   UNL     1       0.678   3.947  21.031  0.00  0.00    +0.000 HD
ENDBRANCH   1  17
TORSDOF 2
ENDMDL
MODEL 8
REMARK VINA RESULT:      -6.7      1.114      2.252
REMARK  Name = 
REMARK  2 active torsions:
REMARK  status: ('A' for Active; 'I' for Inactive)
REMARK    1  A    between atoms: O_1  and  C_2
REMARK    2  A    between atoms: N_10  and  C_11
REMARK                            x       y       z     vdW  Elec       q    Type
REMARK                         _______ _______ _______ _____ _____    ______ ____
ROOT
ATOM      1  C   UNL     1       6.714   5.463  16.184  0.00  0.00    +0.000 A 
ATOM      2  N   UNL     1       6.313   4.772  15.102  0.00  0.00    +0.000 NA
ATOM      3  C   UNL     1       5.252   3.952  15.270  0.00  0.00    +0.000 A 
ATOM      4  N   UNL     1       4.528   3.726  16.388  0.00  0.00    +0.000 NA
ATOM      5  C   UNL     1       4.993   4.450  17.424  0.00  0.00    +0.000 A 
ATOM      6  C   UNL     1       6.067   5.329  17.408  0.00  0.00    +0.000 A 
ATOM      7  N   UNL     1       6.258   5.888  18.650  0.00  0.00    +0.000 NA
ATOM      8  C   UNL     1       5.325   5.355  19.408  0.00  0.00    +0.000 A 
ATOM      9  N   UNL     1       4.525   4.483  18.717  0.00  0.00    +0.000 N 
ENDROOT
BRANCH   9  10
ATOM     10  C   UNL     1       3.419   3.699  19.234  0.00  0.00    +0.000 C 
ATOM     11  C   UNL     1       2.058   4.047  18.588  0.00  0.00    +0.000 C 
ATOM     12  C   UNL     1       1.127   4.225  19.805  0.00  0.00    +0.000 C 
ATOM     13  C   UNL     1       0.940   2.875  20.522  0.00  0.00    +0.000 C 
ATOM     14  C   UNL     1       2.293   2.657  21.214  0.00  0.00    +0.000 C 
ATOM     15  C   UNL     1       3.116   3.875  20.751  0.00  0.00    +0.000 C 
ATOM     16  C   UNL     1       2.038   4.967  20.777  0.00  0.00    +0.000 C 
ENDBRANCH   9  10
BRANCH   1  17
ATOM     17  O   UNL     1       7.788   6.284  15.979  0.00  0.00    +0.000 OA
ATOM     18  H   UNL     1       7.781   6.804  16.800  0.00  0.00    +0.000 HD
ENDBRANCH   1  17
TORSDOF 2
ENDMDL
MODEL 9
REMARK VINA RESULT:      -6.7      1.439      2.502
REMARK  Name = 
REMARK  2 active torsions:
REMARK  status: ('A' for Active; 'I' for Inactive)
REMARK    1  A    between atoms: O_1  and  C_2
REMARK    2  A    between atoms: N_10  and  C_11
REMARK                            x       y       z     vdW  Elec       q    Type
REMARK                         _______ _______ _______ _____ _____    ______ ____
ROOT
ATOM      1  C   UNL     1       6.903   6.665  17.697  0.00  0.00    +0.000 A 
ATOM      2  N   UNL     1       6.498   7.106  16.492  0.00  0.00    +0.000 NA
ATOM      3  C   UNL     1       5.318   6.627  16.041  0.00  0.00    +0.000 A 
ATOM      4  N   UNL     1       4.475   5.756  16.640  0.00  0.00    +0.000 NA
ATOM      5  C   UNL     1       4.953   5.360  17.835  0.00  0.00    +0.000 A 
ATOM      6  C   UNL     1       6.141   5.760  18.429  0.00  0.00    +0.000 A 
ATOM      7  N   UNL     1       6.307   5.148  19.649  0.00  0.00    +0.000 NA
ATOM      8  C   UNL     1       5.244   4.386  19.793  0.00  0.00    +0.000 A 
ATOM      9  N   UNL     1       4.386   4.481  18.729  0.00  0.00    +0.000 N 
ENDROOT
BRANCH   9  10
ATOM     10  C   UNL     1       3.137   3.769  18.535  0.00  0.00    +0.000 C 
ATOM     11  C   UNL     1       1.884   4.630  18.816  0.00  0.00    +0.000 C 
ATOM     12  C   UNL     1       1.039   3.728  19.738  0.00  0.00    +0.000 C 
ATOM     13  C   UNL     1       0.554   2.491  18.960  0.00  0.00    +0.000 C 
ATOM     14  C   UNL     1       1.831   1.650  18.814  0.00  0.00    +0.000 C 
ATOM     15  C   UNL     1       2.906   2.542  19.464  0.00  0.00    +0.000 C 
ATOM     16  C   UNL     1       2.111   3.126  20.639  0.00  0.00    +0.000 C 
ENDBRANCH   9  10
BRANCH   1  17
ATOM     17  O   UNL     1       8.100   7.170  18.123  0.00  0.00    +0.000 OA
ATOM     18  H   UNL     1       8.475   6.395  18.574  0.00  0.00    +0.000 HD
ENDBRANCH   1  17
TORSDOF 2
ENDMDL
