MODEL 1
REMARK VINA RESULT:      -7.5      0.000      0.000
REMARK  Name = 
REMARK  13 active torsions:
REMARK  status: ('A' for Active; 'I' for Inactive)
REMARK    1  A    between atoms: C_1  and  C_2
REMARK    2  A    between atoms: C_2  and  C_3
REMARK    3  A    between atoms: C_2  and  C_4
REMARK    4  A    between atoms: C_4  and  C_5
REMARK    5  A    between atoms: C_5  and  N_6
REMARK    6  A    between atoms: N_6  and  C_7
REMARK    7  A    between atoms: N_6  and  C_16
REMARK    8  A    between atoms: C_7  and  C_8
REMARK    9  A    between atoms: C_8  and  C_9
REMARK   10  A    between atoms: C_13  and  O_14
REMARK   11  A    between atoms: C_16  and  C_17
REMARK   12  A    between atoms: C_17  and  C_18
REMARK   13  A    between atoms: C_22  and  O_23
REMARK                            x       y       z     vdW  Elec       q    Type
REMARK                         _______ _______ _______ _____ _____    ______ ____
ROOT
ATOM      1  N   UNL     1       3.837   4.938  18.503  0.00  0.00    +0.000 NA
ENDROOT
BRANCH   1   2
ATOM      2  C   UNL     1       3.440   4.238  19.764  0.00  0.00    +0.000 C 
BRANCH   2   3
ATOM      3  C   UNL     1       3.192   2.712  19.670  0.00  0.00    +0.000 C 
BRANCH   3   5
ATOM      4  C   UNL     1       1.220   2.882  21.297  0.00  0.00    +0.000 C 
ATOM      5  C   UNL     1       1.775   2.206  20.037  0.00  0.00    +0.000 C 
ATOM      6  C   UNL     1       0.814   2.495  18.873  0.00  0.00    +0.000 C 
ENDBRANCH   3   5
ENDBRANCH   2   3
ENDBRANCH   1   2
BRANCH   1   7
ATOM      7  C   UNL     1       4.199   3.949  17.438  0.00  0.00    +0.000 C 
BRANCH   7   8
ATOM      8  C   UNL     1       5.439   4.340  16.588  0.00  0.00    +0.000 C 
BRANCH   8   9
ATOM      9  C   UNL     1       6.369   5.282  17.334  0.00  0.00    +0.000 A 
ATOM     10  C   UNL     1       6.699   6.541  16.796  0.00  0.00    +0.000 A 
ATOM     11  C   UNL     1       7.559   7.402  17.486  0.00  0.00    +0.000 A 
ATOM     12  C   UNL     1       8.099   7.022  18.716  0.00  0.00    +0.000 A 
ATOM     13  C   UNL     1       7.787   5.771  19.266  0.00  0.00    +0.000 A 
ATOM     14  C   UNL     1       6.925   4.903  18.576  0.00  0.00    +0.000 A 
BRANCH  13  15
ATOM     15  O   UNL     1       8.306   5.393  20.452  0.00  0.00    +0.000 OA
ATOM     16  H   UNL     1       8.982   5.911  20.907  0.00  0.00    +0.000 HD
ENDBRANCH  13  15
ENDBRANCH   8   9
ENDBRANCH   7   8
ENDBRANCH   1   7
BRANCH   1  17
ATOM     17  C   UNL     1       2.693   5.782  18.037  0.00  0.00    +0.000 C 
BRANCH  17  18
ATOM     18  C   UNL     1       3.032   7.269  17.778  0.00  0.00    +0.000 C 
BRANCH  18  19
ATOM     19  C   UNL     1       2.140   8.205  18.554  0.00  0.00    +0.000 A 
ATOM     20  C   UNL     1       1.529   9.299  17.918  0.00  0.00    +0.000 A 
ATOM     21  C   UNL     1       0.712  10.169  18.642  0.00  0.00    +0.000 A 
ATOM     22  C   UNL     1       0.500   9.961  20.007  0.00  0.00    +0.000 A 
ATOM     23  C   UNL     1       1.096   8.868  20.652  0.00  0.00    +0.000 A 
ATOM     24  C   UNL     1       1.904   7.989  19.921  0.00  0.00    +0.000 A 
BRANCH  23  25
ATOM     25  O   UNL     1       0.905   8.656  21.969  0.00  0.00    +0.000 OA
ATOM     26  H   UNL     1       1.470   9.063  22.642  0.00  0.00    +0.000 HD
ENDBRANCH  23  25
ENDBRANCH  18  19
ENDBRANCH  17  18
ENDBRANCH   1  17
TORSDOF 11
ENDMDL
MODEL 2
REMARK VINA RESULT:      -7.5      2.417      5.578
REMARK  Name = 
REMARK  13 active torsions:
REMARK  status: ('A' for Active; 'I' for Inactive)
REMARK    1  A    between atoms: C_1  and  C_2
REMARK    2  A    between atoms: C_2  and  C_3
REMARK    3  A    between atoms: C_2  and  C_4
REMARK    4  A    between atoms: C_4  and  C_5
REMARK    5  A    between atoms: C_5  and  N_6
REMARK    6  A    between atoms: N_6  and  C_7
REMARK    7  A    between atoms: N_6  and  C_16
REMARK    8  A    between atoms: C_7  and  C_8
REMARK    9  A    between atoms: C_8  and  C_9
REMARK   10  A    between atoms: C_13  and  O_14
REMARK   11  A    between atoms: C_16  and  C_17
REMARK   12  A    between atoms: C_17  and  C_18
REMARK   13  A    between atoms: C_22  and  O_23
REMARK                            x       y       z     vdW  Elec       q    Type
REMARK                         _______ _______ _______ _____ _____    ______ ____
ROOT
ATOM      1  N   UNL     1       1.882   6.893  19.915  0.00  0.00    +0.000 NA
ENDROOT
BRANCH   1   2
ATOM      2  C   UNL     1       1.659   8.165  20.672  0.00  0.00    +0.000 C 
BRANCH   2   3
ATOM      3  C   UNL     1       0.728   9.216  20.016  0.00  0.00    +0.000 C 
BRANCH   3   5
ATOM      4  C   UNL     1      -0.511   9.986  17.910  0.00  0.00    +0.000 C 
ATOM      5  C   UNL     1       0.738   9.294  18.469  0.00  0.00    +0.000 C 
ATOM      6  C   UNL     1       1.974  10.083  18.008  0.00  0.00    +0.000 C 
ENDBRANCH   3   5
ENDBRANCH   2   3
ENDBRANCH   1   2
BRANCH   1   7
ATOM      7  C   UNL     1       3.243   6.877  19.292  0.00  0.00    +0.000 C 
BRANCH   7   8
ATOM      8  C   UNL     1       3.291   6.273  17.862  0.00  0.00    +0.000 C 
BRANCH   8   9
ATOM      9  C   UNL     1       4.626   5.610  17.566  0.00  0.00    +0.000 A 
ATOM     10  C   UNL     1       5.654   5.604  18.528  0.00  0.00    +0.000 A 
ATOM     11  C   UNL     1       6.882   4.995  18.249  0.00  0.00    +0.000 A 
ATOM     12  C   UNL     1       7.101   4.387  17.011  0.00  0.00    +0.000 A 
ATOM     13  C   UNL     1       6.092   4.386  16.038  0.00  0.00    +0.000 A 
ATOM     14  C   UNL     1       4.858   4.998  16.314  0.00  0.00    +0.000 A 
BRANCH  13  15
ATOM     15  O   UNL     1       6.294   3.804  14.838  0.00  0.00    +0.000 OA
ATOM     16  H   UNL     1       6.138   2.862  14.690  0.00  0.00    +0.000 HD
ENDBRANCH  13  15
ENDBRANCH   8   9
ENDBRANCH   7   8
ENDBRANCH   1   7
BRANCH   1  17
ATOM     17  C   UNL     1       1.746   5.740  20.858  0.00  0.00    +0.000 C 
BRANCH  17  18
ATOM     18  C   UNL     1       1.013   4.503  20.287  0.00  0.00    +0.000 C 
BRANCH  18  19
ATOM     19  C   UNL     1       1.943   3.577  19.544  0.00  0.00    +0.000 A 
ATOM     20  C   UNL     1       1.596   3.086  18.273  0.00  0.00    +0.000 A 
ATOM     21  C   UNL     1       2.455   2.222  17.593  0.00  0.00    +0.000 A 
ATOM     22  C   UNL     1       3.665   1.834  18.172  0.00  0.00    +0.000 A 
ATOM     23  C   UNL     1       4.027   2.323  19.435  0.00  0.00    +0.000 A 
ATOM     24  C   UNL     1       3.172   3.201  20.110  0.00  0.00    +0.000 A 
BRANCH  23  25
ATOM     25  O   UNL     1       5.189   1.954  20.010  0.00  0.00    +0.000 OA
ATOM     26  H   UNL     1       6.023   1.937  19.518  0.00  0.00    +0.000 HD
ENDBRANCH  23  25
ENDBRANCH  18  19
ENDBRANCH  17  18
ENDBRANCH   1  17
TORSDOF 11
ENDMDL
MODEL 3
REMARK VINA RESULT:      -7.4      3.065      7.139
REMARK  Name = 
REMARK  13 active torsions:
REMARK  status: ('A' for Active; 'I' for Inactive)
REMARK    1  A    between atoms: C_1  and  C_2
REMARK    2  A    between atoms: C_2  and  C_3
REMARK    3  A    between atoms: C_2  and  C_4
REMARK    4  A    between atoms: C_4  and  C_5
REMARK    5  A    between atoms: C_5  and  N_6
REMARK    6  A    between atoms: N_6  and  C_7
REMARK    7  A    between atoms: N_6  and  C_16
REMARK    8  A    between atoms: C_7  and  C_8
REMARK    9  A    between atoms: C_8  and  C_9
REMARK   10  A    between atoms: C_13  and  O_14
REMARK   11  A    between atoms: C_16  and  C_17
REMARK   12  A    between atoms: C_17  and  C_18
REMARK   13  A    between atoms: C_22  and  O_23
REMARK                            x       y       z     vdW  Elec       q    Type
REMARK                         _______ _______ _______ _____ _____    ______ ____
ROOT
ATOM      1  N   UNL     1       5.652   5.563  17.878  0.00  0.00    +0.000 NA
ENDROOT
BRANCH   1   2
ATOM      2  C   UNL     1       4.430   6.073  17.181  0.00  0.00    +0.000 C 
BRANCH   2   3
ATOM      3  C   UNL     1       3.808   7.382  17.728  0.00  0.00    +0.000 C 
BRANCH   3   5
ATOM      4  C   UNL     1       1.646   6.007  17.783  0.00  0.00    +0.000 C 
ATOM      5  C   UNL     1       2.331   7.317  18.192  0.00  0.00    +0.000 C 
ATOM      6  C   UNL     1       2.275   7.432  19.724  0.00  0.00    +0.000 C 
ENDBRANCH   3   5
ENDBRANCH   2   3
ENDBRANCH   1   2
BRANCH   1   7
ATOM      7  C   UNL     1       5.308   5.033  19.235  0.00  0.00    +0.000 C 
BRANCH   7   8
ATOM      8  C   UNL     1       4.842   3.551  19.251  0.00  0.00    +0.000 C 
BRANCH   8   9
ATOM      9  C   UNL     1       3.363   3.421  19.571  0.00  0.00    +0.000 A 
ATOM     10  C   UNL     1       2.806   4.087  20.679  0.00  0.00    +0.000 A 
ATOM     11  C   UNL     1       1.445   3.959  20.972  0.00  0.00    +0.000 A 
ATOM     12  C   UNL     1       0.622   3.169  20.166  0.00  0.00    +0.000 A 
ATOM     13  C   UNL     1       1.157   2.494  19.061  0.00  0.00    +0.000 A 
ATOM     14  C   UNL     1       2.525   2.618  18.765  0.00  0.00    +0.000 A 
BRANCH  13  15
ATOM     15  O   UNL     1       0.373   1.725  18.279  0.00  0.00    +0.000 OA
ATOM     16  H   UNL     1      -0.569   1.605  18.454  0.00  0.00    +0.000 HD
ENDBRANCH  13  15
ENDBRANCH   8   9
ENDBRANCH   7   8
ENDBRANCH   1   7
BRANCH   1  17
ATOM     17  C   UNL     1       6.260   4.474  17.051  0.00  0.00    +0.000 C 
BRANCH  17  18
ATOM     18  C   UNL     1       5.397   3.985  15.865  0.00  0.00    +0.000 C 
BRANCH  18  19
ATOM     19  C   UNL     1       6.087   4.173  14.536  0.00  0.00    +0.000 A 
ATOM     20  C   UNL     1       5.641   3.481  13.397  0.00  0.00    +0.000 A 
ATOM     21  C   UNL     1       6.288   3.650  12.172  0.00  0.00    +0.000 A 
ATOM     22  C   UNL     1       7.387   4.506  12.070  0.00  0.00    +0.000 A 
ATOM     23  C   UNL     1       7.836   5.209  13.197  0.00  0.00    +0.000 A 
ATOM     24  C   UNL     1       7.178   5.049  14.422  0.00  0.00    +0.000 A 
BRANCH  23  25
ATOM     25  O   UNL     1       8.898   6.034  13.117  0.00  0.00    +0.000 OA
ATOM     26  H   UNL     1       9.443   6.248  13.888  0.00  0.00    +0.000 HD
ENDBRANCH  23  25
ENDBRANCH  18  19
ENDBRANCH  17  18
ENDBRANCH   1  17
TORSDOF 11
ENDMDL
MODEL 4
REMARK VINA RESULT:      -7.3      2.316      6.196
REMARK  Name = 
REMARK  13 active torsions:
REMARK  status: ('A' for Active; 'I' for Inactive)
REMARK    1  A    between atoms: C_1  and  C_2
REMARK    2  A    between atoms: C_2  and  C_3
REMARK    3  A    between atoms: C_2  and  C_4
REMARK    4  A    between atoms: C_4  and  C_5
REMARK    5  A    between atoms: C_5  and  N_6
REMARK    6  A    between atoms: N_6  and  C_7
REMARK    7  A    between atoms: N_6  and  C_16
REMARK    8  A    between atoms: C_7  and  C_8
REMARK    9  A    between atoms: C_8  and  C_9
REMARK   10  A    between atoms: C_13  and  O_14
REMARK   11  A    between atoms: C_16  and  C_17
REMARK   12  A    between atoms: C_17  and  C_18
REMARK   13  A    between atoms: C_22  and  O_23
REMARK                            x       y       z     vdW  Elec       q    Type
REMARK                         _______ _______ _______ _____ _____    ______ ____
ROOT
ATOM      1  N   UNL     1       5.660   5.203  16.855  0.00  0.00    +0.000 NA
ENDROOT
BRANCH   1   2
ATOM      2  C   UNL     1       6.041   5.381  15.419  0.00  0.00    +0.000 C 
BRANCH   2   3
ATOM      3  C   UNL     1       5.460   4.361  14.409  0.00  0.00    +0.000 C 
BRANCH   3   5
ATOM      4  C   UNL     1       5.693   3.301  12.087  0.00  0.00    +0.000 C 
ATOM      5  C   UNL     1       6.428   3.809  13.333  0.00  0.00    +0.000 C 
ATOM      6  C   UNL     1       7.396   4.923  12.900  0.00  0.00    +0.000 C 
ENDBRANCH   3   5
ENDBRANCH   2   3
ENDBRANCH   1   2
BRANCH   1   7
ATOM      7  C   UNL     1       5.210   6.501  17.451  0.00  0.00    +0.000 C 
BRANCH   7   8
ATOM      8  C   UNL     1       3.832   7.003  16.942  0.00  0.00    +0.000 C 
BRANCH   8   9
ATOM      9  C   UNL     1       2.949   7.496  18.076  0.00  0.00    +0.000 A 
ATOM     10  C   UNL     1       2.807   6.741  19.256  0.00  0.00    +0.000 A 
ATOM     11  C   UNL     1       1.989   7.198  20.294  0.00  0.00    +0.000 A 
ATOM     12  C   UNL     1       1.305   8.409  20.171  0.00  0.00    +0.000 A 
ATOM     13  C   UNL     1       1.428   9.173  19.003  0.00  0.00    +0.000 A 
ATOM     14  C   UNL     1       2.247   8.717  17.957  0.00  0.00    +0.000 A 
BRANCH  13  15
ATOM     15  O   UNL     1       0.769  10.342  18.872  0.00  0.00    +0.000 OA
ATOM     16  H   UNL     1       0.986  11.118  19.405  0.00  0.00    +0.000 HD
ENDBRANCH  13  15
ENDBRANCH   8   9
ENDBRANCH   7   8
ENDBRANCH   1   7
BRANCH   1  17
ATOM     17  C   UNL     1       4.552   4.201  16.940  0.00  0.00    +0.000 C 
BRANCH  17  18
ATOM     18  C   UNL     1       4.587   3.283  18.185  0.00  0.00    +0.000 C 
BRANCH  18  19
ATOM     19  C   UNL     1       3.257   3.229  18.896  0.00  0.00    +0.000 A 
ATOM     20  C   UNL     1       2.057   3.300  18.168  0.00  0.00    +0.000 A 
ATOM     21  C   UNL     1       0.829   3.259  18.831  0.00  0.00    +0.000 A 
ATOM     22  C   UNL     1       0.784   3.152  20.222  0.00  0.00    +0.000 A 
ATOM     23  C   UNL     1       1.975   3.071  20.959  0.00  0.00    +0.000 A 
ATOM     24  C   UNL     1       3.205   3.098  20.292  0.00  0.00    +0.000 A 
BRANCH  23  25
ATOM     25  O   UNL     1       1.948   2.972  22.302  0.00  0.00    +0.000 OA
ATOM     26  H   UNL     1       1.639   2.172  22.753  0.00  0.00    +0.000 HD
ENDBRANCH  23  25
ENDBRANCH  18  19
ENDBRANCH  17  18
ENDBRANCH   1  17
TORSDOF 11
ENDMDL
MODEL 5
REMARK VINA RESULT:      -7.3      2.202      5.251
REMARK  Name = 
REMARK  13 active torsions:
REMARK  status: ('A' for Active; 'I' for Inactive)
REMARK    1  A    between atoms: C_1  and  C_2
REMARK    2  A    between atoms: C_2  and  C_3
REMARK    3  A    between atoms: C_2  and  C_4
REMARK    4  A    between atoms: C_4  and  C_5
REMARK    5  A    between atoms: C_5  and  N_6
REMARK    6  A    between atoms: N_6  and  C_7
REMARK    7  A    between atoms: N_6  and  C_16
REMARK    8  A    between atoms: C_7  and  C_8
REMARK    9  A    between atoms: C_8  and  C_9
REMARK   10  A    between atoms: C_13  and  O_14
REMARK   11  A    between atoms: C_16  and  C_17
REMARK   12  A    between atoms: C_17  and  C_18
REMARK   13  A    between atoms: C_22  and  O_23
REMARK                            x       y       z     vdW  Elec       q    Type
REMARK                         _______ _______ _______ _____ _____    ______ ____
ROOT
ATOM      1  N   UNL     1       2.272   7.608  18.510  0.00  0.00    +0.000 NA
ENDROOT
BRANCH   1   2
ATOM      2  C   UNL     1       1.690   8.983  18.606  0.00  0.00    +0.000 C 
BRANCH   2   3
ATOM      3  C   UNL     1       0.787   9.277  19.830  0.00  0.00    +0.000 C 
BRANCH   3   5
ATOM      4  C   UNL     1      -1.305  10.394  18.858  0.00  0.00    +0.000 C 
ATOM      5  C   UNL     1      -0.082  10.558  19.769  0.00  0.00    +0.000 C 
ATOM      6  C   UNL     1      -0.577  10.903  21.183  0.00  0.00    +0.000 C 
ENDBRANCH   3   5
ENDBRANCH   2   3
ENDBRANCH   1   2
BRANCH   1   7
ATOM      7  C   UNL     1       3.649   7.653  17.924  0.00  0.00    +0.000 C 
BRANCH   7   8
ATOM      8  C   UNL     1       3.974   6.490  16.948  0.00  0.00    +0.000 C 
BRANCH   8   9
ATOM      9  C   UNL     1       5.305   5.830  17.268  0.00  0.00    +0.000 A 
ATOM     10  C   UNL     1       5.959   5.030  16.312  0.00  0.00    +0.000 A 
ATOM     11  C   UNL     1       7.181   4.422  16.615  0.00  0.00    +0.000 A 
ATOM     12  C   UNL     1       7.766   4.602  17.869  0.00  0.00    +0.000 A 
ATOM     13  C   UNL     1       7.129   5.391  18.837  0.00  0.00    +0.000 A 
ATOM     14  C   UNL     1       5.901   6.002  18.538  0.00  0.00    +0.000 A 
BRANCH  13  15
ATOM     15  O   UNL     1       7.684   5.569  20.053  0.00  0.00    +0.000 OA
ATOM     16  H   UNL     1       8.023   4.832  20.577  0.00  0.00    +0.000 HD
ENDBRANCH  13  15
ENDBRANCH   8   9
ENDBRANCH   7   8
ENDBRANCH   1   7
BRANCH   1  17
ATOM     17  C   UNL     1       2.328   7.010  19.881  0.00  0.00    +0.000 C 
BRANCH  17  18
ATOM     18  C   UNL     1       1.587   5.662  20.044  0.00  0.00    +0.000 C 
BRANCH  18  19
ATOM     19  C   UNL     1       2.278   4.535  19.316  0.00  0.00    +0.000 A 
ATOM     20  C   UNL     1       1.781   4.069  18.088  0.00  0.00    +0.000 A 
ATOM     21  C   UNL     1       2.419   3.020  17.422  0.00  0.00    +0.000 A 
ATOM     22  C   UNL     1       3.553   2.422  17.977  0.00  0.00    +0.000 A 
ATOM     23  C   UNL     1       4.064   2.884  19.198  0.00  0.00    +0.000 A 
ATOM     24  C   UNL     1       3.432   3.946  19.857  0.00  0.00    +0.000 A 
BRANCH  23  25
ATOM     25  O   UNL     1       5.154   2.315  19.748  0.00  0.00    +0.000 OA
ATOM     26  H   UNL     1       5.786   2.822  20.279  0.00  0.00    +0.000 HD
ENDBRANCH  23  25
ENDBRANCH  18  19
ENDBRANCH  17  18
ENDBRANCH   1  17
TORSDOF 11
ENDMDL
MODEL 6
REMARK VINA RESULT:      -7.3      2.542      6.330
REMARK  Name = 
REMARK  13 active torsions:
REMARK  status: ('A' for Active; 'I' for Inactive)
REMARK    1  A    between atoms: C_1  and  C_2
REMARK    2  A    between atoms: C_2  and  C_3
REMARK    3  A    between atoms: C_2  and  C_4
REMARK    4  A    between atoms: C_4  and  C_5
REMARK    5  A    between atoms: C_5  and  N_6
REMARK    6  A    between atoms: N_6  and  C_7
REMARK    7  A    between atoms: N_6  and  C_16
REMARK    8  A    between atoms: C_7  and  C_8
REMARK    9  A    between atoms: C_8  and  C_9
REMARK   10  A    between atoms: C_13  and  O_14
REMARK   11  A    between atoms: C_16  and  C_17
REMARK   12  A    between atoms: C_17  and  C_18
REMARK   13  A    between atoms: C_22  and  O_23
REMARK                            x       y       z     vdW  Elec       q    Type
REMARK                         _______ _______ _______ _____ _____    ______ ____
ROOT
ATOM      1  N   UNL     1       5.560   5.713  17.692  0.00  0.00    +0.000 NA
ENDROOT
BRANCH   1   2
ATOM      2  C   UNL     1       5.333   4.722  16.594  0.00  0.00    +0.000 C 
BRANCH   2   3
ATOM      3  C   UNL     1       6.532   4.428  15.658  0.00  0.00    +0.000 C 
BRANCH   3   5
ATOM      4  C   UNL     1       7.693   5.219  13.514  0.00  0.00    +0.000 C 
ATOM      5  C   UNL     1       6.367   4.809  14.165  0.00  0.00    +0.000 C 
ATOM      6  C   UNL     1       5.803   3.606  13.393  0.00  0.00    +0.000 C 
ENDBRANCH   3   5
ENDBRANCH   2   3
ENDBRANCH   1   2
BRANCH   1   7
ATOM      7  C   UNL     1       4.656   6.895  17.537  0.00  0.00    +0.000 C 
BRANCH   7   8
ATOM      8  C   UNL     1       3.140   6.563  17.609  0.00  0.00    +0.000 C 
BRANCH   8   9
ATOM      9  C   UNL     1       2.371   7.579  18.436  0.00  0.00    +0.000 A 
ATOM     10  C   UNL     1       2.163   7.374  19.813  0.00  0.00    +0.000 A 
ATOM     11  C   UNL     1       1.450   8.311  20.569  0.00  0.00    +0.000 A 
ATOM     12  C   UNL     1       0.938   9.460  19.964  0.00  0.00    +0.000 A 
ATOM     13  C   UNL     1       1.130   9.681  18.594  0.00  0.00    +0.000 A 
ATOM     14  C   UNL     1       1.843   8.742  17.831  0.00  0.00    +0.000 A 
BRANCH  13  15
ATOM     15  O   UNL     1       0.636  10.786  17.999  0.00  0.00    +0.000 OA
ATOM     16  H   UNL     1       0.046  10.739  17.235  0.00  0.00    +0.000 HD
ENDBRANCH  13  15
ENDBRANCH   8   9
ENDBRANCH   7   8
ENDBRANCH   1   7
BRANCH   1  17
ATOM     17  C   UNL     1       5.297   5.046  19.006  0.00  0.00    +0.000 C 
BRANCH  17  18
ATOM     18  C   UNL     1       4.793   3.586  18.916  0.00  0.00    +0.000 C 
BRANCH  18  19
ATOM     19  C   UNL     1       3.360   3.445  19.367  0.00  0.00    +0.000 A 
ATOM     20  C   UNL     1       2.919   4.067  20.547  0.00  0.00    +0.000 A 
ATOM     21  C   UNL     1       1.595   3.926  20.965  0.00  0.00    +0.000 A 
ATOM     22  C   UNL     1       0.699   3.160  20.215  0.00  0.00    +0.000 A 
ATOM     23  C   UNL     1       1.124   2.541  19.031  0.00  0.00    +0.000 A 
ATOM     24  C   UNL     1       2.449   2.696  18.606  0.00  0.00    +0.000 A 
BRANCH  23  25
ATOM     25  O   UNL     1       0.274   1.795  18.299  0.00  0.00    +0.000 OA
ATOM     26  H   UNL     1       0.378   1.686  17.343  0.00  0.00    +0.000 HD
ENDBRANCH  23  25
ENDBRANCH  18  19
ENDBRANCH  17  18
ENDBRANCH   1  17
TORSDOF 11
ENDMDL
MODEL 7
REMARK VINA RESULT:      -7.3      1.504      2.168
REMARK  Name = 
REMARK  13 active torsions:
REMARK  status: ('A' for Active; 'I' for Inactive)
REMARK    1  A    between atoms: C_1  and  C_2
REMARK    2  A    between atoms: C_2  and  C_3
REMARK    3  A    between atoms: C_2  and  C_4
REMARK    4  A    between atoms: C_4  and  C_5
REMARK    5  A    between atoms: C_5  and  N_6
REMARK    6  A    between atoms: N_6  and  C_7
REMARK    7  A    between atoms: N_6  and  C_16
REMARK    8  A    between atoms: C_7  and  C_8
REMARK    9  A    between atoms: C_8  and  C_9
REMARK   10  A    between atoms: C_13  and  O_14
REMARK   11  A    between atoms: C_16  and  C_17
REMARK   12  A    between atoms: C_17  and  C_18
REMARK   13  A    between atoms: C_22  and  O_23
REMARK                            x       y       z     vdW  Elec       q    Type
REMARK                         _______ _______ _______ _____ _____    ______ ____
ROOT
ATOM      1  N   UNL     1       3.996   4.845  18.093  0.00  0.00    +0.000 NA
ENDROOT
BRANCH   1   2
ATOM      2  C   UNL     1       3.655   3.924  19.221  0.00  0.00    +0.000 C 
BRANCH   2   3
ATOM      3  C   UNL     1       3.053   4.569  20.494  0.00  0.00    +0.000 C 
BRANCH   3   5
ATOM      4  C   UNL     1       0.710   3.652  20.006  0.00  0.00    +0.000 C 
ATOM      5  C   UNL     1       1.777   3.913  21.077  0.00  0.00    +0.000 C 
ATOM      6  C   UNL     1       2.146   2.570  21.727  0.00  0.00    +0.000 C 
ENDBRANCH   3   5
ENDBRANCH   2   3
ENDBRANCH   1   2
BRANCH   1   7
ATOM      7  C   UNL     1       4.271   4.073  16.840  0.00  0.00    +0.000 C 
BRANCH   7   8
ATOM      8  C   UNL     1       5.742   4.147  16.346  0.00  0.00    +0.000 C 
BRANCH   8   9
ATOM      9  C   UNL     1       6.576   5.109  17.175  0.00  0.00    +0.000 A 
ATOM     10  C   UNL     1       7.226   4.673  18.345  0.00  0.00    +0.000 A 
ATOM     11  C   UNL     1       7.988   5.566  19.106  0.00  0.00    +0.000 A 
ATOM     12  C   UNL     1       8.113   6.899  18.712  0.00  0.00    +0.000 A 
ATOM     13  C   UNL     1       7.470   7.355  17.553  0.00  0.00    +0.000 A 
ATOM     14  C   UNL     1       6.701   6.462  16.787  0.00  0.00    +0.000 A 
BRANCH  13  15
ATOM     15  O   UNL     1       7.580   8.641  17.165  0.00  0.00    +0.000 OA
ATOM     16  H   UNL     1       8.399   9.143  17.272  0.00  0.00    +0.000 HD
ENDBRANCH  13  15
ENDBRANCH   8   9
ENDBRANCH   7   8
ENDBRANCH   1   7
BRANCH   1  17
ATOM     17  C   UNL     1       2.847   5.778  17.866  0.00  0.00    +0.000 C 
BRANCH  17  18
ATOM     18  C   UNL     1       3.216   7.279  17.817  0.00  0.00    +0.000 C 
BRANCH  18  19
ATOM     19  C   UNL     1       2.243   8.136  18.589  0.00  0.00    +0.000 A 
ATOM     20  C   UNL     1       1.952   7.848  19.933  0.00  0.00    +0.000 A 
ATOM     21  C   UNL     1       1.044   8.637  20.642  0.00  0.00    +0.000 A 
ATOM     22  C   UNL     1       0.414   9.716  20.017  0.00  0.00    +0.000 A 
ATOM     23  C   UNL     1       0.703  10.018  18.679  0.00  0.00    +0.000 A 
ATOM     24  C   UNL     1       1.624   9.235  17.974  0.00  0.00    +0.000 A 
BRANCH  23  25
ATOM     25  O   UNL     1       0.100  11.053  18.061  0.00  0.00    +0.000 OA
ATOM     26  H   UNL     1       0.601  11.724  17.574  0.00  0.00    +0.000 HD
ENDBRANCH  23  25
ENDBRANCH  18  19
ENDBRANCH  17  18
ENDBRANCH   1  17
TORSDOF 11
ENDMDL
MODEL 8
REMARK VINA RESULT:      -7.2      1.248      1.958
REMARK  Name = 
REMARK  13 active torsions:
REMARK  status: ('A' for Active; 'I' for Inactive)
REMARK    1  A    between atoms: C_1  and  C_2
REMARK    2  A    between atoms: C_2  and  C_3
REMARK    3  A    between atoms: C_2  and  C_4
REMARK    4  A    between atoms: C_4  and  C_5
REMARK    5  A    between atoms: C_5  and  N_6
REMARK    6  A    between atoms: N_6  and  C_7
REMARK    7  A    between atoms: N_6  and  C_16
REMARK    8  A    between atoms: C_7  and  C_8
REMARK    9  A    between atoms: C_8  and  C_9
REMARK   10  A    between atoms: C_13  and  O_14
REMARK   11  A    between atoms: C_16  and  C_17
REMARK   12  A    between atoms: C_17  and  C_18
REMARK   13  A    between atoms: C_22  and  O_23
REMARK                            x       y       z     vdW  Elec       q    Type
REMARK                         _______ _______ _______ _____ _____    ______ ____
ROOT
ATOM      1  N   UNL     1       2.799   5.691  19.209  0.00  0.00    +0.000 NA
ENDROOT
BRANCH   1   2
ATOM      2  C   UNL     1       1.597   4.849  19.506  0.00  0.00    +0.000 C 
BRANCH   2   3
ATOM      3  C   UNL     1       1.713   3.334  19.206  0.00  0.00    +0.000 C 
BRANCH   3   5
ATOM      4  C   UNL     1       3.942   2.409  20.069  0.00  0.00    +0.000 C 
ATOM      5  C   UNL     1       2.422   2.460  20.270  0.00  0.00    +0.000 C 
ATOM      6  C   UNL     1       2.141   3.034  21.669  0.00  0.00    +0.000 C 
ENDBRANCH   3   5
ENDBRANCH   2   3
ENDBRANCH   1   2
BRANCH   1   7
ATOM      7  C   UNL     1       3.085   5.709  17.739  0.00  0.00    +0.000 C 
BRANCH   7   8
ATOM      8  C   UNL     1       4.345   4.905  17.317  0.00  0.00    +0.000 C 
BRANCH   8   9
ATOM      9  C   UNL     1       5.630   5.576  17.770  0.00  0.00    +0.000 A 
ATOM     10  C   UNL     1       6.210   6.607  17.006  0.00  0.00    +0.000 A 
ATOM     11  C   UNL     1       7.396   7.218  17.427  0.00  0.00    +0.000 A 
ATOM     12  C   UNL     1       8.017   6.812  18.609  0.00  0.00    +0.000 A 
ATOM     13  C   UNL     1       7.458   5.785  19.382  0.00  0.00    +0.000 A 
ATOM     14  C   UNL     1       6.268   5.167  18.962  0.00  0.00    +0.000 A 
BRANCH  13  15
ATOM     15  O   UNL     1       8.051   5.382  20.524  0.00  0.00    +0.000 OA
ATOM     16  H   UNL     1       8.987   5.147  20.563  0.00  0.00    +0.000 HD
ENDBRANCH  13  15
ENDBRANCH   8   9
ENDBRANCH   7   8
ENDBRANCH   1   7
BRANCH   1  17
ATOM     17  C   UNL     1       2.543   7.085  19.688  0.00  0.00    +0.000 C 
BRANCH  17  18
ATOM     18  C   UNL     1       1.441   7.220  20.766  0.00  0.00    +0.000 C 
BRANCH  18  19
ATOM     19  C   UNL     1       0.911   8.629  20.871  0.00  0.00    +0.000 A 
ATOM     20  C   UNL     1       0.921   9.479  19.753  0.00  0.00    +0.000 A 
ATOM     21  C   UNL     1       0.437  10.785  19.857  0.00  0.00    +0.000 A 
ATOM     22  C   UNL     1      -0.054  11.257  21.076  0.00  0.00    +0.000 A 
ATOM     23  C   UNL     1      -0.077  10.416  22.197  0.00  0.00    +0.000 A 
ATOM     24  C   UNL     1       0.394   9.102  22.088  0.00  0.00    +0.000 A 
BRANCH  23  25
ATOM     25  O   UNL     1      -0.544  10.858  23.381  0.00  0.00    +0.000 OA
ATOM     26  H   UNL     1      -1.368  10.525  23.765  0.00  0.00    +0.000 HD
ENDBRANCH  23  25
ENDBRANCH  18  19
ENDBRANCH  17  18
ENDBRANCH   1  17
TORSDOF 11
ENDMDL
MODEL 9
REMARK VINA RESULT:      -7.2      1.641      6.090
REMARK  Name = 
REMARK  13 active torsions:
REMARK  status: ('A' for Active; 'I' for Inactive)
REMARK    1  A    between atoms: C_1  and  C_2
REMARK    2  A    between atoms: C_2  and  C_3
REMARK    3  A    between atoms: C_2  and  C_4
REMARK    4  A    between atoms: C_4  and  C_5
REMARK    5  A    between atoms: C_5  and  N_6
REMARK    6  A    between atoms: N_6  and  C_7
REMARK    7  A    between atoms: N_6  and  C_16
REMARK    8  A    between atoms: C_7  and  C_8
REMARK    9  A    between atoms: C_8  and  C_9
REMARK   10  A    between atoms: C_13  and  O_14
REMARK   11  A    between atoms: C_16  and  C_17
REMARK   12  A    between atoms: C_17  and  C_18
REMARK   13  A    between atoms: C_22  and  O_23
REMARK                            x       y       z     vdW  Elec       q    Type
REMARK                         _______ _______ _______ _____ _____    ______ ____
ROOT
ATOM      1  N   UNL     1       4.960   4.852  17.326  0.00  0.00    +0.000 NA
ENDROOT
BRANCH   1   2
ATOM      2  C   UNL     1       6.097   5.104  16.387  0.00  0.00    +0.000 C 
BRANCH   2   3
ATOM      3  C   UNL     1       6.910   6.405  16.605  0.00  0.00    +0.000 C 
BRANCH   3   5
ATOM      4  C   UNL     1       7.939   5.682  18.838  0.00  0.00    +0.000 C 
ATOM      5  C   UNL     1       7.223   6.799  18.069  0.00  0.00    +0.000 C 
ATOM      6  C   UNL     1       8.125   8.044  18.078  0.00  0.00    +0.000 C 
ENDBRANCH   3   5
ENDBRANCH   2   3
ENDBRANCH   1   2
BRANCH   1   7
ATOM      7  C   UNL     1       4.090   6.065  17.445  0.00  0.00    +0.000 C 
BRANCH   7   8
ATOM      8  C   UNL     1       3.296   6.162  18.776  0.00  0.00    +0.000 C 
BRANCH   8   9
ATOM      9  C   UNL     1       2.501   7.453  18.873  0.00  0.00    +0.000 A 
ATOM     10  C   UNL     1       2.429   8.337  17.780  0.00  0.00    +0.000 A 
ATOM     11  C   UNL     1       1.699   9.526  17.878  0.00  0.00    +0.000 A 
ATOM     12  C   UNL     1       1.033   9.849  19.061  0.00  0.00    +0.000 A 
ATOM     13  C   UNL     1       1.095   8.984  20.163  0.00  0.00    +0.000 A 
ATOM     14  C   UNL     1       1.829   7.790  20.069  0.00  0.00    +0.000 A 
BRANCH  13  15
ATOM     15  O   UNL     1       0.458   9.287  21.312  0.00  0.00    +0.000 OA
ATOM     16  H   UNL     1      -0.399   9.733  21.323  0.00  0.00    +0.000 HD
ENDBRANCH  13  15
ENDBRANCH   8   9
ENDBRANCH   7   8
ENDBRANCH   1   7
BRANCH   1  17
ATOM     17  C   UNL     1       4.152   3.703  16.809  0.00  0.00    +0.000 C 
BRANCH  17  18
ATOM     18  C   UNL     1       4.016   2.504  17.777  0.00  0.00    +0.000 C 
BRANCH  18  19
ATOM     19  C   UNL     1       2.901   2.696  18.776  0.00  0.00    +0.000 A 
ATOM     20  C   UNL     1       1.569   2.814  18.344  0.00  0.00    +0.000 A 
ATOM     21  C   UNL     1       0.542   3.001  19.270  0.00  0.00    +0.000 A 
ATOM     22  C   UNL     1       0.832   3.079  20.634  0.00  0.00    +0.000 A 
ATOM     23  C   UNL     1       2.155   2.955  21.079  0.00  0.00    +0.000 A 
ATOM     24  C   UNL     1       3.183   2.753  20.150  0.00  0.00    +0.000 A 
BRANCH  23  25
ATOM     25  O   UNL     1       2.452   3.033  22.391  0.00  0.00    +0.000 OA
ATOM     26  H   UNL     1       2.878   3.813  22.777  0.00  0.00    +0.000 HD
ENDBRANCH  23  25
ENDBRANCH  18  19
ENDBRANCH  17  18
ENDBRANCH   1  17
TORSDOF 11
ENDMDL
