MODEL 1
REMARK VINA RESULT:      -5.2      0.000      0.000
REMARK  Name = 
REMARK  6 active torsions:
REMARK  status: ('A' for Active; 'I' for Inactive)
REMARK    1  A    between atoms: C_1  and  O_2
REMARK    2  A    between atoms: O_2  and  C_3
REMARK    3  A    between atoms: C_5  and  C_6
REMARK    4  A    between atoms: C_7  and  O_8
REMARK    5  A    between atoms: O_8  and  C_9
REMARK    6  A    between atoms: C_11  and  C_12
REMARK                            x       y       z     vdW  Elec       q    Type
REMARK                         _______ _______ _______ _____ _____    ______ ____
ROOT
ATOM      1  C   UNL     1       4.334   4.657  18.912  0.00  0.00    +0.000 A 
ATOM      2  N   UNL     1       5.478   5.262  19.306  0.00  0.00    +0.000 NA
ATOM      3  C   UNL     1       6.504   5.242  18.414  0.00  0.00    +0.000 A 
ATOM      4  C   UNL     1       7.781   5.894  18.846  0.00  0.00    +0.000 C 
ATOM      5  C   UNL     1       6.370   4.641  17.162  0.00  0.00    +0.000 A 
ATOM      6  N   UNL     1       5.220   4.045  16.766  0.00  0.00    +0.000 NA
ATOM      7  C   UNL     1       4.201   4.055  17.659  0.00  0.00    +0.000 A 
ATOM      8  C   UNL     1       2.933   3.373  17.250  0.00  0.00    +0.000 C 
ENDROOT
BRANCH   1  10
ATOM      9  C   UNL     1       2.551   5.863  19.826  0.00  0.00    +0.000 C 
ATOM     10  O   UNL     1       3.257   4.626  19.774  0.00  0.00    +0.000 OA
ENDBRANCH   1  10
BRANCH   5  11
ATOM     11  O   UNL     1       7.450   4.642  16.304  0.00  0.00    +0.000 OA
ATOM     12  C   UNL     1       7.066   4.751  14.936  0.00  0.00    +0.000 C 
ENDBRANCH   5  11
TORSDOF 2
ENDMDL
MODEL 2
REMARK VINA RESULT:      -5.2      0.044      4.658
REMARK  Name = 
REMARK  6 active torsions:
REMARK  status: ('A' for Active; 'I' for Inactive)
REMARK    1  A    between atoms: C_1  and  O_2
REMARK    2  A    between atoms: O_2  and  C_3
REMARK    3  A    between atoms: C_5  and  C_6
REMARK    4  A    between atoms: C_7  and  O_8
REMARK    5  A    between atoms: O_8  and  C_9
REMARK    6  A    between atoms: C_11  and  C_12
REMARK                            x       y       z     vdW  Elec       q    Type
REMARK                         _______ _______ _______ _____ _____    ______ ____
ROOT
ATOM      1  C   UNL     1       6.346   4.636  17.174  0.00  0.00    +0.000 A 
ATOM      2  N   UNL     1       5.209   4.021  16.776  0.00  0.00    +0.000 NA
ATOM      3  C   UNL     1       4.180   4.032  17.665  0.00  0.00    +0.000 A 
ATOM      4  C   UNL     1       2.921   3.340  17.242  0.00  0.00    +0.000 C 
ATOM      5  C   UNL     1       4.296   4.656  18.908  0.00  0.00    +0.000 A 
ATOM      6  N   UNL     1       5.432   5.279  19.299  0.00  0.00    +0.000 NA
ATOM      7  C   UNL     1       6.462   5.260  18.418  0.00  0.00    +0.000 A 
ATOM      8  C   UNL     1       7.736   5.917  18.848  0.00  0.00    +0.000 C 
ENDROOT
BRANCH   1  10
ATOM      9  C   UNL     1       7.074   4.799  14.958  0.00  0.00    +0.000 C 
ATOM     10  O   UNL     1       7.436   4.650  16.328  0.00  0.00    +0.000 OA
ENDBRANCH   1  10
BRANCH   5  11
ATOM     11  O   UNL     1       3.221   4.623  19.771  0.00  0.00    +0.000 OA
ATOM     12  C   UNL     1       2.574   5.888  19.892  0.00  0.00    +0.000 C 
ENDBRANCH   5  11
TORSDOF 2
ENDMDL
MODEL 3
REMARK VINA RESULT:      -5.1      1.134      1.435
REMARK  Name = 
REMARK  6 active torsions:
REMARK  status: ('A' for Active; 'I' for Inactive)
REMARK    1  A    between atoms: C_1  and  O_2
REMARK    2  A    between atoms: O_2  and  C_3
REMARK    3  A    between atoms: C_5  and  C_6
REMARK    4  A    between atoms: C_7  and  O_8
REMARK    5  A    between atoms: O_8  and  C_9
REMARK    6  A    between atoms: C_11  and  C_12
REMARK                            x       y       z     vdW  Elec       q    Type
REMARK                         _______ _______ _______ _____ _____    ______ ____
ROOT
ATOM      1  C   UNL     1       4.513   3.924  18.856  0.00  0.00    +0.000 A 
ATOM      2  N   UNL     1       5.694   4.484  19.202  0.00  0.00    +0.000 NA
ATOM      3  C   UNL     1       6.384   5.091  18.200  0.00  0.00    +0.000 A 
ATOM      4  C   UNL     1       7.701   5.702  18.566  0.00  0.00    +0.000 C 
ATOM      5  C   UNL     1       5.888   5.138  16.896  0.00  0.00    +0.000 A 
ATOM      6  N   UNL     1       4.700   4.584  16.555  0.00  0.00    +0.000 NA
ATOM      7  C   UNL     1       4.016   3.970  17.552  0.00  0.00    +0.000 A 
ATOM      8  C   UNL     1       2.716   3.325  17.186  0.00  0.00    +0.000 C 
ENDROOT
BRANCH   1  10
ATOM      9  C   UNL     1       4.396   2.096  20.310  0.00  0.00    +0.000 C 
ATOM     10  O   UNL     1       3.766   3.277  19.820  0.00  0.00    +0.000 OA
ENDBRANCH   1  10
BRANCH   5  11
ATOM     11  O   UNL     1       6.639   5.758  15.920  0.00  0.00    +0.000 OA
ATOM     12  C   UNL     1       6.920   4.902  14.815  0.00  0.00    +0.000 C 
ENDBRANCH   5  11
TORSDOF 2
ENDMDL
MODEL 4
REMARK VINA RESULT:      -5.1      0.993      4.635
REMARK  Name = 
REMARK  6 active torsions:
REMARK  status: ('A' for Active; 'I' for Inactive)
REMARK    1  A    between atoms: C_1  and  O_2
REMARK    2  A    between atoms: O_2  and  C_3
REMARK    3  A    between atoms: C_5  and  C_6
REMARK    4  A    between atoms: C_7  and  O_8
REMARK    5  A    between atoms: O_8  and  C_9
REMARK    6  A    between atoms: C_11  and  C_12
REMARK                            x       y       z     vdW  Elec       q    Type
REMARK                         _______ _______ _______ _____ _____    ______ ____
ROOT
ATOM      1  C   UNL     1       6.320   4.886  17.001  0.00  0.00    +0.000 A 
ATOM      2  N   UNL     1       5.161   4.342  16.567  0.00  0.00    +0.000 NA
ATOM      3  C   UNL     1       4.304   3.912  17.530  0.00  0.00    +0.000 A 
ATOM      4  C   UNL     1       3.023   3.293  17.061  0.00  0.00    +0.000 C 
ATOM      5  C   UNL     1       4.606   4.040  18.886  0.00  0.00    +0.000 A 
ATOM      6  N   UNL     1       5.764   4.594  19.319  0.00  0.00    +0.000 NA
ATOM      7  C   UNL     1       6.623   5.014  18.358  0.00  0.00    +0.000 A 
ATOM      8  C   UNL     1       7.921   5.601  18.818  0.00  0.00    +0.000 C 
ENDROOT
BRANCH   1  10
ATOM      9  C   UNL     1       7.001   4.830  14.765  0.00  0.00    +0.000 C 
ATOM     10  O   UNL     1       7.244   5.331  16.077  0.00  0.00    +0.000 OA
ENDBRANCH   1  10
BRANCH   5  11
ATOM     11  O   UNL     1       3.702   3.574  19.817  0.00  0.00    +0.000 OA
ATOM     12  C   UNL     1       4.101   2.335  20.400  0.00  0.00    +0.000 C 
ENDBRANCH   5  11
TORSDOF 2
ENDMDL
MODEL 5
REMARK VINA RESULT:      -5.0      1.492      3.897
REMARK  Name = 
REMARK  6 active torsions:
REMARK  status: ('A' for Active; 'I' for Inactive)
REMARK    1  A    between atoms: C_1  and  O_2
REMARK    2  A    between atoms: O_2  and  C_3
REMARK    3  A    between atoms: C_5  and  C_6
REMARK    4  A    between atoms: C_7  and  O_8
REMARK    5  A    between atoms: O_8  and  C_9
REMARK    6  A    between atoms: C_11  and  C_12
REMARK                            x       y       z     vdW  Elec       q    Type
REMARK                         _______ _______ _______ _____ _____    ______ ____
ROOT
ATOM      1  C   UNL     1       6.415   5.761  16.910  0.00  0.00    +0.000 A 
ATOM      2  N   UNL     1       5.744   5.960  18.067  0.00  0.00    +0.000 NA
ATOM      3  C   UNL     1       4.659   5.168  18.273  0.00  0.00    +0.000 A 
ATOM      4  C   UNL     1       3.897   5.389  19.544  0.00  0.00    +0.000 C 
ATOM      5  C   UNL     1       4.276   4.199  17.344  0.00  0.00    +0.000 A 
ATOM      6  N   UNL     1       4.956   3.996  16.191  0.00  0.00    +0.000 NA
ATOM      7  C   UNL     1       6.032   4.793  15.980  0.00  0.00    +0.000 A 
ATOM      8  C   UNL     1       6.777   4.603  14.696  0.00  0.00    +0.000 C 
ENDROOT
BRANCH   1  10
ATOM      9  C   UNL     1       7.653   7.653  17.512  0.00  0.00    +0.000 C 
ATOM     10  O   UNL     1       7.518   6.542  16.629  0.00  0.00    +0.000 OA
ENDBRANCH   1  10
BRANCH   5  11
ATOM     11  O   UNL     1       3.159   3.434  17.604  0.00  0.00    +0.000 OA
ATOM     12  C   UNL     1       3.480   2.082  17.925  0.00  0.00    +0.000 C 
ENDBRANCH   5  11
TORSDOF 2
ENDMDL
MODEL 6
REMARK VINA RESULT:      -5.0      1.483      2.933
REMARK  Name = 
REMARK  6 active torsions:
REMARK  status: ('A' for Active; 'I' for Inactive)
REMARK    1  A    between atoms: C_1  and  O_2
REMARK    2  A    between atoms: O_2  and  C_3
REMARK    3  A    between atoms: C_5  and  C_6
REMARK    4  A    between atoms: C_7  and  O_8
REMARK    5  A    between atoms: O_8  and  C_9
REMARK    6  A    between atoms: C_11  and  C_12
REMARK                            x       y       z     vdW  Elec       q    Type
REMARK                         _______ _______ _______ _____ _____    ______ ____
ROOT
ATOM      1  C   UNL     1       4.247   4.229  17.377  0.00  0.00    +0.000 A 
ATOM      2  N   UNL     1       4.920   4.000  16.226  0.00  0.00    +0.000 NA
ATOM      3  C   UNL     1       5.997   4.797  15.994  0.00  0.00    +0.000 A 
ATOM      4  C   UNL     1       6.741   4.564  14.716  0.00  0.00    +0.000 C 
ATOM      5  C   UNL     1       6.384   5.783  16.902  0.00  0.00    +0.000 A 
ATOM      6  N   UNL     1       5.714   6.004  18.058  0.00  0.00    +0.000 NA
ATOM      7  C   UNL     1       4.634   5.216  18.285  0.00  0.00    +0.000 A 
ATOM      8  C   UNL     1       3.863   5.466  19.543  0.00  0.00    +0.000 C 
ENDROOT
BRANCH   1  10
ATOM      9  C   UNL     1       3.450   2.104  17.941  0.00  0.00    +0.000 C 
ATOM     10  O   UNL     1       3.134   3.466  17.669  0.00  0.00    +0.000 OA
ENDBRANCH   1  10
BRANCH   5  11
ATOM     11  O   UNL     1       7.478   6.569  16.606  0.00  0.00    +0.000 OA
ATOM     12  C   UNL     1       7.642   7.651  17.519  0.00  0.00    +0.000 C 
ENDBRANCH   5  11
TORSDOF 2
ENDMDL
MODEL 7
REMARK VINA RESULT:      -5.0      1.514      3.951
REMARK  Name = 
REMARK  6 active torsions:
REMARK  status: ('A' for Active; 'I' for Inactive)
REMARK    1  A    between atoms: C_1  and  O_2
REMARK    2  A    between atoms: O_2  and  C_3
REMARK    3  A    between atoms: C_5  and  C_6
REMARK    4  A    between atoms: C_7  and  O_8
REMARK    5  A    between atoms: O_8  and  C_9
REMARK    6  A    between atoms: C_11  and  C_12
REMARK                            x       y       z     vdW  Elec       q    Type
REMARK                         _______ _______ _______ _____ _____    ______ ____
ROOT
ATOM      1  C   UNL     1       6.324   4.355  18.121  0.00  0.00    +0.000 A 
ATOM      2  N   UNL     1       5.653   3.859  19.186  0.00  0.00    +0.000 NA
ATOM      3  C   UNL     1       4.362   3.494  18.962  0.00  0.00    +0.000 A 
ATOM      4  C   UNL     1       3.604   2.958  20.137  0.00  0.00    +0.000 C 
ATOM      5  C   UNL     1       3.778   3.616  17.701  0.00  0.00    +0.000 A 
ATOM      6  N   UNL     1       4.455   4.104  16.635  0.00  0.00    +0.000 NA
ATOM      7  C   UNL     1       5.738   4.478  16.860  0.00  0.00    +0.000 A 
ATOM      8  C   UNL     1       6.493   5.048  15.700  0.00  0.00    +0.000 C 
ENDROOT
BRANCH   1  10
ATOM      9  C   UNL     1       7.779   5.809  19.234  0.00  0.00    +0.000 C 
ATOM     10  O   UNL     1       7.634   4.761  18.280  0.00  0.00    +0.000 OA
ENDBRANCH   1  10
BRANCH   5  11
ATOM     11  O   UNL     1       2.461   3.240  17.539  0.00  0.00    +0.000 OA
ATOM     12  C   UNL     1       1.559   4.340  17.632  0.00  0.00    +0.000 C 
ENDBRANCH   5  11
TORSDOF 2
ENDMDL
MODEL 8
REMARK VINA RESULT:      -4.9      1.509      2.690
REMARK  Name = 
REMARK  6 active torsions:
REMARK  status: ('A' for Active; 'I' for Inactive)
REMARK    1  A    between atoms: C_1  and  O_2
REMARK    2  A    between atoms: O_2  and  C_3
REMARK    3  A    between atoms: C_5  and  C_6
REMARK    4  A    between atoms: C_7  and  O_8
REMARK    5  A    between atoms: O_8  and  C_9
REMARK    6  A    between atoms: C_11  and  C_12
REMARK                            x       y       z     vdW  Elec       q    Type
REMARK                         _______ _______ _______ _____ _____    ______ ____
ROOT
ATOM      1  C   UNL     1       3.816   3.603  17.679  0.00  0.00    +0.000 A 
ATOM      2  N   UNL     1       4.378   4.159  16.583  0.00  0.00    +0.000 NA
ATOM      3  C   UNL     1       5.646   4.628  16.732  0.00  0.00    +0.000 A 
ATOM      4  C   UNL     1       6.273   5.261  15.529  0.00  0.00    +0.000 C 
ATOM      5  C   UNL     1       6.323   4.523  17.947  0.00  0.00    +0.000 A 
ATOM      6  N   UNL     1       5.761   3.956  19.041  0.00  0.00    +0.000 NA
ATOM      7  C   UNL     1       4.494   3.499  18.895  0.00  0.00    +0.000 A 
ATOM      8  C   UNL     1       3.846   2.898  20.103  0.00  0.00    +0.000 C 
ENDROOT
BRANCH   1  10
ATOM      9  C   UNL     1       1.541   4.148  17.703  0.00  0.00    +0.000 C 
ATOM     10  O   UNL     1       2.524   3.121  17.603  0.00  0.00    +0.000 OA
ENDBRANCH   1  10
BRANCH   5  11
ATOM     11  O   UNL     1       7.604   5.027  18.040  0.00  0.00    +0.000 OA
ATOM     12  C   UNL     1       7.813   5.782  19.232  0.00  0.00    +0.000 C 
ENDBRANCH   5  11
TORSDOF 2
ENDMDL
MODEL 9
REMARK VINA RESULT:      -4.9      1.911      3.909
REMARK  Name = 
REMARK  6 active torsions:
REMARK  status: ('A' for Active; 'I' for Inactive)
REMARK    1  A    between atoms: C_1  and  O_2
REMARK    2  A    between atoms: O_2  and  C_3
REMARK    3  A    between atoms: C_5  and  C_6
REMARK    4  A    between atoms: C_7  and  O_8
REMARK    5  A    between atoms: O_8  and  C_9
REMARK    6  A    between atoms: C_11  and  C_12
REMARK                            x       y       z     vdW  Elec       q    Type
REMARK                         _______ _______ _______ _____ _____    ______ ____
ROOT
ATOM      1  C   UNL     1       5.731   5.118  18.270  0.00  0.00    +0.000 A 
ATOM      2  N   UNL     1       5.588   4.207  19.259  0.00  0.00    +0.000 NA
ATOM      3  C   UNL     1       4.584   3.304  19.100  0.00  0.00    +0.000 A 
ATOM      4  C   UNL     1       4.405   2.300  20.196  0.00  0.00    +0.000 C 
ATOM      5  C   UNL     1       3.763   3.318  17.972  0.00  0.00    +0.000 A 
ATOM      6  N   UNL     1       3.915   4.226  16.979  0.00  0.00    +0.000 NA
ATOM      7  C   UNL     1       4.909   5.132  17.142  0.00  0.00    +0.000 A 
ATOM      8  C   UNL     1       5.072   6.162  16.068  0.00  0.00    +0.000 C 
ENDROOT
BRANCH   1  10
ATOM      9  C   UNL     1       7.774   5.692  19.255  0.00  0.00    +0.000 C 
ATOM     10  O   UNL     1       6.721   6.075  18.373  0.00  0.00    +0.000 OA
ENDBRANCH   1  10
BRANCH   5  11
ATOM     11  O   UNL     1       2.753   2.384  17.873  0.00  0.00    +0.000 OA
ATOM     12  C   UNL     1       1.483   2.902  18.262  0.00  0.00    +0.000 C 
ENDBRANCH   5  11
TORSDOF 2
ENDMDL
