MODEL 1
REMARK VINA RESULT:      -7.9      0.000      0.000
REMARK  Name = 
REMARK  6 active torsions:
REMARK  status: ('A' for Active; 'I' for Inactive)
REMARK    1  A    between atoms: C_2  and  C_3
REMARK    2  A    between atoms: C_3  and  C_4
REMARK    3  A    between atoms: C_16  and  C_17
REMARK    4  A    between atoms: C_17  and  O_18
REMARK    5  A    between atoms: C_19  and  C_20
REMARK    6  A    between atoms: C_23  and  C_24
REMARK                            x       y       z     vdW  Elec       q    Type
REMARK                         _______ _______ _______ _____ _____    ______ ____
ROOT
ATOM      1  O   UNL     1       1.663  15.964  18.934  0.00  0.00    +0.000 OA
ATOM      2  C   UNL     1       1.864  14.803  19.305  0.00  0.00    +0.000 C 
ATOM      3  N   UNL     1       1.146  14.234  20.355  0.00  0.00    +0.000 N 
ATOM      4  C   UNL     1       0.098  15.029  20.988  0.00  0.00    +0.000 C 
ATOM      5  C   UNL     1      -1.116  15.296  20.099  0.00  0.00    +0.000 C 
ATOM      6  C   UNL     1      -2.167  14.192  20.082  0.00  0.00    +0.000 C 
ATOM      7  C   UNL     1      -1.757  12.892  19.385  0.00  0.00    +0.000 C 
ATOM      8  N   UNL     1      -1.006  12.016  20.277  0.00  0.00    +0.000 NA
ATOM      9  C   UNL     1      -1.082  10.569  19.872  0.00  0.00    +0.000 C 
ATOM     10  C   UNL     1       0.393  10.450  20.413  0.00  0.00    +0.000 C 
ATOM     11  C   UNL     1       0.464  11.955  19.973  0.00  0.00    +0.000 C 
ATOM     12  C   UNL     1       1.327  12.863  20.840  0.00  0.00    +0.000 C 
ENDROOT
BRANCH  10  13
ATOM     13  C   UNL     1       1.278   9.315  19.762  0.00  0.00    +0.000 A 
ATOM     14  C   UNL     1       1.725   9.334  18.436  0.00  0.00    +0.000 A 
ATOM     15  C   UNL     1       2.306   8.205  17.846  0.00  0.00    +0.000 A 
ATOM     16  C   UNL     1       2.508   7.014  18.565  0.00  0.00    +0.000 A 
ATOM     17  C   UNL     1       2.177   7.035  19.923  0.00  0.00    +0.000 A 
ATOM     18  C   UNL     1       1.581   8.158  20.504  0.00  0.00    +0.000 A 
BRANCH  16  19
ATOM     19  C   UNL     1       3.016   5.789  17.906  0.00  0.00    +0.000 A 
ATOM     20  C   UNL     1       2.241   4.616  17.854  0.00  0.00    +0.000 A 
ATOM     21  C   UNL     1       2.732   3.436  17.285  0.00  0.00    +0.000 A 
ATOM     22  C   UNL     1       4.009   3.403  16.733  0.00  0.00    +0.000 A 
ATOM     23  C   UNL     1       4.796   4.549  16.757  0.00  0.00    +0.000 A 
ATOM     24  C   UNL     1       4.305   5.718  17.341  0.00  0.00    +0.000 A 
ATOM     25  F   UNL     1       5.127   6.780  17.371  0.00  0.00    +0.000 F 
ENDBRANCH  16  19
ENDBRANCH  10  13
BRANCH   2  26
ATOM     26  C   UNL     1       2.928  13.980  18.598  0.00  0.00    +0.000 C 
BRANCH  26  27
ATOM     27  C   UNL     1       4.311  14.506  18.862  0.00  0.00    +0.000 A 
ATOM     28  C   UNL     1       5.229  14.627  17.821  0.00  0.00    +0.000 A 
ATOM     29  C   UNL     1       6.501  15.121  18.099  0.00  0.00    +0.000 A 
ATOM     30  C   UNL     1       6.819  15.478  19.402  0.00  0.00    +0.000 A 
ATOM     31  C   UNL     1       5.852  15.319  20.381  0.00  0.00    +0.000 A 
ATOM     32  N   UNL     1       4.611  14.839  20.144  0.00  0.00    +0.000 NA
ENDBRANCH  26  27
ENDBRANCH   2  26
BRANCH   9  33
ATOM     33  C   UNL     1      -1.373  10.196  18.393  0.00  0.00    +0.000 C 
BRANCH  33  34
ATOM     34  O   UNL     1      -2.699   9.720  18.165  0.00  0.00    +0.000 OA
ATOM     35  H   UNL     1      -3.247  10.496  17.941  0.00  0.00    +0.000 HD
ENDBRANCH  33  34
ENDBRANCH   9  33
TORSDOF 6
ENDMDL
MODEL 2
REMARK VINA RESULT:      -7.8      4.434      9.066
REMARK  Name = 
REMARK  6 active torsions:
REMARK  status: ('A' for Active; 'I' for Inactive)
REMARK    1  A    between atoms: C_2  and  C_3
REMARK    2  A    between atoms: C_3  and  C_4
REMARK    3  A    between atoms: C_16  and  C_17
REMARK    4  A    between atoms: C_17  and  O_18
REMARK    5  A    between atoms: C_19  and  C_20
REMARK    6  A    between atoms: C_23  and  C_24
REMARK                            x       y       z     vdW  Elec       q    Type
REMARK                         _______ _______ _______ _____ _____    ______ ____
ROOT
ATOM      1  O   UNL     1       0.957   4.868  20.496  0.00  0.00    +0.000 OA
ATOM      2  C   UNL     1       2.178   5.036  20.402  0.00  0.00    +0.000 C 
ATOM      3  N   UNL     1       3.035   3.998  20.042  0.00  0.00    +0.000 N 
ATOM      4  C   UNL     1       2.452   2.698  19.721  0.00  0.00    +0.000 C 
ATOM      5  C   UNL     1       1.631   2.675  18.432  0.00  0.00    +0.000 C 
ATOM      6  C   UNL     1       2.435   2.467  17.152  0.00  0.00    +0.000 C 
ATOM      7  C   UNL     1       3.335   3.632  16.734  0.00  0.00    +0.000 C 
ATOM      8  N   UNL     1       4.621   3.593  17.420  0.00  0.00    +0.000 NA
ATOM      9  C   UNL     1       5.705   4.315  16.666  0.00  0.00    +0.000 C 
ATOM     10  C   UNL     1       6.280   4.706  18.080  0.00  0.00    +0.000 C 
ATOM     11  C   UNL     1       4.769   4.632  18.495  0.00  0.00    +0.000 C 
ATOM     12  C   UNL     1       4.488   4.129  19.904  0.00  0.00    +0.000 C 
ENDROOT
BRANCH  10  13
ATOM     13  C   UNL     1       7.130   6.037  18.134  0.00  0.00    +0.000 A 
ATOM     14  C   UNL     1       8.128   6.291  19.081  0.00  0.00    +0.000 A 
ATOM     15  C   UNL     1       8.688   7.566  19.227  0.00  0.00    +0.000 A 
ATOM     16  C   UNL     1       8.307   8.641  18.405  0.00  0.00    +0.000 A 
ATOM     17  C   UNL     1       7.402   8.358  17.378  0.00  0.00    +0.000 A 
ATOM     18  C   UNL     1       6.832   7.088  17.247  0.00  0.00    +0.000 A 
BRANCH  16  19
ATOM     19  C   UNL     1       8.816  10.012  18.639  0.00  0.00    +0.000 A 
ATOM     20  C   UNL     1       9.739  10.280  19.666  0.00  0.00    +0.000 A 
ATOM     21  C   UNL     1      10.183  11.579  19.934  0.00  0.00    +0.000 A 
ATOM     22  C   UNL     1       9.729  12.647  19.166  0.00  0.00    +0.000 A 
ATOM     23  C   UNL     1       8.826  12.415  18.135  0.00  0.00    +0.000 A 
ATOM     24  C   UNL     1       8.374  11.118  17.885  0.00  0.00    +0.000 A 
ATOM     25  F   UNL     1       7.471  10.962  16.903  0.00  0.00    +0.000 F 
ENDBRANCH  16  19
ENDBRANCH  10  13
BRANCH   2  26
ATOM     26  C   UNL     1       2.754   6.410  20.695  0.00  0.00    +0.000 C 
BRANCH  26  27
ATOM     27  C   UNL     1       2.203   7.459  19.771  0.00  0.00    +0.000 A 
ATOM     28  C   UNL     1       2.496   7.422  18.409  0.00  0.00    +0.000 A 
ATOM     29  C   UNL     1       1.965   8.406  17.579  0.00  0.00    +0.000 A 
ATOM     30  C   UNL     1       1.162   9.396  18.130  0.00  0.00    +0.000 A 
ATOM     31  C   UNL     1       0.926   9.366  19.494  0.00  0.00    +0.000 A 
ATOM     32  N   UNL     1       1.429   8.427  20.326  0.00  0.00    +0.000 NA
ENDBRANCH  26  27
ENDBRANCH   2  26
BRANCH   9  33
ATOM     33  C   UNL     1       5.331   5.443  15.667  0.00  0.00    +0.000 C 
BRANCH  33  34
ATOM     34  O   UNL     1       6.104   5.436  14.467  0.00  0.00    +0.000 OA
ATOM     35  H   UNL     1       5.487   5.596  13.728  0.00  0.00    +0.000 HD
ENDBRANCH  33  34
ENDBRANCH   9  33
TORSDOF 6
ENDMDL
MODEL 3
REMARK VINA RESULT:      -7.7      0.951      1.426
REMARK  Name = 
REMARK  6 active torsions:
REMARK  status: ('A' for Active; 'I' for Inactive)
REMARK    1  A    between atoms: C_2  and  C_3
REMARK    2  A    between atoms: C_3  and  C_4
REMARK    3  A    between atoms: C_16  and  C_17
REMARK    4  A    between atoms: C_17  and  O_18
REMARK    5  A    between atoms: C_19  and  C_20
REMARK    6  A    between atoms: C_23  and  C_24
REMARK                            x       y       z     vdW  Elec       q    Type
REMARK                         _______ _______ _______ _____ _____    ______ ____
ROOT
ATOM      1  O   UNL     1       1.916  16.026  18.974  0.00  0.00    +0.000 OA
ATOM      2  C   UNL     1       2.082  14.857  19.339  0.00  0.00    +0.000 C 
ATOM      3  N   UNL     1       1.322  14.293  20.361  0.00  0.00    +0.000 N 
ATOM      4  C   UNL     1       0.273  15.105  20.972  0.00  0.00    +0.000 C 
ATOM      5  C   UNL     1      -0.909  15.407  20.051  0.00  0.00    +0.000 C 
ATOM      6  C   UNL     1      -1.982  14.325  19.992  0.00  0.00    +0.000 C 
ATOM      7  C   UNL     1      -1.579  13.024  19.294  0.00  0.00    +0.000 C 
ATOM      8  N   UNL     1      -0.873  12.123  20.199  0.00  0.00    +0.000 NA
ATOM      9  C   UNL     1      -0.968  10.682  19.777  0.00  0.00    +0.000 C 
ATOM     10  C   UNL     1       0.488  10.527  20.360  0.00  0.00    +0.000 C 
ATOM     11  C   UNL     1       0.604  12.034  19.938  0.00  0.00    +0.000 C 
ATOM     12  C   UNL     1       1.460  12.915  20.838  0.00  0.00    +0.000 C 
ENDROOT
BRANCH  10  13
ATOM     13  C   UNL     1       1.367   9.379  19.723  0.00  0.00    +0.000 A 
ATOM     14  C   UNL     1       1.819   9.382  18.399  0.00  0.00    +0.000 A 
ATOM     15  C   UNL     1       2.395   8.243  17.822  0.00  0.00    +0.000 A 
ATOM     16  C   UNL     1       2.586   7.058  18.553  0.00  0.00    +0.000 A 
ATOM     17  C   UNL     1       2.250   7.095  19.910  0.00  0.00    +0.000 A 
ATOM     18  C   UNL     1       1.659   8.228  20.477  0.00  0.00    +0.000 A 
BRANCH  16  19
ATOM     19  C   UNL     1       3.088   5.823  17.908  0.00  0.00    +0.000 A 
ATOM     20  C   UNL     1       4.315   5.809  17.219  0.00  0.00    +0.000 A 
ATOM     21  C   UNL     1       4.772   4.665  16.557  0.00  0.00    +0.000 A 
ATOM     22  C   UNL     1       4.021   3.493  16.582  0.00  0.00    +0.000 A 
ATOM     23  C   UNL     1       2.809   3.471  17.265  0.00  0.00    +0.000 A 
ATOM     24  C   UNL     1       2.352   4.621  17.909  0.00  0.00    +0.000 A 
ATOM     25  F   UNL     1       1.156   4.549  18.516  0.00  0.00    +0.000 F 
ENDBRANCH  16  19
ENDBRANCH  10  13
BRANCH   2  26
ATOM     26  C   UNL     1       3.149  14.019  18.655  0.00  0.00    +0.000 C 
BRANCH  26  27
ATOM     27  C   UNL     1       4.531  14.550  18.912  0.00  0.00    +0.000 A 
ATOM     28  C   UNL     1       4.904  14.952  20.193  0.00  0.00    +0.000 A 
ATOM     29  C   UNL     1       6.194  15.436  20.398  0.00  0.00    +0.000 A 
ATOM     30  C   UNL     1       7.069  15.506  19.323  0.00  0.00    +0.000 A 
ATOM     31  C   UNL     1       6.618  15.094  18.080  0.00  0.00    +0.000 A 
ATOM     32  N   UNL     1       5.372  14.624  17.848  0.00  0.00    +0.000 NA
ENDBRANCH  26  27
ENDBRANCH   2  26
BRANCH   9  33
ATOM     33  C   UNL     1      -1.223  10.329  18.287  0.00  0.00    +0.000 C 
BRANCH  33  34
ATOM     34  O   UNL     1      -2.519   9.788  18.032  0.00  0.00    +0.000 OA
ATOM     35  H   UNL     1      -2.638   9.772  17.064  0.00  0.00    +0.000 HD
ENDBRANCH  33  34
ENDBRANCH   9  33
TORSDOF 6
ENDMDL
MODEL 4
REMARK VINA RESULT:      -7.5      4.444      9.040
REMARK  Name = 
REMARK  6 active torsions:
REMARK  status: ('A' for Active; 'I' for Inactive)
REMARK    1  A    between atoms: C_2  and  C_3
REMARK    2  A    between atoms: C_3  and  C_4
REMARK    3  A    between atoms: C_16  and  C_17
REMARK    4  A    between atoms: C_17  and  O_18
REMARK    5  A    between atoms: C_19  and  C_20
REMARK    6  A    between atoms: C_23  and  C_24
REMARK                            x       y       z     vdW  Elec       q    Type
REMARK                         _______ _______ _______ _____ _____    ______ ____
ROOT
ATOM      1  O   UNL     1       0.932   5.024  20.513  0.00  0.00    +0.000 OA
ATOM      2  C   UNL     1       2.153   5.195  20.425  0.00  0.00    +0.000 C 
ATOM      3  N   UNL     1       3.019   4.151  20.107  0.00  0.00    +0.000 N 
ATOM      4  C   UNL     1       2.446   2.837  19.825  0.00  0.00    +0.000 C 
ATOM      5  C   UNL     1       1.637   2.767  18.530  0.00  0.00    +0.000 C 
ATOM      6  C   UNL     1       2.453   2.520  17.265  0.00  0.00    +0.000 C 
ATOM      7  C   UNL     1       3.351   3.676  16.816  0.00  0.00    +0.000 C 
ATOM      8  N   UNL     1       4.632   3.666  17.515  0.00  0.00    +0.000 NA
ATOM      9  C   UNL     1       5.718   4.368  16.747  0.00  0.00    +0.000 C 
ATOM     10  C   UNL     1       6.279   4.810  18.152  0.00  0.00    +0.000 C 
ATOM     11  C   UNL     1       4.764   4.742  18.555  0.00  0.00    +0.000 C 
ATOM     12  C   UNL     1       4.472   4.284  19.979  0.00  0.00    +0.000 C 
ENDROOT
BRANCH  10  13
ATOM     13  C   UNL     1       7.121   6.146  18.170  0.00  0.00    +0.000 A 
ATOM     14  C   UNL     1       8.162   6.404  19.068  0.00  0.00    +0.000 A 
ATOM     15  C   UNL     1       8.720   7.683  19.190  0.00  0.00    +0.000 A 
ATOM     16  C   UNL     1       8.292   8.758  18.391  0.00  0.00    +0.000 A 
ATOM     17  C   UNL     1       7.341   8.471  17.408  0.00  0.00    +0.000 A 
ATOM     18  C   UNL     1       6.774   7.197  17.300  0.00  0.00    +0.000 A 
BRANCH  16  19
ATOM     19  C   UNL     1       8.803  10.131  18.604  0.00  0.00    +0.000 A 
ATOM     20  C   UNL     1       8.958  11.025  17.528  0.00  0.00    +0.000 A 
ATOM     21  C   UNL     1       9.493  12.305  17.709  0.00  0.00    +0.000 A 
ATOM     22  C   UNL     1       9.871  12.734  18.977  0.00  0.00    +0.000 A 
ATOM     23  C   UNL     1       9.720  11.879  20.063  0.00  0.00    +0.000 A 
ATOM     24  C   UNL     1       9.201  10.598  19.873  0.00  0.00    +0.000 A 
ATOM     25  F   UNL     1       9.117   9.804  20.953  0.00  0.00    +0.000 F 
ENDBRANCH  16  19
ENDBRANCH  10  13
BRANCH   2  26
ATOM     26  C   UNL     1       2.720   6.582  20.677  0.00  0.00    +0.000 C 
BRANCH  26  27
ATOM     27  C   UNL     1       2.154   7.600  19.728  0.00  0.00    +0.000 A 
ATOM     28  C   UNL     1       2.457   7.543  18.369  0.00  0.00    +0.000 A 
ATOM     29  C   UNL     1       1.913   8.499  17.517  0.00  0.00    +0.000 A 
ATOM     30  C   UNL     1       1.087   9.483  18.042  0.00  0.00    +0.000 A 
ATOM     31  C   UNL     1       0.841   9.476  19.405  0.00  0.00    +0.000 A 
ATOM     32  N   UNL     1       1.357   8.563  20.259  0.00  0.00    +0.000 NA
ENDBRANCH  26  27
ENDBRANCH   2  26
BRANCH   9  33
ATOM     33  C   UNL     1       5.348   5.460  15.708  0.00  0.00    +0.000 C 
BRANCH  33  34
ATOM     34  O   UNL     1       5.763   5.158  14.376  0.00  0.00    +0.000 OA
ATOM     35  H   UNL     1       5.806   4.187  14.302  0.00  0.00    +0.000 HD
ENDBRANCH  33  34
ENDBRANCH   9  33
TORSDOF 6
ENDMDL
MODEL 5
REMARK VINA RESULT:      -7.5      0.981      1.768
REMARK  Name = 
REMARK  6 active torsions:
REMARK  status: ('A' for Active; 'I' for Inactive)
REMARK    1  A    between atoms: C_2  and  C_3
REMARK    2  A    between atoms: C_3  and  C_4
REMARK    3  A    between atoms: C_16  and  C_17
REMARK    4  A    between atoms: C_17  and  O_18
REMARK    5  A    between atoms: C_19  and  C_20
REMARK    6  A    between atoms: C_23  and  C_24
REMARK                            x       y       z     vdW  Elec       q    Type
REMARK                         _______ _______ _______ _____ _____    ______ ____
ROOT
ATOM      1  O   UNL     1       1.644  15.811  19.145  0.00  0.00    +0.000 OA
ATOM      2  C   UNL     1       1.841  14.623  19.424  0.00  0.00    +0.000 C 
ATOM      3  N   UNL     1       1.159  13.991  20.462  0.00  0.00    +0.000 N 
ATOM      4  C   UNL     1       0.153  14.754  21.196  0.00  0.00    +0.000 C 
ATOM      5  C   UNL     1      -1.093  15.102  20.382  0.00  0.00    +0.000 C 
ATOM      6  C   UNL     1      -2.163  14.016  20.334  0.00  0.00    +0.000 C 
ATOM      7  C   UNL     1      -1.806  12.764  19.529  0.00  0.00    +0.000 C 
ATOM      8  N   UNL     1      -1.033  11.816  20.324  0.00  0.00    +0.000 NA
ATOM      9  C   UNL     1      -1.152  10.403  19.821  0.00  0.00    +0.000 C 
ATOM     10  C   UNL     1       0.343  10.224  20.287  0.00  0.00    +0.000 C 
ATOM     11  C   UNL     1       0.421  11.755  19.952  0.00  0.00    +0.000 C 
ATOM     12  C   UNL     1       1.337  12.587  20.841  0.00  0.00    +0.000 C 
ENDROOT
BRANCH  10  13
ATOM     13  C   UNL     1       1.178   9.125  19.519  0.00  0.00    +0.000 A 
ATOM     14  C   UNL     1       1.519   7.881  20.060  0.00  0.00    +0.000 A 
ATOM     15  C   UNL     1       2.447   7.042  19.431  0.00  0.00    +0.000 A 
ATOM     16  C   UNL     1       3.049   7.387  18.207  0.00  0.00    +0.000 A 
ATOM     17  C   UNL     1       2.614   8.571  17.605  0.00  0.00    +0.000 A 
ATOM     18  C   UNL     1       1.701   9.414  18.245  0.00  0.00    +0.000 A 
BRANCH  16  19
ATOM     19  C   UNL     1       4.113   6.551  17.605  0.00  0.00    +0.000 A 
ATOM     20  C   UNL     1       5.373   7.093  17.291  0.00  0.00    +0.000 A 
ATOM     21  C   UNL     1       6.366   6.328  16.670  0.00  0.00    +0.000 A 
ATOM     22  C   UNL     1       6.132   4.991  16.363  0.00  0.00    +0.000 A 
ATOM     23  C   UNL     1       4.901   4.422  16.671  0.00  0.00    +0.000 A 
ATOM     24  C   UNL     1       3.909   5.196  17.276  0.00  0.00    +0.000 A 
ATOM     25  F   UNL     1       2.728   4.603  17.512  0.00  0.00    +0.000 F 
ENDBRANCH  16  19
ENDBRANCH  10  13
BRANCH   2  26
ATOM     26  C   UNL     1       2.859  13.838  18.615  0.00  0.00    +0.000 C 
BRANCH  26  27
ATOM     27  C   UNL     1       4.258  14.341  18.832  0.00  0.00    +0.000 A 
ATOM     28  C   UNL     1       4.694  14.681  20.111  0.00  0.00    +0.000 A 
ATOM     29  C   UNL     1       5.997  15.140  20.278  0.00  0.00    +0.000 A 
ATOM     30  C   UNL     1       6.825  15.249  19.169  0.00  0.00    +0.000 A 
ATOM     31  C   UNL     1       6.313  14.899  17.931  0.00  0.00    +0.000 A 
ATOM     32  N   UNL     1       5.051  14.453  17.736  0.00  0.00    +0.000 NA
ENDBRANCH  26  27
ENDBRANCH   2  26
BRANCH   9  33
ATOM     33  C   UNL     1      -1.512  10.140  18.334  0.00  0.00    +0.000 C 
BRANCH  33  34
ATOM     34  O   UNL     1      -2.850   9.685  18.133  0.00  0.00    +0.000 OA
ATOM     35  H   UNL     1      -3.273  10.303  17.508  0.00  0.00    +0.000 HD
ENDBRANCH  33  34
ENDBRANCH   9  33
TORSDOF 6
ENDMDL
MODEL 6
REMARK VINA RESULT:      -7.5      1.188      1.402
REMARK  Name = 
REMARK  6 active torsions:
REMARK  status: ('A' for Active; 'I' for Inactive)
REMARK    1  A    between atoms: C_2  and  C_3
REMARK    2  A    between atoms: C_3  and  C_4
REMARK    3  A    between atoms: C_16  and  C_17
REMARK    4  A    between atoms: C_17  and  O_18
REMARK    5  A    between atoms: C_19  and  C_20
REMARK    6  A    between atoms: C_23  and  C_24
REMARK                            x       y       z     vdW  Elec       q    Type
REMARK                         _______ _______ _______ _____ _____    ______ ____
ROOT
ATOM      1  O   UNL     1       1.124  15.508  21.151  0.00  0.00    +0.000 OA
ATOM      2  C   UNL     1       1.303  14.286  21.175  0.00  0.00    +0.000 C 
ATOM      3  N   UNL     1       0.343  13.413  21.683  0.00  0.00    +0.000 N 
ATOM      4  C   UNL     1      -0.924  13.972  22.148  0.00  0.00    +0.000 C 
ATOM      5  C   UNL     1      -1.806  14.545  21.039  0.00  0.00    +0.000 C 
ATOM      6  C   UNL     1      -2.687  13.530  20.318  0.00  0.00    +0.000 C 
ATOM      7  C   UNL     1      -1.954  12.530  19.422  0.00  0.00    +0.000 C 
ATOM      8  N   UNL     1      -1.451  11.391  20.183  0.00  0.00    +0.000 NA
ATOM      9  C   UNL     1      -1.256  10.164  19.335  0.00  0.00    +0.000 C 
ATOM     10  C   UNL     1      -0.029   9.843  20.270  0.00  0.00    +0.000 C 
ATOM     11  C   UNL     1       0.037  11.406  20.387  0.00  0.00    +0.000 C 
ATOM     12  C   UNL     1       0.486  11.956  21.734  0.00  0.00    +0.000 C 
ENDROOT
BRANCH  10  13
ATOM     13  C   UNL     1       1.120   8.972  19.625  0.00  0.00    +0.000 A 
ATOM     14  C   UNL     1       1.662   9.206  18.357  0.00  0.00    +0.000 A 
ATOM     15  C   UNL     1       2.510   8.276  17.742  0.00  0.00    +0.000 A 
ATOM     16  C   UNL     1       2.892   7.085  18.384  0.00  0.00    +0.000 A 
ATOM     17  C   UNL     1       2.453   6.910  19.700  0.00  0.00    +0.000 A 
ATOM     18  C   UNL     1       1.592   7.833  20.302  0.00  0.00    +0.000 A 
BRANCH  16  19
ATOM     19  C   UNL     1       3.694   6.054  17.687  0.00  0.00    +0.000 A 
ATOM     20  C   UNL     1       3.212   4.742  17.528  0.00  0.00    +0.000 A 
ATOM     21  C   UNL     1       3.983   3.744  16.922  0.00  0.00    +0.000 A 
ATOM     22  C   UNL     1       5.255   4.038  16.440  0.00  0.00    +0.000 A 
ATOM     23  C   UNL     1       5.756   5.328  16.570  0.00  0.00    +0.000 A 
ATOM     24  C   UNL     1       4.987   6.314  17.191  0.00  0.00    +0.000 A 
ATOM     25  F   UNL     1       5.541   7.530  17.325  0.00  0.00    +0.000 F 
ENDBRANCH  16  19
ENDBRANCH  10  13
BRANCH   2  26
ATOM     26  C   UNL     1       2.611  13.725  20.641  0.00  0.00    +0.000 C 
BRANCH  26  27
ATOM     27  C   UNL     1       3.304  14.693  19.725  0.00  0.00    +0.000 A 
ATOM     28  C   UNL     1       2.953  14.763  18.378  0.00  0.00    +0.000 A 
ATOM     29  C   UNL     1       3.612  15.674  17.557  0.00  0.00    +0.000 A 
ATOM     30  C   UNL     1       4.599  16.485  18.100  0.00  0.00    +0.000 A 
ATOM     31  C   UNL     1       4.894  16.348  19.446  0.00  0.00    +0.000 A 
ATOM     32  N   UNL     1       4.275  15.471  20.268  0.00  0.00    +0.000 NA
ENDBRANCH  26  27
ENDBRANCH   2  26
BRANCH   9  33
ATOM     33  C   UNL     1      -1.019  10.311  17.808  0.00  0.00    +0.000 C 
BRANCH  33  34
ATOM     34  O   UNL     1      -2.008   9.670  17.002  0.00  0.00    +0.000 OA
ATOM     35  H   UNL     1      -1.599   9.492  16.134  0.00  0.00    +0.000 HD
ENDBRANCH  33  34
ENDBRANCH   9  33
TORSDOF 6
ENDMDL
MODEL 7
REMARK VINA RESULT:      -7.4      1.175      1.732
REMARK  Name = 
REMARK  6 active torsions:
REMARK  status: ('A' for Active; 'I' for Inactive)
REMARK    1  A    between atoms: C_2  and  C_3
REMARK    2  A    between atoms: C_3  and  C_4
REMARK    3  A    between atoms: C_16  and  C_17
REMARK    4  A    between atoms: C_17  and  O_18
REMARK    5  A    between atoms: C_19  and  C_20
REMARK    6  A    between atoms: C_23  and  C_24
REMARK                            x       y       z     vdW  Elec       q    Type
REMARK                         _______ _______ _______ _____ _____    ______ ____
ROOT
ATOM      1  O   UNL     1       2.787  16.444  19.056  0.00  0.00    +0.000 OA
ATOM      2  C   UNL     1       2.741  15.257  19.396  0.00  0.00    +0.000 C 
ATOM      3  N   UNL     1       1.963  14.831  20.470  0.00  0.00    +0.000 N 
ATOM      4  C   UNL     1       1.147  15.821  21.170  0.00  0.00    +0.000 C 
ATOM      5  C   UNL     1      -0.015  16.376  20.347  0.00  0.00    +0.000 C 
ATOM      6  C   UNL     1      -1.286  15.533  20.364  0.00  0.00    +0.000 C 
ATOM      7  C   UNL     1      -1.207  14.195  19.625  0.00  0.00    +0.000 C 
ATOM      8  N   UNL     1      -0.631  13.149  20.463  0.00  0.00    +0.000 NA
ATOM      9  C   UNL     1      -1.046  11.767  20.036  0.00  0.00    +0.000 C 
ATOM     10  C   UNL     1       0.389  11.309  20.501  0.00  0.00    +0.000 C 
ATOM     11  C   UNL     1       0.774  12.772  20.084  0.00  0.00    +0.000 C 
ATOM     12  C   UNL     1       1.855  13.442  20.922  0.00  0.00    +0.000 C 
ENDROOT
BRANCH  10  13
ATOM     13  C   UNL     1       0.968  10.025  19.786  0.00  0.00    +0.000 A 
ATOM     14  C   UNL     1       1.183   8.801  20.429  0.00  0.00    +0.000 A 
ATOM     15  C   UNL     1       1.906   7.771  19.814  0.00  0.00    +0.000 A 
ATOM     16  C   UNL     1       2.412   7.898  18.508  0.00  0.00    +0.000 A 
ATOM     17  C   UNL     1       2.089   9.071  17.820  0.00  0.00    +0.000 A 
ATOM     18  C   UNL     1       1.383  10.104  18.444  0.00  0.00    +0.000 A 
BRANCH  16  19
ATOM     19  C   UNL     1       3.272   6.853  17.907  0.00  0.00    +0.000 A 
ATOM     20  C   UNL     1       4.471   7.187  17.251  0.00  0.00    +0.000 A 
ATOM     21  C   UNL     1       5.263   6.215  16.629  0.00  0.00    +0.000 A 
ATOM     22  C   UNL     1       4.885   4.876  16.664  0.00  0.00    +0.000 A 
ATOM     23  C   UNL     1       3.712   4.512  17.315  0.00  0.00    +0.000 A 
ATOM     24  C   UNL     1       2.919   5.489  17.919  0.00  0.00    +0.000 A 
ATOM     25  F   UNL     1       1.777   5.081  18.496  0.00  0.00    +0.000 F 
ENDBRANCH  16  19
ENDBRANCH  10  13
BRANCH   2  26
ATOM     26  C   UNL     1       3.562  14.239  18.622  0.00  0.00    +0.000 C 
BRANCH  26  27
ATOM     27  C   UNL     1       5.038  14.491  18.755  0.00  0.00    +0.000 A 
ATOM     28  C   UNL     1       5.873  14.386  17.645  0.00  0.00    +0.000 A 
ATOM     29  C   UNL     1       7.234  14.630  17.801  0.00  0.00    +0.000 A 
ATOM     30  C   UNL     1       7.722  14.969  19.055  0.00  0.00    +0.000 A 
ATOM     31  C   UNL     1       6.827  15.044  20.109  0.00  0.00    +0.000 A 
ATOM     32  N   UNL     1       5.501  14.810  19.991  0.00  0.00    +0.000 NA
ENDBRANCH  26  27
ENDBRANCH   2  26
BRANCH   9  33
ATOM     33  C   UNL     1      -1.479  11.510  18.568  0.00  0.00    +0.000 C 
BRANCH  33  34
ATOM     34  O   UNL     1      -2.286  10.345  18.397  0.00  0.00    +0.000 OA
ATOM     35  H   UNL     1      -1.870   9.809  17.695  0.00  0.00    +0.000 HD
ENDBRANCH  33  34
ENDBRANCH   9  33
TORSDOF 6
ENDMDL
MODEL 8
REMARK VINA RESULT:      -7.4      1.191      1.639
REMARK  Name = 
REMARK  6 active torsions:
REMARK  status: ('A' for Active; 'I' for Inactive)
REMARK    1  A    between atoms: C_2  and  C_3
REMARK    2  A    between atoms: C_3  and  C_4
REMARK    3  A    between atoms: C_16  and  C_17
REMARK    4  A    between atoms: C_17  and  O_18
REMARK    5  A    between atoms: C_19  and  C_20
REMARK    6  A    between atoms: C_23  and  C_24
REMARK                            x       y       z     vdW  Elec       q    Type
REMARK                         _______ _______ _______ _____ _____    ______ ____
ROOT
ATOM      1  O   UNL     1       0.811  15.973  19.877  0.00  0.00    +0.000 OA
ATOM      2  C   UNL     1       1.102  14.795  20.109  0.00  0.00    +0.000 C 
ATOM      3  N   UNL     1       0.349  14.011  20.981  0.00  0.00    +0.000 N 
ATOM      4  C   UNL     1      -0.842  14.600  21.588  0.00  0.00    +0.000 C 
ATOM      5  C   UNL     1      -1.980  14.876  20.605  0.00  0.00    +0.000 C 
ATOM      6  C   UNL     1      -2.893  13.689  20.316  0.00  0.00    +0.000 C 
ATOM      7  C   UNL     1      -2.270  12.552  19.503  0.00  0.00    +0.000 C 
ATOM      8  N   UNL     1      -1.521  11.631  20.352  0.00  0.00    +0.000 NA
ATOM      9  C   UNL     1      -1.392  10.259  19.748  0.00  0.00    +0.000 C 
ATOM     10  C   UNL     1       0.024  10.205  20.439  0.00  0.00    +0.000 C 
ATOM     11  C   UNL     1      -0.030  11.758  20.218  0.00  0.00    +0.000 C 
ATOM     12  C   UNL     1       0.631  12.608  21.295  0.00  0.00    +0.000 C 
ENDROOT
BRANCH  10  13
ATOM     13  C   UNL     1       1.092   9.268  19.749  0.00  0.00    +0.000 A 
ATOM     14  C   UNL     1       1.550   9.436  18.438  0.00  0.00    +0.000 A 
ATOM     15  C   UNL     1       2.318   8.452  17.802  0.00  0.00    +0.000 A 
ATOM     16  C   UNL     1       2.702   7.271  18.461  0.00  0.00    +0.000 A 
ATOM     17  C   UNL     1       2.352   7.161  19.810  0.00  0.00    +0.000 A 
ATOM     18  C   UNL     1       1.570   8.136  20.435  0.00  0.00    +0.000 A 
BRANCH  16  19
ATOM     19  C   UNL     1       3.415   6.185  17.750  0.00  0.00    +0.000 A 
ATOM     20  C   UNL     1       4.591   6.442  17.022  0.00  0.00    +0.000 A 
ATOM     21  C   UNL     1       5.241   5.436  16.298  0.00  0.00    +0.000 A 
ATOM     22  C   UNL     1       4.741   4.137  16.299  0.00  0.00    +0.000 A 
ATOM     23  C   UNL     1       3.586   3.848  17.019  0.00  0.00    +0.000 A 
ATOM     24  C   UNL     1       2.934   4.861  17.725  0.00  0.00    +0.000 A 
ATOM     25  F   UNL     1       1.802   4.529  18.366  0.00  0.00    +0.000 F 
ENDBRANCH  16  19
ENDBRANCH  10  13
BRANCH   2  26
ATOM     26  C   UNL     1       2.319  14.191  19.429  0.00  0.00    +0.000 C 
BRANCH  26  27
ATOM     27  C   UNL     1       3.603  14.747  19.978  0.00  0.00    +0.000 A 
ATOM     28  C   UNL     1       4.062  14.352  21.233  0.00  0.00    +0.000 A 
ATOM     29  C   UNL     1       5.257  14.882  21.710  0.00  0.00    +0.000 A 
ATOM     30  C   UNL     1       5.956  15.790  20.926  0.00  0.00    +0.000 A 
ATOM     31  C   UNL     1       5.428  16.138  19.695  0.00  0.00    +0.000 A 
ATOM     32  N   UNL     1       4.269  15.643  19.205  0.00  0.00    +0.000 NA
ENDBRANCH  26  27
ENDBRANCH   2  26
BRANCH   9  33
ATOM     33  C   UNL     1      -1.485  10.080  18.209  0.00  0.00    +0.000 C 
BRANCH  33  34
ATOM     34  O   UNL     1      -2.736   9.561  17.760  0.00  0.00    +0.000 OA
ATOM     35  H   UNL     1      -3.122   9.059  18.502  0.00  0.00    +0.000 HD
ENDBRANCH  33  34
ENDBRANCH   9  33
TORSDOF 6
ENDMDL
MODEL 9
REMARK VINA RESULT:      -7.2      0.827      1.366
REMARK  Name = 
REMARK  6 active torsions:
REMARK  status: ('A' for Active; 'I' for Inactive)
REMARK    1  A    between atoms: C_2  and  C_3
REMARK    2  A    between atoms: C_3  and  C_4
REMARK    3  A    between atoms: C_16  and  C_17
REMARK    4  A    between atoms: C_17  and  O_18
REMARK    5  A    between atoms: C_19  and  C_20
REMARK    6  A    between atoms: C_23  and  C_24
REMARK                            x       y       z     vdW  Elec       q    Type
REMARK                         _______ _______ _______ _____ _____    ______ ____
ROOT
ATOM      1  O   UNL     1       1.898  15.727  19.081  0.00  0.00    +0.000 OA
ATOM      2  C   UNL     1       2.084  14.535  19.347  0.00  0.00    +0.000 C 
ATOM      3  N   UNL     1       1.376  13.890  20.359  0.00  0.00    +0.000 N 
ATOM      4  C   UNL     1       0.354  14.645  21.079  0.00  0.00    +0.000 C 
ATOM      5  C   UNL     1      -0.871  15.009  20.240  0.00  0.00    +0.000 C 
ATOM      6  C   UNL     1      -1.943  13.928  20.150  0.00  0.00    +0.000 C 
ATOM      7  C   UNL     1      -1.570  12.687  19.336  0.00  0.00    +0.000 C 
ATOM      8  N   UNL     1      -0.819  11.724  20.135  0.00  0.00    +0.000 NA
ATOM      9  C   UNL     1      -0.930  10.319  19.609  0.00  0.00    +0.000 C 
ATOM     10  C   UNL     1       0.553  10.129  20.108  0.00  0.00    +0.000 C 
ATOM     11  C   UNL     1       0.644  11.664  19.798  0.00  0.00    +0.000 C 
ATOM     12  C   UNL     1       1.539  12.480  20.721  0.00  0.00    +0.000 C 
ENDROOT
BRANCH  10  13
ATOM     13  C   UNL     1       1.403   9.039  19.344  0.00  0.00    +0.000 A 
ATOM     14  C   UNL     1       1.730   7.786  19.875  0.00  0.00    +0.000 A 
ATOM     15  C   UNL     1       2.670   6.954  19.256  0.00  0.00    +0.000 A 
ATOM     16  C   UNL     1       3.299   7.314  18.051  0.00  0.00    +0.000 A 
ATOM     17  C   UNL     1       2.880   8.507  17.455  0.00  0.00    +0.000 A 
ATOM     18  C   UNL     1       1.955   9.343  18.086  0.00  0.00    +0.000 A 
BRANCH  16  19
ATOM     19  C   UNL     1       4.375   6.484  17.462  0.00  0.00    +0.000 A 
ATOM     20  C   UNL     1       4.135   5.157  17.064  0.00  0.00    +0.000 A 
ATOM     21  C   UNL     1       5.157   4.345  16.560  0.00  0.00    +0.000 A 
ATOM     22  C   UNL     1       6.447   4.847  16.422  0.00  0.00    +0.000 A 
ATOM     23  C   UNL     1       6.715   6.160  16.795  0.00  0.00    +0.000 A 
ATOM     24  C   UNL     1       5.694   6.958  17.313  0.00  0.00    +0.000 A 
ATOM     25  F   UNL     1       6.023   8.203  17.694  0.00  0.00    +0.000 F 
ENDBRANCH  16  19
ENDBRANCH  10  13
BRANCH   2  26
ATOM     26  C   UNL     1       3.119  13.758  18.552  0.00  0.00    +0.000 C 
BRANCH  26  27
ATOM     27  C   UNL     1       4.506  14.303  18.751  0.00  0.00    +0.000 A 
ATOM     28  C   UNL     1       5.384  14.406  17.674  0.00  0.00    +0.000 A 
ATOM     29  C   UNL     1       6.659  14.919  17.893  0.00  0.00    +0.000 A 
ATOM     30  C   UNL     1       7.021  15.312  19.174  0.00  0.00    +0.000 A 
ATOM     31  C   UNL     1       6.093  15.169  20.191  0.00  0.00    +0.000 A 
ATOM     32  N   UNL     1       4.849  14.671  20.012  0.00  0.00    +0.000 NA
ENDBRANCH  26  27
ENDBRANCH   2  26
BRANCH   9  33
ATOM     33  C   UNL     1      -1.255  10.080  18.110  0.00  0.00    +0.000 C 
BRANCH  33  34
ATOM     34  O   UNL     1      -2.594   9.648  17.868  0.00  0.00    +0.000 OA
ATOM     35  H   UNL     1      -2.848   9.982  16.987  0.00  0.00    +0.000 HD
ENDBRANCH  33  34
ENDBRANCH   9  33
TORSDOF 6
ENDMDL
