MODEL 1
REMARK VINA RESULT:      -7.6      0.000      0.000
REMARK  Name = 
REMARK  5 active torsions:
REMARK  status: ('A' for Active; 'I' for Inactive)
REMARK    1  A    between atoms: C_1  and  C_2
REMARK    2  A    between atoms: C_2  and  C_3
REMARK    3  A    between atoms: C_2  and  O_4
REMARK    4  A    between atoms: O_4  and  N_5
REMARK    5  A    between atoms: C_6  and  C_8
REMARK                            x       y       z     vdW  Elec       q    Type
REMARK                         _______ _______ _______ _____ _____    ______ ____
ROOT
ATOM      1  C   UNL     1       6.653   4.676  16.147  0.00  0.00    +0.000 C 
ATOM      2  C   UNL     1       5.719   3.766  16.942  0.00  0.00    +0.000 C 
ATOM      3  C   UNL     1       4.442   4.466  17.316  0.00  0.00    +0.000 A 
ATOM      4  C   UNL     1       3.264   3.747  17.541  0.00  0.00    +0.000 A 
ATOM      5  C   UNL     1       2.106   4.426  17.906  0.00  0.00    +0.000 A 
ATOM      6  F   UNL     1       0.978   3.737  18.116  0.00  0.00    +0.000 F 
ATOM      7  C   UNL     1       2.102   5.808  18.063  0.00  0.00    +0.000 A 
ATOM      8  C   UNL     1       3.283   6.528  17.879  0.00  0.00    +0.000 A 
ATOM      9  C   UNL     1       4.449   5.854  17.510  0.00  0.00    +0.000 A 
ATOM     10  N   UNL     1       5.638   6.566  17.353  0.00  0.00    +0.000 N 
ATOM     11  C   UNL     1       6.768   6.038  16.793  0.00  0.00    +0.000 C 
ATOM     12  O   UNL     1       7.793   6.713  16.682  0.00  0.00    +0.000 OA
ATOM     13  H   UNL     1       5.687   7.536  17.635  0.00  0.00    +0.000 HD
ENDROOT
BRANCH   1  15
ATOM     14  N   UNL     1       6.422   3.650  13.969  0.00  0.00    +0.000 N 
ATOM     15  C   UNL     1       6.248   4.823  14.684  0.00  0.00    +0.000 C 
ATOM     16  O   UNL     1       5.757   5.851  14.224  0.00  0.00    +0.000 OA
ATOM     17  H   UNL     1       7.153   3.001  14.258  0.00  0.00    +0.000 HD
BRANCH  14  18
ATOM     18  O   UNL     1       6.260   3.762  12.569  0.00  0.00    +0.000 OA
BRANCH  18  20
ATOM     19  C   UNL     1       4.289   3.268  11.309  0.00  0.00    +0.000 C 
ATOM     20  C   UNL     1       5.447   2.674  12.106  0.00  0.00    +0.000 C 
ATOM     21  C   UNL     1       6.263   1.736  11.218  0.00  0.00    +0.000 C 
ENDBRANCH  18  20
ENDBRANCH  14  18
ENDBRANCH   1  15
TORSDOF 3
ENDMDL
MODEL 2
REMARK VINA RESULT:      -7.5      2.653      4.473
REMARK  Name = 
REMARK  5 active torsions:
REMARK  status: ('A' for Active; 'I' for Inactive)
REMARK    1  A    between atoms: C_1  and  C_2
REMARK    2  A    between atoms: C_2  and  C_3
REMARK    3  A    between atoms: C_2  and  O_4
REMARK    4  A    between atoms: O_4  and  N_5
REMARK    5  A    between atoms: C_6  and  C_8
REMARK                            x       y       z     vdW  Elec       q    Type
REMARK                         _______ _______ _______ _____ _____    ______ ____
ROOT
ATOM      1  C   UNL     1       6.180   4.667  15.996  0.00  0.00    +0.000 C 
ATOM      2  C   UNL     1       4.822   3.971  15.934  0.00  0.00    +0.000 C 
ATOM      3  C   UNL     1       4.123   3.992  17.265  0.00  0.00    +0.000 A 
ATOM      4  C   UNL     1       2.728   3.928  17.348  0.00  0.00    +0.000 A 
ATOM      5  C   UNL     1       2.116   3.928  18.598  0.00  0.00    +0.000 A 
ATOM      6  F   UNL     1       0.780   3.872  18.676  0.00  0.00    +0.000 F 
ATOM      7  C   UNL     1       2.867   3.979  19.767  0.00  0.00    +0.000 A 
ATOM      8  C   UNL     1       4.260   4.002  19.692  0.00  0.00    +0.000 A 
ATOM      9  C   UNL     1       4.883   4.005  18.442  0.00  0.00    +0.000 A 
ATOM     10  N   UNL     1       6.275   4.001  18.364  0.00  0.00    +0.000 N 
ATOM     11  C   UNL     1       6.969   4.216  17.206  0.00  0.00    +0.000 C 
ATOM     12  O   UNL     1       8.201   4.197  17.194  0.00  0.00    +0.000 OA
ATOM     13  H   UNL     1       6.828   3.859  19.199  0.00  0.00    +0.000 HD
ENDROOT
BRANCH   1  15
ATOM     14  N   UNL     1       7.145   6.796  16.615  0.00  0.00    +0.000 N 
ATOM     15  C   UNL     1       6.079   6.188  15.974  0.00  0.00    +0.000 C 
ATOM     16  O   UNL     1       5.185   6.792  15.386  0.00  0.00    +0.000 OA
ATOM     17  H   UNL     1       7.607   6.303  17.378  0.00  0.00    +0.000 HD
BRANCH  14  18
ATOM     18  O   UNL     1       7.021   8.191  16.811  0.00  0.00    +0.000 OA
BRANCH  18  20
ATOM     19  C   UNL     1       8.282   7.294  18.632  0.00  0.00    +0.000 C 
ATOM     20  C   UNL     1       7.573   8.532  18.091  0.00  0.00    +0.000 C 
ATOM     21  C   UNL     1       8.568   9.684  17.955  0.00  0.00    +0.000 C 
ENDBRANCH  18  20
ENDBRANCH  14  18
ENDBRANCH   1  15
TORSDOF 3
ENDMDL
MODEL 3
REMARK VINA RESULT:      -7.5      1.808      2.439
REMARK  Name = 
REMARK  5 active torsions:
REMARK  status: ('A' for Active; 'I' for Inactive)
REMARK    1  A    between atoms: C_1  and  C_2
REMARK    2  A    between atoms: C_2  and  C_3
REMARK    3  A    between atoms: C_2  and  O_4
REMARK    4  A    between atoms: O_4  and  N_5
REMARK    5  A    between atoms: C_6  and  C_8
REMARK                            x       y       z     vdW  Elec       q    Type
REMARK                         _______ _______ _______ _____ _____    ______ ____
ROOT
ATOM      1  C   UNL     1       7.052   6.003  18.145  0.00  0.00    +0.000 C 
ATOM      2  C   UNL     1       6.373   5.246  19.284  0.00  0.00    +0.000 C 
ATOM      3  C   UNL     1       4.970   4.840  18.927  0.00  0.00    +0.000 A 
ATOM      4  C   UNL     1       4.365   3.731  19.526  0.00  0.00    +0.000 A 
ATOM      5  C   UNL     1       3.057   3.398  19.187  0.00  0.00    +0.000 A 
ATOM      6  F   UNL     1       2.481   2.332  19.758  0.00  0.00    +0.000 F 
ATOM      7  C   UNL     1       2.336   4.156  18.271  0.00  0.00    +0.000 A 
ATOM      8  C   UNL     1       2.919   5.287  17.699  0.00  0.00    +0.000 A 
ATOM      9  C   UNL     1       4.233   5.627  18.032  0.00  0.00    +0.000 A 
ATOM     10  N   UNL     1       4.809   6.772  17.484  0.00  0.00    +0.000 N 
ATOM     11  C   UNL     1       6.141   7.069  17.578  0.00  0.00    +0.000 C 
ATOM     12  O   UNL     1       6.596   8.098  17.077  0.00  0.00    +0.000 OA
ATOM     13  H   UNL     1       4.240   7.423  16.959  0.00  0.00    +0.000 HD
ENDROOT
BRANCH   1  15
ATOM     14  N   UNL     1       7.286   5.608  15.771  0.00  0.00    +0.000 N 
ATOM     15  C   UNL     1       7.548   5.091  17.027  0.00  0.00    +0.000 C 
ATOM     16  O   UNL     1       8.173   4.054  17.236  0.00  0.00    +0.000 OA
ATOM     17  H   UNL     1       6.474   6.211  15.646  0.00  0.00    +0.000 HD
BRANCH  14  18
ATOM     18  O   UNL     1       7.534   4.731  14.689  0.00  0.00    +0.000 OA
BRANCH  18  20
ATOM     19  C   UNL     1       5.156   4.972  14.643  0.00  0.00    +0.000 C 
ATOM     20  C   UNL     1       6.323   4.027  14.375  0.00  0.00    +0.000 C 
ATOM     21  C   UNL     1       6.319   3.598  12.908  0.00  0.00    +0.000 C 
ENDBRANCH  18  20
ENDBRANCH  14  18
ENDBRANCH   1  15
TORSDOF 3
ENDMDL
MODEL 4
REMARK VINA RESULT:      -7.3      3.096      4.996
REMARK  Name = 
REMARK  5 active torsions:
REMARK  status: ('A' for Active; 'I' for Inactive)
REMARK    1  A    between atoms: C_1  and  C_2
REMARK    2  A    between atoms: C_2  and  C_3
REMARK    3  A    between atoms: C_2  and  O_4
REMARK    4  A    between atoms: O_4  and  N_5
REMARK    5  A    between atoms: C_6  and  C_8
REMARK                            x       y       z     vdW  Elec       q    Type
REMARK                         _______ _______ _______ _____ _____    ______ ____
ROOT
ATOM      1  C   UNL     1       3.577   4.677  16.908  0.00  0.00    +0.000 C 
ATOM      2  C   UNL     1       2.291   4.208  17.584  0.00  0.00    +0.000 C 
ATOM      3  C   UNL     1       2.561   3.573  18.920  0.00  0.00    +0.000 A 
ATOM      4  C   UNL     1       1.590   3.566  19.925  0.00  0.00    +0.000 A 
ATOM      5  C   UNL     1       1.868   2.950  21.141  0.00  0.00    +0.000 A 
ATOM      6  F   UNL     1       0.939   2.948  22.105  0.00  0.00    +0.000 F 
ATOM      7  C   UNL     1       3.091   2.329  21.371  0.00  0.00    +0.000 A 
ATOM      8  C   UNL     1       4.050   2.297  20.358  0.00  0.00    +0.000 A 
ATOM      9  C   UNL     1       3.780   2.916  19.135  0.00  0.00    +0.000 A 
ATOM     10  N   UNL     1       4.725   2.862  18.111  0.00  0.00    +0.000 N 
ATOM     11  C   UNL     1       4.646   3.608  16.968  0.00  0.00    +0.000 C 
ATOM     12  O   UNL     1       5.508   3.517  16.093  0.00  0.00    +0.000 OA
ATOM     13  H   UNL     1       5.537   2.267  18.203  0.00  0.00    +0.000 HD
ENDROOT
BRANCH   1  15
ATOM     14  N   UNL     1       5.289   6.384  16.863  0.00  0.00    +0.000 N 
ATOM     15  C   UNL     1       4.114   5.986  17.477  0.00  0.00    +0.000 C 
ATOM     16  O   UNL     1       3.521   6.639  18.332  0.00  0.00    +0.000 OA
ATOM     17  H   UNL     1       5.912   5.672  16.483  0.00  0.00    +0.000 HD
BRANCH  14  18
ATOM     18  O   UNL     1       5.952   7.477  17.470  0.00  0.00    +0.000 OA
BRANCH  18  20
ATOM     19  C   UNL     1       8.080   8.499  17.842  0.00  0.00    +0.000 C 
ATOM     20  C   UNL     1       7.357   7.192  17.530  0.00  0.00    +0.000 C 
ATOM     21  C   UNL     1       7.648   6.163  18.622  0.00  0.00    +0.000 C 
ENDBRANCH  18  20
ENDBRANCH  14  18
ENDBRANCH   1  15
TORSDOF 3
ENDMDL
MODEL 5
REMARK VINA RESULT:      -7.3      2.815      4.594
REMARK  Name = 
REMARK  5 active torsions:
REMARK  status: ('A' for Active; 'I' for Inactive)
REMARK    1  A    between atoms: C_1  and  C_2
REMARK    2  A    between atoms: C_2  and  C_3
REMARK    3  A    between atoms: C_2  and  O_4
REMARK    4  A    between atoms: O_4  and  N_5
REMARK    5  A    between atoms: C_6  and  C_8
REMARK                            x       y       z     vdW  Elec       q    Type
REMARK                         _______ _______ _______ _____ _____    ______ ____
ROOT
ATOM      1  C   UNL     1       5.738   4.574  16.588  0.00  0.00    +0.000 C 
ATOM      2  C   UNL     1       4.677   3.504  16.342  0.00  0.00    +0.000 C 
ATOM      3  C   UNL     1       3.807   3.292  17.550  0.00  0.00    +0.000 A 
ATOM      4  C   UNL     1       2.500   2.811  17.423  0.00  0.00    +0.000 A 
ATOM      5  C   UNL     1       1.731   2.607  18.564  0.00  0.00    +0.000 A 
ATOM      6  F   UNL     1       0.478   2.151  18.441  0.00  0.00    +0.000 F 
ATOM      7  C   UNL     1       2.243   2.862  19.832  0.00  0.00    +0.000 A 
ATOM      8  C   UNL     1       3.559   3.304  19.969  0.00  0.00    +0.000 A 
ATOM      9  C   UNL     1       4.337   3.514  18.828  0.00  0.00    +0.000 A 
ATOM     10  N   UNL     1       5.662   3.929  18.962  0.00  0.00    +0.000 N 
ATOM     11  C   UNL     1       6.429   4.362  17.917  0.00  0.00    +0.000 C 
ATOM     12  O   UNL     1       7.596   4.714  18.093  0.00  0.00    +0.000 OA
ATOM     13  H   UNL     1       6.096   3.947  19.875  0.00  0.00    +0.000 HD
ENDROOT
BRANCH   1  15
ATOM     14  N   UNL     1       4.875   6.512  17.748  0.00  0.00    +0.000 N 
ATOM     15  C   UNL     1       5.191   5.995  16.503  0.00  0.00    +0.000 C 
ATOM     16  O   UNL     1       5.114   6.623  15.450  0.00  0.00    +0.000 OA
ATOM     17  H   UNL     1       4.588   5.873  18.489  0.00  0.00    +0.000 HD
BRANCH  14  18
ATOM     18  O   UNL     1       4.178   7.743  17.735  0.00  0.00    +0.000 OA
BRANCH  18  20
ATOM     19  C   UNL     1       2.587   6.814  19.259  0.00  0.00    +0.000 C 
ATOM     20  C   UNL     1       2.776   7.484  17.902  0.00  0.00    +0.000 C 
ATOM     21  C   UNL     1       1.981   8.788  17.850  0.00  0.00    +0.000 C 
ENDBRANCH  18  20
ENDBRANCH  14  18
ENDBRANCH   1  15
TORSDOF 3
ENDMDL
MODEL 6
REMARK VINA RESULT:      -7.2      2.826      3.929
REMARK  Name = 
REMARK  5 active torsions:
REMARK  status: ('A' for Active; 'I' for Inactive)
REMARK    1  A    between atoms: C_1  and  C_2
REMARK    2  A    between atoms: C_2  and  C_3
REMARK    3  A    between atoms: C_2  and  O_4
REMARK    4  A    between atoms: O_4  and  N_5
REMARK    5  A    between atoms: C_6  and  C_8
REMARK                            x       y       z     vdW  Elec       q    Type
REMARK                         _______ _______ _______ _____ _____    ______ ____
ROOT
ATOM      1  C   UNL     1       4.825   4.697  15.929  0.00  0.00    +0.000 C 
ATOM      2  C   UNL     1       5.040   6.179  16.228  0.00  0.00    +0.000 C 
ATOM      3  C   UNL     1       6.185   6.396  17.179  0.00  0.00    +0.000 A 
ATOM      4  C   UNL     1       6.903   7.596  17.180  0.00  0.00    +0.000 A 
ATOM      5  C   UNL     1       7.943   7.770  18.088  0.00  0.00    +0.000 A 
ATOM      6  F   UNL     1       8.634   8.917  18.085  0.00  0.00    +0.000 F 
ATOM      7  C   UNL     1       8.273   6.777  19.004  0.00  0.00    +0.000 A 
ATOM      8  C   UNL     1       7.535   5.593  19.034  0.00  0.00    +0.000 A 
ATOM      9  C   UNL     1       6.491   5.409  18.124  0.00  0.00    +0.000 A 
ATOM     10  N   UNL     1       5.733   4.239  18.171  0.00  0.00    +0.000 N 
ATOM     11  C   UNL     1       4.842   3.876  17.199  0.00  0.00    +0.000 C 
ATOM     12  O   UNL     1       4.196   2.832  17.294  0.00  0.00    +0.000 OA
ATOM     13  H   UNL     1       5.848   3.593  18.939  0.00  0.00    +0.000 HD
ENDROOT
BRANCH   1  15
ATOM     14  N   UNL     1       5.392   4.257  13.620  0.00  0.00    +0.000 N 
ATOM     15  C   UNL     1       5.828   4.132  14.928  0.00  0.00    +0.000 C 
ATOM     16  O   UNL     1       6.925   3.689  15.256  0.00  0.00    +0.000 OA
ATOM     17  H   UNL     1       4.390   4.252  13.432  0.00  0.00    +0.000 HD
BRANCH  14  18
ATOM     18  O   UNL     1       6.171   3.579  12.653  0.00  0.00    +0.000 OA
BRANCH  18  20
ATOM     19  C   UNL     1       4.271   3.217  11.247  0.00  0.00    +0.000 C 
ATOM     20  C   UNL     1       5.375   2.543  12.058  0.00  0.00    +0.000 C 
ATOM     21  C   UNL     1       6.232   1.669  11.144  0.00  0.00    +0.000 C 
ENDBRANCH  18  20
ENDBRANCH  14  18
ENDBRANCH   1  15
TORSDOF 3
ENDMDL
MODEL 7
REMARK VINA RESULT:      -7.2      2.937      4.564
REMARK  Name = 
REMARK  5 active torsions:
REMARK  status: ('A' for Active; 'I' for Inactive)
REMARK    1  A    between atoms: C_1  and  C_2
REMARK    2  A    between atoms: C_2  and  C_3
REMARK    3  A    between atoms: C_2  and  O_4
REMARK    4  A    between atoms: O_4  and  N_5
REMARK    5  A    between atoms: C_6  and  C_8
REMARK                            x       y       z     vdW  Elec       q    Type
REMARK                         _______ _______ _______ _____ _____    ______ ____
ROOT
ATOM      1  C   UNL     1       5.928   4.845  16.689  0.00  0.00    +0.000 C 
ATOM      2  C   UNL     1       4.767   3.926  16.315  0.00  0.00    +0.000 C 
ATOM      3  C   UNL     1       3.922   3.578  17.509  0.00  0.00    +0.000 A 
ATOM      4  C   UNL     1       2.574   3.236  17.364  0.00  0.00    +0.000 A 
ATOM      5  C   UNL     1       1.829   2.898  18.490  0.00  0.00    +0.000 A 
ATOM      6  F   UNL     1       0.537   2.576  18.350  0.00  0.00    +0.000 F 
ATOM      7  C   UNL     1       2.403   2.884  19.756  0.00  0.00    +0.000 A 
ATOM      8  C   UNL     1       3.758   3.185  19.903  0.00  0.00    +0.000 A 
ATOM      9  C   UNL     1       4.513   3.528  18.779  0.00  0.00    +0.000 A 
ATOM     10  N   UNL     1       5.873   3.802  18.918  0.00  0.00    +0.000 N 
ATOM     11  C   UNL     1       6.641   4.347  17.927  0.00  0.00    +0.000 C 
ATOM     12  O   UNL     1       7.840   4.565  18.104  0.00  0.00    +0.000 OA
ATOM     13  H   UNL     1       6.337   3.623  19.798  0.00  0.00    +0.000 HD
ENDROOT
BRANCH   1  15
ATOM     14  N   UNL     1       4.146   6.430  17.093  0.00  0.00    +0.000 N 
ATOM     15  C   UNL     1       5.507   6.299  16.877  0.00  0.00    +0.000 C 
ATOM     16  O   UNL     1       6.308   7.231  16.904  0.00  0.00    +0.000 OA
ATOM     17  H   UNL     1       3.515   5.740  16.687  0.00  0.00    +0.000 HD
BRANCH  14  18
ATOM     18  O   UNL     1       3.653   7.756  17.075  0.00  0.00    +0.000 OA
BRANCH  18  20
ATOM     19  C   UNL     1       1.668   8.850  17.835  0.00  0.00    +0.000 C 
ATOM     20  C   UNL     1       2.843   7.966  18.242  0.00  0.00    +0.000 C 
ATOM     21  C   UNL     1       2.330   6.633  18.784  0.00  0.00    +0.000 C 
ENDBRANCH  18  20
ENDBRANCH  14  18
ENDBRANCH   1  15
TORSDOF 3
ENDMDL
MODEL 8
REMARK VINA RESULT:      -7.2      3.468      5.955
REMARK  Name = 
REMARK  5 active torsions:
REMARK  status: ('A' for Active; 'I' for Inactive)
REMARK    1  A    between atoms: C_1  and  C_2
REMARK    2  A    between atoms: C_2  and  C_3
REMARK    3  A    between atoms: C_2  and  O_4
REMARK    4  A    between atoms: O_4  and  N_5
REMARK    5  A    between atoms: C_6  and  C_8
REMARK                            x       y       z     vdW  Elec       q    Type
REMARK                         _______ _______ _______ _____ _____    ______ ____
ROOT
ATOM      1  C   UNL     1       4.959   5.212  19.024  0.00  0.00    +0.000 C 
ATOM      2  C   UNL     1       4.435   5.681  17.667  0.00  0.00    +0.000 C 
ATOM      3  C   UNL     1       5.213   5.078  16.530  0.00  0.00    +0.000 A 
ATOM      4  C   UNL     1       4.632   4.907  15.270  0.00  0.00    +0.000 A 
ATOM      5  C   UNL     1       5.388   4.366  14.235  0.00  0.00    +0.000 A 
ATOM      6  F   UNL     1       4.828   4.198  13.030  0.00  0.00    +0.000 F 
ATOM      7  C   UNL     1       6.716   4.002  14.428  0.00  0.00    +0.000 A 
ATOM      8  C   UNL     1       7.314   4.207  15.672  0.00  0.00    +0.000 A 
ATOM      9  C   UNL     1       6.561   4.747  16.717  0.00  0.00    +0.000 A 
ATOM     10  N   UNL     1       7.164   4.979  17.953  0.00  0.00    +0.000 N 
ATOM     11  C   UNL     1       6.468   5.300  19.086  0.00  0.00    +0.000 C 
ATOM     12  O   UNL     1       7.053   5.498  20.152  0.00  0.00    +0.000 OA
ATOM     13  H   UNL     1       8.165   4.886  18.053  0.00  0.00    +0.000 HD
ENDROOT
BRANCH   1  15
ATOM     14  N   UNL     1       3.154   3.608  19.145  0.00  0.00    +0.000 N 
ATOM     15  C   UNL     1       4.502   3.804  19.392  0.00  0.00    +0.000 C 
ATOM     16  O   UNL     1       5.270   2.933  19.792  0.00  0.00    +0.000 OA
ATOM     17  H   UNL     1       2.522   4.406  19.200  0.00  0.00    +0.000 HD
BRANCH  14  18
ATOM     18  O   UNL     1       2.615   2.400  19.646  0.00  0.00    +0.000 OA
BRANCH  18  20
ATOM     19  C   UNL     1       1.866   2.634  21.905  0.00  0.00    +0.000 C 
ATOM     20  C   UNL     1       1.455   2.701  20.437  0.00  0.00    +0.000 C 
ATOM     21  C   UNL     1       0.930   4.097  20.106  0.00  0.00    +0.000 C 
ENDBRANCH  18  20
ENDBRANCH  14  18
ENDBRANCH   1  15
TORSDOF 3
ENDMDL
MODEL 9
REMARK VINA RESULT:      -7.1      3.218      5.706
REMARK  Name = 
REMARK  5 active torsions:
REMARK  status: ('A' for Active; 'I' for Inactive)
REMARK    1  A    between atoms: C_1  and  C_2
REMARK    2  A    between atoms: C_2  and  C_3
REMARK    3  A    between atoms: C_2  and  O_4
REMARK    4  A    between atoms: O_4  and  N_5
REMARK    5  A    between atoms: C_6  and  C_8
REMARK                            x       y       z     vdW  Elec       q    Type
REMARK                         _______ _______ _______ _____ _____    ______ ____
ROOT
ATOM      1  C   UNL     1       6.751   6.452  16.915  0.00  0.00    +0.000 C 
ATOM      2  C   UNL     1       5.269   6.801  17.047  0.00  0.00    +0.000 C 
ATOM      3  C   UNL     1       4.582   5.937  18.068  0.00  0.00    +0.000 A 
ATOM      4  C   UNL     1       3.442   6.386  18.743  0.00  0.00    +0.000 A 
ATOM      5  C   UNL     1       2.819   5.551  19.666  0.00  0.00    +0.000 A 
ATOM      6  F   UNL     1       1.731   5.985  20.315  0.00  0.00    +0.000 F 
ATOM      7  C   UNL     1       3.302   4.272  19.920  0.00  0.00    +0.000 A 
ATOM      8  C   UNL     1       4.415   3.803  19.221  0.00  0.00    +0.000 A 
ATOM      9  C   UNL     1       5.048   4.636  18.296  0.00  0.00    +0.000 A 
ATOM     10  N   UNL     1       6.143   4.159  17.575  0.00  0.00    +0.000 N 
ATOM     11  C   UNL     1       6.952   4.956  16.813  0.00  0.00    +0.000 C 
ATOM     12  O   UNL     1       7.905   4.481  16.194  0.00  0.00    +0.000 OA
ATOM     13  H   UNL     1       6.392   3.181  17.621  0.00  0.00    +0.000 HD
ENDROOT
BRANCH   1  15
ATOM     14  N   UNL     1       7.843   8.375  17.894  0.00  0.00    +0.000 N 
ATOM     15  C   UNL     1       7.606   7.019  18.043  0.00  0.00    +0.000 C 
ATOM     16  O   UNL     1       7.973   6.351  19.007  0.00  0.00    +0.000 OA
ATOM     17  H   UNL     1       7.869   8.769  16.954  0.00  0.00    +0.000 HD
BRANCH  14  18
ATOM     18  O   UNL     1       8.790   8.928  18.787  0.00  0.00    +0.000 OA
BRANCH  18  20
ATOM     19  C   UNL     1       7.995  10.924  17.738  0.00  0.00    +0.000 C 
ATOM     20  C   UNL     1       9.224  10.197  18.276  0.00  0.00    +0.000 C 
ATOM     21  C   UNL     1       9.875  11.025  19.383  0.00  0.00    +0.000 C 
ENDBRANCH  18  20
ENDBRANCH  14  18
ENDBRANCH   1  15
TORSDOF 3
ENDMDL
