MODEL 1
REMARK VINA RESULT:      -6.6      0.000      0.000
REMARK  Name = 
REMARK  7 active torsions:
REMARK  status: ('A' for Active; 'I' for Inactive)
REMARK    1  A    between atoms: C_1  and  C_2
REMARK    2  A    between atoms: C_5  and  O_6
REMARK    3  A    between atoms: O_6  and  C_7
REMARK    4  A    between atoms: C_7  and  C_8
REMARK    5  A    between atoms: C_9  and  C_10
REMARK    6  A    between atoms: C_10  and  N_11
REMARK    7  A    between atoms: C_16  and  C_17
REMARK                            x       y       z     vdW  Elec       q    Type
REMARK                         _______ _______ _______ _____ _____    ______ ____
ROOT
ATOM      1  O   UNL     1       7.414   4.643  18.268  0.00  0.00    +0.000 OA
ENDROOT
BRANCH   1   6
ATOM      2  C   UNL     1       1.765   4.181  17.730  0.00  0.00    +0.000 C 
ATOM      3  C   UNL     1       3.250   4.306  17.898  0.00  0.00    +0.000 A 
ATOM      4  C   UNL     1       3.804   4.585  19.147  0.00  0.00    +0.000 A 
ATOM      5  C   UNL     1       5.188   4.701  19.297  0.00  0.00    +0.000 A 
ATOM      6  C   UNL     1       6.046   4.539  18.202  0.00  0.00    +0.000 A 
ATOM      7  C   UNL     1       5.500   4.253  16.939  0.00  0.00    +0.000 A 
ATOM      8  C   UNL     1       6.355   4.065  15.715  0.00  0.00    +0.000 C 
ATOM      9  C   UNL     1       4.104   4.142  16.801  0.00  0.00    +0.000 A 
ENDBRANCH   1   6
BRANCH   1  10
ATOM     10  C   UNL     1       7.929   5.746  19.005  0.00  0.00    +0.000 C 
BRANCH  10  11
ATOM     11  C   UNL     1       7.842   6.978  18.153  0.00  0.00    +0.000 C 
ATOM     12  C   UNL     1       8.351   8.161  18.536  0.00  0.00    +0.000 C 
BRANCH  12  13
ATOM     13  C   UNL     1       8.267   9.438  17.756  0.00  0.00    +0.000 C 
BRANCH  13  14
ATOM     14  N   UNL     1       8.929  10.535  18.441  0.00  0.00    +0.000 N 
ATOM     15  C   UNL     1       9.017  11.838  18.021  0.00  0.00    +0.000 A 
ATOM     16  C   UNL     1       9.655  12.498  19.050  0.00  0.00    +0.000 A 
ATOM     17  N   UNL     1       9.964  11.632  20.066  0.00  0.00    +0.000 NA
ATOM     18  C   UNL     1       9.520  10.460  19.671  0.00  0.00    +0.000 A 
ENDBRANCH  13  14
ENDBRANCH  12  13
ENDBRANCH  10  11
ENDBRANCH   1  10
TORSDOF 5
ENDMDL
MODEL 2
REMARK VINA RESULT:      -6.5      1.398      1.709
REMARK  Name = 
REMARK  7 active torsions:
REMARK  status: ('A' for Active; 'I' for Inactive)
REMARK    1  A    between atoms: C_1  and  C_2
REMARK    2  A    between atoms: C_5  and  O_6
REMARK    3  A    between atoms: O_6  and  C_7
REMARK    4  A    between atoms: C_7  and  C_8
REMARK    5  A    between atoms: C_9  and  C_10
REMARK    6  A    between atoms: C_10  and  N_11
REMARK    7  A    between atoms: C_16  and  C_17
REMARK                            x       y       z     vdW  Elec       q    Type
REMARK                         _______ _______ _______ _____ _____    ______ ____
ROOT
ATOM      1  O   UNL     1       7.614   6.190  17.326  0.00  0.00    +0.000 OA
ENDROOT
BRANCH   1   6
ATOM      2  C   UNL     1       3.018   2.844  17.630  0.00  0.00    +0.000 C 
ATOM      3  C   UNL     1       4.226   3.731  17.576  0.00  0.00    +0.000 A 
ATOM      4  C   UNL     1       4.624   4.460  18.696  0.00  0.00    +0.000 A 
ATOM      5  C   UNL     1       5.750   5.285  18.639  0.00  0.00    +0.000 A 
ATOM      6  C   UNL     1       6.501   5.397  17.462  0.00  0.00    +0.000 A 
ATOM      7  C   UNL     1       6.112   4.663  16.328  0.00  0.00    +0.000 A 
ATOM      8  C   UNL     1       6.867   4.729  15.028  0.00  0.00    +0.000 C 
ATOM      9  C   UNL     1       4.974   3.838  16.398  0.00  0.00    +0.000 A 
ENDBRANCH   1   6
BRANCH   1  10
ATOM     10  C   UNL     1       7.387   7.593  17.263  0.00  0.00    +0.000 C 
BRANCH  10  11
ATOM     11  C   UNL     1       8.288   8.272  18.252  0.00  0.00    +0.000 C 
ATOM     12  C   UNL     1       8.497   9.600  18.249  0.00  0.00    +0.000 C 
BRANCH  12  13
ATOM     13  C   UNL     1       9.411  10.339  19.179  0.00  0.00    +0.000 C 
BRANCH  13  14
ATOM     14  N   UNL     1      10.134  11.399  18.497  0.00  0.00    +0.000 N 
ATOM     15  C   UNL     1       9.597  12.427  17.766  0.00  0.00    +0.000 A 
ATOM     16  C   UNL     1      10.676  13.208  17.408  0.00  0.00    +0.000 A 
ATOM     17  N   UNL     1      11.843  12.674  17.890  0.00  0.00    +0.000 NA
ATOM     18  C   UNL     1      11.487  11.586  18.536  0.00  0.00    +0.000 A 
ENDBRANCH  13  14
ENDBRANCH  12  13
ENDBRANCH  10  11
ENDBRANCH   1  10
TORSDOF 5
ENDMDL
MODEL 3
REMARK VINA RESULT:      -6.2      1.640      2.031
REMARK  Name = 
REMARK  7 active torsions:
REMARK  status: ('A' for Active; 'I' for Inactive)
REMARK    1  A    between atoms: C_1  and  C_2
REMARK    2  A    between atoms: C_5  and  O_6
REMARK    3  A    between atoms: O_6  and  C_7
REMARK    4  A    between atoms: C_7  and  C_8
REMARK    5  A    between atoms: C_9  and  C_10
REMARK    6  A    between atoms: C_10  and  N_11
REMARK    7  A    between atoms: C_16  and  C_17
REMARK                            x       y       z     vdW  Elec       q    Type
REMARK                         _______ _______ _______ _____ _____    ______ ____
ROOT
ATOM      1  O   UNL     1       6.902   7.157  16.548  0.00  0.00    +0.000 OA
ENDROOT
BRANCH   1   6
ATOM      2  C   UNL     1       2.747   3.400  17.566  0.00  0.00    +0.000 C 
ATOM      3  C   UNL     1       3.832   4.405  17.318  0.00  0.00    +0.000 A 
ATOM      4  C   UNL     1       3.867   5.605  18.028  0.00  0.00    +0.000 A 
ATOM      5  C   UNL     1       4.880   6.537  17.791  0.00  0.00    +0.000 A 
ATOM      6  C   UNL     1       5.878   6.289  16.840  0.00  0.00    +0.000 A 
ATOM      7  C   UNL     1       5.856   5.082  16.122  0.00  0.00    +0.000 A 
ATOM      8  C   UNL     1       6.892   4.742  15.085  0.00  0.00    +0.000 C 
ATOM      9  C   UNL     1       4.829   4.152  16.368  0.00  0.00    +0.000 A 
ENDBRANCH   1   6
BRANCH   1  10
ATOM     10  C   UNL     1       7.715   7.567  17.641  0.00  0.00    +0.000 C 
BRANCH  10  11
ATOM     11  C   UNL     1       7.740   9.066  17.687  0.00  0.00    +0.000 C 
ATOM     12  C   UNL     1       8.842   9.763  18.016  0.00  0.00    +0.000 C 
BRANCH  12  13
ATOM     13  C   UNL     1       8.929  11.255  18.121  0.00  0.00    +0.000 C 
BRANCH  13  14
ATOM     14  N   UNL     1      10.147  11.681  18.788  0.00  0.00    +0.000 N 
ATOM     15  C   UNL     1      10.341  11.828  20.138  0.00  0.00    +0.000 A 
ATOM     16  C   UNL     1      11.674  12.157  20.270  0.00  0.00    +0.000 A 
ATOM     17  N   UNL     1      12.281  12.225  19.043  0.00  0.00    +0.000 NA
ATOM     18  C   UNL     1      11.339  11.938  18.172  0.00  0.00    +0.000 A 
ENDBRANCH  13  14
ENDBRANCH  12  13
ENDBRANCH  10  11
ENDBRANCH   1  10
TORSDOF 5
ENDMDL
MODEL 4
REMARK VINA RESULT:      -6.2      1.425      1.760
REMARK  Name = 
REMARK  7 active torsions:
REMARK  status: ('A' for Active; 'I' for Inactive)
REMARK    1  A    between atoms: C_1  and  C_2
REMARK    2  A    between atoms: C_5  and  O_6
REMARK    3  A    between atoms: O_6  and  C_7
REMARK    4  A    between atoms: C_7  and  C_8
REMARK    5  A    between atoms: C_9  and  C_10
REMARK    6  A    between atoms: C_10  and  N_11
REMARK    7  A    between atoms: C_16  and  C_17
REMARK                            x       y       z     vdW  Elec       q    Type
REMARK                         _______ _______ _______ _____ _____    ______ ____
ROOT
ATOM      1  O   UNL     1       6.505   6.653  16.717  0.00  0.00    +0.000 OA
ENDROOT
BRANCH   1   6
ATOM      2  C   UNL     1       1.554   4.134  17.968  0.00  0.00    +0.000 C 
ATOM      3  C   UNL     1       2.851   4.820  17.652  0.00  0.00    +0.000 A 
ATOM      4  C   UNL     1       3.067   6.144  18.032  0.00  0.00    +0.000 A 
ATOM      5  C   UNL     1       4.276   6.776  17.734  0.00  0.00    +0.000 A 
ATOM      6  C   UNL     1       5.293   6.098  17.051  0.00  0.00    +0.000 A 
ATOM      7  C   UNL     1       5.089   4.762  16.667  0.00  0.00    +0.000 A 
ATOM      8  C   UNL     1       6.133   3.966  15.931  0.00  0.00    +0.000 C 
ATOM      9  C   UNL     1       3.865   4.137  16.971  0.00  0.00    +0.000 A 
ENDBRANCH   1   6
BRANCH   1  10
ATOM     10  C   UNL     1       7.339   7.048  17.801  0.00  0.00    +0.000 C 
BRANCH  10  11
ATOM     11  C   UNL     1       8.028   8.330  17.435  0.00  0.00    +0.000 C 
ATOM     12  C   UNL     1       8.385   9.247  18.350  0.00  0.00    +0.000 C 
BRANCH  12  13
ATOM     13  C   UNL     1       9.039  10.563  18.055  0.00  0.00    +0.000 C 
BRANCH  13  14
ATOM     14  N   UNL     1       9.212  11.363  19.255  0.00  0.00    +0.000 N 
ATOM     15  C   UNL     1       9.394  10.903  20.534  0.00  0.00    +0.000 A 
ATOM     16  C   UNL     1       9.600  12.037  21.291  0.00  0.00    +0.000 A 
ATOM     17  N   UNL     1       9.535  13.162  20.510  0.00  0.00    +0.000 NA
ATOM     18  C   UNL     1       9.296  12.726  19.293  0.00  0.00    +0.000 A 
ENDBRANCH  13  14
ENDBRANCH  12  13
ENDBRANCH  10  11
ENDBRANCH   1  10
TORSDOF 5
ENDMDL
MODEL 5
REMARK VINA RESULT:      -6.1      3.563      4.793
REMARK  Name = 
REMARK  7 active torsions:
REMARK  status: ('A' for Active; 'I' for Inactive)
REMARK    1  A    between atoms: C_1  and  C_2
REMARK    2  A    between atoms: C_5  and  O_6
REMARK    3  A    between atoms: O_6  and  C_7
REMARK    4  A    between atoms: C_7  and  C_8
REMARK    5  A    between atoms: C_9  and  C_10
REMARK    6  A    between atoms: C_10  and  N_11
REMARK    7  A    between atoms: C_16  and  C_17
REMARK                            x       y       z     vdW  Elec       q    Type
REMARK                         _______ _______ _______ _____ _____    ______ ____
ROOT
ATOM      1  O   UNL     1       2.187   6.043  17.669  0.00  0.00    +0.000 OA
ENDROOT
BRANCH   1   6
ATOM      2  C   UNL     1       1.893   2.376  22.015  0.00  0.00    +0.000 C 
ATOM      3  C   UNL     1       1.969   3.362  20.887  0.00  0.00    +0.000 A 
ATOM      4  C   UNL     1       1.857   4.731  21.130  0.00  0.00    +0.000 A 
ATOM      5  C   UNL     1       1.928   5.644  20.076  0.00  0.00    +0.000 A 
ATOM      6  C   UNL     1       2.113   5.208  18.758  0.00  0.00    +0.000 A 
ATOM      7  C   UNL     1       2.231   3.832  18.501  0.00  0.00    +0.000 A 
ATOM      8  C   UNL     1       2.432   3.285  17.113  0.00  0.00    +0.000 C 
ATOM      9  C   UNL     1       2.156   2.922  19.572  0.00  0.00    +0.000 A 
ENDBRANCH   1   6
BRANCH   1  10
ATOM     10  C   UNL     1       2.964   7.224  17.830  0.00  0.00    +0.000 C 
BRANCH  10  11
ATOM     11  C   UNL     1       4.401   6.898  17.544  0.00  0.00    +0.000 C 
ATOM     12  C   UNL     1       4.814   6.425  16.356  0.00  0.00    +0.000 C 
BRANCH  12  13
ATOM     13  C   UNL     1       6.221   6.041  16.014  0.00  0.00    +0.000 C 
BRANCH  13  14
ATOM     14  N   UNL     1       7.034   5.849  17.204  0.00  0.00    +0.000 N 
ATOM     15  C   UNL     1       7.573   6.826  18.001  0.00  0.00    +0.000 A 
ATOM     16  C   UNL     1       8.172   6.144  19.040  0.00  0.00    +0.000 A 
ATOM     17  N   UNL     1       8.020   4.790  18.883  0.00  0.00    +0.000 NA
ATOM     18  C   UNL     1       7.337   4.643  17.770  0.00  0.00    +0.000 A 
ENDBRANCH  13  14
ENDBRANCH  12  13
ENDBRANCH  10  11
ENDBRANCH   1  10
TORSDOF 5
ENDMDL
MODEL 6
REMARK VINA RESULT:      -6.1      3.001      8.596
REMARK  Name = 
REMARK  7 active torsions:
REMARK  status: ('A' for Active; 'I' for Inactive)
REMARK    1  A    between atoms: C_1  and  C_2
REMARK    2  A    between atoms: C_5  and  O_6
REMARK    3  A    between atoms: O_6  and  C_7
REMARK    4  A    between atoms: C_7  and  C_8
REMARK    5  A    between atoms: C_9  and  C_10
REMARK    6  A    between atoms: C_10  and  N_11
REMARK    7  A    between atoms: C_16  and  C_17
REMARK                            x       y       z     vdW  Elec       q    Type
REMARK                         _______ _______ _______ _____ _____    ______ ____
ROOT
ATOM      1  O   UNL     1       9.315   9.988  19.325  0.00  0.00    +0.000 OA
ENDROOT
BRANCH   1   6
ATOM      2  C   UNL     1      12.331  14.802  18.948  0.00  0.00    +0.000 C 
ATOM      3  C   UNL     1      11.547  13.526  19.024  0.00  0.00    +0.000 A 
ATOM      4  C   UNL     1      11.578  12.608  17.975  0.00  0.00    +0.000 A 
ATOM      5  C   UNL     1      10.845  11.422  18.052  0.00  0.00    +0.000 A 
ATOM      6  C   UNL     1      10.067  11.129  19.179  0.00  0.00    +0.000 A 
ATOM      7  C   UNL     1      10.031  12.043  20.244  0.00  0.00    +0.000 A 
ATOM      8  C   UNL     1       9.220  11.801  21.488  0.00  0.00    +0.000 C 
ATOM      9  C   UNL     1      10.772  13.237  20.154  0.00  0.00    +0.000 A 
ENDBRANCH   1   6
BRANCH   1  10
ATOM     10  C   UNL     1       8.503   9.619  18.216  0.00  0.00    +0.000 C 
BRANCH  10  11
ATOM     11  C   UNL     1       8.237   8.144  18.283  0.00  0.00    +0.000 C 
ATOM     12  C   UNL     1       7.541   7.490  17.337  0.00  0.00    +0.000 C 
BRANCH  12  13
ATOM     13  C   UNL     1       7.205   6.030  17.359  0.00  0.00    +0.000 C 
BRANCH  13  14
ATOM     14  N   UNL     1       5.911   5.782  17.974  0.00  0.00    +0.000 N 
ATOM     15  C   UNL     1       4.678   5.967  17.404  0.00  0.00    +0.000 A 
ATOM     16  C   UNL     1       3.781   5.507  18.346  0.00  0.00    +0.000 A 
ATOM     17  N   UNL     1       4.437   5.064  19.466  0.00  0.00    +0.000 NA
ATOM     18  C   UNL     1       5.715   5.246  19.215  0.00  0.00    +0.000 A 
ENDBRANCH  13  14
ENDBRANCH  12  13
ENDBRANCH  10  11
ENDBRANCH   1  10
TORSDOF 5
ENDMDL
MODEL 7
REMARK VINA RESULT:      -6.1      4.742      6.154
REMARK  Name = 
REMARK  7 active torsions:
REMARK  status: ('A' for Active; 'I' for Inactive)
REMARK    1  A    between atoms: C_1  and  C_2
REMARK    2  A    between atoms: C_5  and  O_6
REMARK    3  A    between atoms: O_6  and  C_7
REMARK    4  A    between atoms: C_7  and  C_8
REMARK    5  A    between atoms: C_9  and  C_10
REMARK    6  A    between atoms: C_10  and  N_11
REMARK    7  A    between atoms: C_16  and  C_17
REMARK                            x       y       z     vdW  Elec       q    Type
REMARK                         _______ _______ _______ _____ _____    ______ ____
ROOT
ATOM      1  O   UNL     1       3.330   4.975  17.429  0.00  0.00    +0.000 OA
ENDROOT
BRANCH   1   6
ATOM      2  C   UNL     1       1.234   2.572  22.146  0.00  0.00    +0.000 C 
ATOM      3  C   UNL     1       1.787   3.228  20.916  0.00  0.00    +0.000 A 
ATOM      4  C   UNL     1       2.027   4.602  20.889  0.00  0.00    +0.000 A 
ATOM      5  C   UNL     1       2.541   5.207  19.741  0.00  0.00    +0.000 A 
ATOM      6  C   UNL     1       2.828   4.452  18.596  0.00  0.00    +0.000 A 
ATOM      7  C   UNL     1       2.596   3.067  18.613  0.00  0.00    +0.000 A 
ATOM      8  C   UNL     1       2.878   2.187  17.425  0.00  0.00    +0.000 C 
ATOM      9  C   UNL     1       2.074   2.469  19.775  0.00  0.00    +0.000 A 
ENDBRANCH   1   6
BRANCH   1  10
ATOM     10  C   UNL     1       3.877   6.286  17.508  0.00  0.00    +0.000 C 
BRANCH  10  11
ATOM     11  C   UNL     1       5.103   6.350  16.645  0.00  0.00    +0.000 C 
ATOM     12  C   UNL     1       5.850   5.268  16.368  0.00  0.00    +0.000 C 
BRANCH  12  13
ATOM     13  C   UNL     1       7.105   5.264  15.549  0.00  0.00    +0.000 C 
BRANCH  13  14
ATOM     14  N   UNL     1       6.900   4.654  14.246  0.00  0.00    +0.000 N 
ATOM     15  C   UNL     1       5.943   3.732  13.908  0.00  0.00    +0.000 A 
ATOM     16  C   UNL     1       6.102   3.539  12.552  0.00  0.00    +0.000 A 
ATOM     17  N   UNL     1       7.130   4.306  12.069  0.00  0.00    +0.000 NA
ATOM     18  C   UNL     1       7.594   4.961  13.110  0.00  0.00    +0.000 A 
ENDBRANCH  13  14
ENDBRANCH  12  13
ENDBRANCH  10  11
ENDBRANCH   1  10
TORSDOF 5
ENDMDL
MODEL 8
REMARK VINA RESULT:      -6.0      5.545      7.438
REMARK  Name = 
REMARK  7 active torsions:
REMARK  status: ('A' for Active; 'I' for Inactive)
REMARK    1  A    between atoms: C_1  and  C_2
REMARK    2  A    between atoms: C_5  and  O_6
REMARK    3  A    between atoms: O_6  and  C_7
REMARK    4  A    between atoms: C_7  and  C_8
REMARK    5  A    between atoms: C_9  and  C_10
REMARK    6  A    between atoms: C_10  and  N_11
REMARK    7  A    between atoms: C_16  and  C_17
REMARK                            x       y       z     vdW  Elec       q    Type
REMARK                         _______ _______ _______ _____ _____    ______ ____
ROOT
ATOM      1  O   UNL     1       1.847   8.417  19.196  0.00  0.00    +0.000 OA
ENDROOT
BRANCH   1   6
ATOM      2  C   UNL     1      -1.293  11.136  23.091  0.00  0.00    +0.000 C 
ATOM      3  C   UNL     1      -0.468  10.397  22.079  0.00  0.00    +0.000 A 
ATOM      4  C   UNL     1      -0.114   9.065  22.286  0.00  0.00    +0.000 A 
ATOM      5  C   UNL     1       0.655   8.383  21.340  0.00  0.00    +0.000 A 
ATOM      6  C   UNL     1       1.085   9.018  20.168  0.00  0.00    +0.000 A 
ATOM      7  C   UNL     1       0.731  10.359  19.947  0.00  0.00    +0.000 A 
ATOM      8  C   UNL     1       1.153  11.112  18.713  0.00  0.00    +0.000 C 
ATOM      9  C   UNL     1      -0.042  11.037  20.908  0.00  0.00    +0.000 A 
ENDBRANCH   1   6
BRANCH   1  10
ATOM     10  C   UNL     1       2.379   7.136  19.512  0.00  0.00    +0.000 C 
BRANCH  10  11
ATOM     11  C   UNL     1       2.950   6.530  18.264  0.00  0.00    +0.000 C 
ATOM     12  C   UNL     1       3.528   5.316  18.247  0.00  0.00    +0.000 C 
BRANCH  12  13
ATOM     13  C   UNL     1       4.152   4.667  17.049  0.00  0.00    +0.000 C 
BRANCH  13  14
ATOM     14  N   UNL     1       5.604   4.682  17.121  0.00  0.00    +0.000 N 
ATOM     15  C   UNL     1       6.373   4.784  18.251  0.00  0.00    +0.000 A 
ATOM     16  C   UNL     1       7.673   4.659  17.806  0.00  0.00    +0.000 A 
ATOM     17  N   UNL     1       7.707   4.500  16.445  0.00  0.00    +0.000 NA
ATOM     18  C   UNL     1       6.450   4.522  16.061  0.00  0.00    +0.000 A 
ENDBRANCH  13  14
ENDBRANCH  12  13
ENDBRANCH  10  11
ENDBRANCH   1  10
TORSDOF 5
ENDMDL
MODEL 9
REMARK VINA RESULT:      -6.0      1.766      2.275
REMARK  Name = 
REMARK  7 active torsions:
REMARK  status: ('A' for Active; 'I' for Inactive)
REMARK    1  A    between atoms: C_1  and  C_2
REMARK    2  A    between atoms: C_5  and  O_6
REMARK    3  A    between atoms: O_6  and  C_7
REMARK    4  A    between atoms: C_7  and  C_8
REMARK    5  A    between atoms: C_9  and  C_10
REMARK    6  A    between atoms: C_10  and  N_11
REMARK    7  A    between atoms: C_16  and  C_17
REMARK                            x       y       z     vdW  Elec       q    Type
REMARK                         _______ _______ _______ _____ _____    ______ ____
ROOT
ATOM      1  O   UNL     1       7.523   7.163  16.982  0.00  0.00    +0.000 OA
ENDROOT
BRANCH   1   6
ATOM      2  C   UNL     1       2.711   4.220  17.758  0.00  0.00    +0.000 C 
ATOM      3  C   UNL     1       3.965   5.018  17.552  0.00  0.00    +0.000 A 
ATOM      4  C   UNL     1       3.904   6.391  17.316  0.00  0.00    +0.000 A 
ATOM      5  C   UNL     1       5.074   7.128  17.124  0.00  0.00    +0.000 A 
ATOM      6  C   UNL     1       6.330   6.508  17.166  0.00  0.00    +0.000 A 
ATOM      7  C   UNL     1       6.404   5.126  17.407  0.00  0.00    +0.000 A 
ATOM      8  C   UNL     1       7.714   4.388  17.467  0.00  0.00    +0.000 C 
ATOM      9  C   UNL     1       5.217   4.394  17.596  0.00  0.00    +0.000 A 
ENDBRANCH   1   6
BRANCH   1  10
ATOM     10  C   UNL     1       8.034   7.873  18.104  0.00  0.00    +0.000 C 
BRANCH  10  11
ATOM     11  C   UNL     1       8.098   9.332  17.763  0.00  0.00    +0.000 C 
ATOM     12  C   UNL     1       8.912  10.191  18.401  0.00  0.00    +0.000 C 
BRANCH  12  13
ATOM     13  C   UNL     1       8.999  11.664  18.141  0.00  0.00    +0.000 C 
BRANCH  13  14
ATOM     14  N   UNL     1      10.289  12.207  18.531  0.00  0.00    +0.000 N 
ATOM     15  C   UNL     1      11.410  12.315  17.748  0.00  0.00    +0.000 A 
ATOM     16  C   UNL     1      12.330  12.972  18.538  0.00  0.00    +0.000 A 
ATOM     17  N   UNL     1      11.802  13.249  19.772  0.00  0.00    +0.000 NA
ATOM     18  C   UNL     1      10.577  12.774  19.740  0.00  0.00    +0.000 A 
ENDBRANCH  13  14
ENDBRANCH  12  13
ENDBRANCH  10  11
ENDBRANCH   1  10
TORSDOF 5
ENDMDL
