MODEL 1
REMARK VINA RESULT:      -8.8      0.000      0.000
REMARK  Name = 
REMARK  4 active torsions:
REMARK  status: ('A' for Active; 'I' for Inactive)
REMARK    1  A    between atoms: C_2  and  C_4
REMARK    2  A    between atoms: C_7  and  C_8
REMARK    3  A    between atoms: C_13  and  C_14
REMARK    4  A    between atoms: C_17  and  C_18
REMARK                            x       y       z     vdW  Elec       q    Type
REMARK                         _______ _______ _______ _____ _____    ______ ____
ROOT
ATOM      1  C   UNL     1       2.870   6.890  18.620  0.00  0.00    +0.000 A 
ATOM      2  C   UNL     1       2.569   6.113  19.774  0.00  0.00    +0.000 A 
ATOM      3  C   UNL     1       1.721   6.582  20.768  0.00  0.00    +0.000 A 
ATOM      4  C   UNL     1       1.182   7.840  20.616  0.00  0.00    +0.000 A 
ATOM      5  C   UNL     1       0.349   8.501  21.459  0.00  0.00    +0.000 A 
ATOM      6  C   UNL     1       0.115   9.739  20.872  0.00  0.00    +0.000 A 
ATOM      7  N   UNL     1       0.784   9.820  19.681  0.00  0.00    +0.000 N 
ATOM      8  C   UNL     1       1.437   8.637  19.540  0.00  0.00    +0.000 A 
ATOM      9  C   UNL     1       2.277   8.193  18.496  0.00  0.00    +0.000 A 
ATOM     10  H   UNL     1       0.809  10.623  19.015  0.00  0.00    +0.000 HD
ENDROOT
BRANCH   1  14
ATOM     11  C   UNL     1       5.566   5.186  15.669  0.00  0.00    +0.000 A 
ATOM     12  C   UNL     1       4.915   4.363  16.606  0.00  0.00    +0.000 A 
ATOM     13  C   UNL     1       4.013   4.900  17.534  0.00  0.00    +0.000 A 
ATOM     14  C   UNL     1       3.765   6.283  17.576  0.00  0.00    +0.000 A 
ATOM     15  C   UNL     1       4.419   7.100  16.623  0.00  0.00    +0.000 A 
ATOM     16  C   UNL     1       5.290   6.560  15.680  0.00  0.00    +0.000 A 
BRANCH  11  18
ATOM     17  N   UNL     1       7.629   5.235  14.451  0.00  0.00    +0.000 NA
ATOM     18  C   UNL     1       6.516   4.628  14.668  0.00  0.00    +0.000 C 
ATOM     19  N   UNL     1       6.211   3.446  13.936  0.00  0.00    +0.000 N 
ATOM     20  H   UNL     1       8.297   4.896  13.743  0.00  0.00    +0.000 HD
ATOM     21  H   UNL     1       6.872   3.082  13.235  0.00  0.00    +0.000 HD
ATOM     22  H   UNL     1       5.371   2.888  14.139  0.00  0.00    +0.000 HD
ENDBRANCH  11  18
ENDBRANCH   1  14
BRANCH   6  23
ATOM     23  C   UNL     1      -0.722  10.804  21.510  0.00  0.00    +0.000 A 
ATOM     24  C   UNL     1      -1.236  11.858  20.727  0.00  0.00    +0.000 A 
ATOM     25  C   UNL     1      -2.055  12.842  21.274  0.00  0.00    +0.000 A 
ATOM     26  C   UNL     1      -2.407  12.824  22.639  0.00  0.00    +0.000 A 
ATOM     27  C   UNL     1      -1.873  11.775  23.427  0.00  0.00    +0.000 A 
ATOM     28  C   UNL     1      -1.045  10.784  22.872  0.00  0.00    +0.000 A 
BRANCH  26  29
ATOM     29  C   UNL     1      -3.327  13.876  23.228  0.00  0.00    +0.000 C 
ATOM     30  N   UNL     1      -3.634  14.954  22.586  0.00  0.00    +0.000 NA
ATOM     31  N   UNL     1      -3.911  13.713  24.514  0.00  0.00    +0.000 N 
ATOM     32  H   UNL     1      -3.302  15.207  21.648  0.00  0.00    +0.000 HD
ATOM     33  H   UNL     1      -3.746  12.892  25.107  0.00  0.00    +0.000 HD
ATOM     34  H   UNL     1      -4.549  14.435  24.879  0.00  0.00    +0.000 HD
ENDBRANCH  26  29
ENDBRANCH   6  23
TORSDOF 4
ENDMDL
MODEL 2
REMARK VINA RESULT:      -8.7      1.037      1.637
REMARK  Name = 
REMARK  4 active torsions:
REMARK  status: ('A' for Active; 'I' for Inactive)
REMARK    1  A    between atoms: C_2  and  C_4
REMARK    2  A    between atoms: C_7  and  C_8
REMARK    3  A    between atoms: C_13  and  C_14
REMARK    4  A    between atoms: C_17  and  C_18
REMARK                            x       y       z     vdW  Elec       q    Type
REMARK                         _______ _______ _______ _____ _____    ______ ____
ROOT
ATOM      1  C   UNL     1       3.617   6.195  17.997  0.00  0.00    +0.000 A 
ATOM      2  C   UNL     1       3.442   5.340  19.121  0.00  0.00    +0.000 A 
ATOM      3  C   UNL     1       2.648   5.707  20.200  0.00  0.00    +0.000 A 
ATOM      4  C   UNL     1       2.039   6.941  20.162  0.00  0.00    +0.000 A 
ATOM      5  C   UNL     1       1.239   7.509  21.100  0.00  0.00    +0.000 A 
ATOM      6  C   UNL     1       0.901   8.763  20.606  0.00  0.00    +0.000 A 
ATOM      7  N   UNL     1       1.474   8.945  19.377  0.00  0.00    +0.000 N 
ATOM      8  C   UNL     1       2.172   7.809  19.119  0.00  0.00    +0.000 A 
ATOM      9  C   UNL     1       2.953   7.469  17.993  0.00  0.00    +0.000 A 
ATOM     10  H   UNL     1       1.410   9.784  18.759  0.00  0.00    +0.000 HD
ENDROOT
BRANCH   1  14
ATOM     11  C   UNL     1       5.938   4.707  14.639  0.00  0.00    +0.000 A 
ATOM     12  C   UNL     1       5.730   6.088  14.812  0.00  0.00    +0.000 A 
ATOM     13  C   UNL     1       5.018   6.577  15.915  0.00  0.00    +0.000 A 
ATOM     14  C   UNL     1       4.460   5.696  16.857  0.00  0.00    +0.000 A 
ATOM     15  C   UNL     1       4.681   4.309  16.676  0.00  0.00    +0.000 A 
ATOM     16  C   UNL     1       5.418   3.827  15.598  0.00  0.00    +0.000 A 
BRANCH  11  18
ATOM     17  N   UNL     1       7.694   4.850  13.015  0.00  0.00    +0.000 NA
ATOM     18  C   UNL     1       6.705   4.173  13.480  0.00  0.00    +0.000 C 
ATOM     19  N   UNL     1       6.354   2.937  12.866  0.00  0.00    +0.000 N 
ATOM     20  H   UNL     1       8.228   4.528  12.195  0.00  0.00    +0.000 HD
ATOM     21  H   UNL     1       6.885   2.590  12.054  0.00  0.00    +0.000 HD
ATOM     22  H   UNL     1       5.625   2.328  13.258  0.00  0.00    +0.000 HD
ENDBRANCH  11  18
ENDBRANCH   1  14
BRANCH   6  23
ATOM     23  C   UNL     1       0.062   9.744  21.364  0.00  0.00    +0.000 A 
ATOM     24  C   UNL     1      -0.413  10.907  20.724  0.00  0.00    +0.000 A 
ATOM     25  C   UNL     1      -1.233  11.820  21.382  0.00  0.00    +0.000 A 
ATOM     26  C   UNL     1      -1.623  11.619  22.721  0.00  0.00    +0.000 A 
ATOM     27  C   UNL     1      -1.127  10.461  23.369  0.00  0.00    +0.000 A 
ATOM     28  C   UNL     1      -0.299   9.541  22.702  0.00  0.00    +0.000 A 
BRANCH  26  29
ATOM     29  C   UNL     1      -2.543  12.596  23.428  0.00  0.00    +0.000 C 
ATOM     30  N   UNL     1      -2.183  13.810  23.687  0.00  0.00    +0.000 NA
ATOM     31  N   UNL     1      -3.857  12.223  23.822  0.00  0.00    +0.000 N 
ATOM     32  H   UNL     1      -1.275  14.227  23.455  0.00  0.00    +0.000 HD
ATOM     33  H   UNL     1      -4.251  11.291  23.656  0.00  0.00    +0.000 HD
ATOM     34  H   UNL     1      -4.467  12.916  24.280  0.00  0.00    +0.000 HD
ENDBRANCH  26  29
ENDBRANCH   6  23
TORSDOF 4
ENDMDL
MODEL 3
REMARK VINA RESULT:      -8.7      0.455      1.208
REMARK  Name = 
REMARK  4 active torsions:
REMARK  status: ('A' for Active; 'I' for Inactive)
REMARK    1  A    between atoms: C_2  and  C_4
REMARK    2  A    between atoms: C_7  and  C_8
REMARK    3  A    between atoms: C_13  and  C_14
REMARK    4  A    between atoms: C_17  and  C_18
REMARK                            x       y       z     vdW  Elec       q    Type
REMARK                         _______ _______ _______ _____ _____    ______ ____
ROOT
ATOM      1  C   UNL     1       3.182   6.723  18.407  0.00  0.00    +0.000 A 
ATOM      2  C   UNL     1       2.889   5.903  19.532  0.00  0.00    +0.000 A 
ATOM      3  C   UNL     1       2.022   6.322  20.534  0.00  0.00    +0.000 A 
ATOM      4  C   UNL     1       1.459   7.574  20.418  0.00  0.00    +0.000 A 
ATOM      5  C   UNL     1       0.606   8.190  21.273  0.00  0.00    +0.000 A 
ATOM      6  C   UNL     1       0.350   9.441  20.724  0.00  0.00    +0.000 A 
ATOM      7  N   UNL     1       1.027   9.574  19.543  0.00  0.00    +0.000 N 
ATOM      8  C   UNL     1       1.706   8.409  19.369  0.00  0.00    +0.000 A 
ATOM      9  C   UNL     1       2.564   8.016  18.320  0.00  0.00    +0.000 A 
ATOM     10  H   UNL     1       1.042  10.398  18.903  0.00  0.00    +0.000 HD
ENDROOT
BRANCH   1  14
ATOM     11  C   UNL     1       5.718   5.087  15.281  0.00  0.00    +0.000 A 
ATOM     12  C   UNL     1       5.621   6.477  15.472  0.00  0.00    +0.000 A 
ATOM     13  C   UNL     1       4.837   7.010  16.503  0.00  0.00    +0.000 A 
ATOM     14  C   UNL     1       4.098   6.168  17.352  0.00  0.00    +0.000 A 
ATOM     15  C   UNL     1       4.210   4.771  17.156  0.00  0.00    +0.000 A 
ATOM     16  C   UNL     1       5.015   4.242  16.151  0.00  0.00    +0.000 A 
BRANCH  11  18
ATOM     17  N   UNL     1       6.239   3.362  13.700  0.00  0.00    +0.000 NA
ATOM     18  C   UNL     1       6.558   4.505  14.197  0.00  0.00    +0.000 C 
ATOM     19  N   UNL     1       7.714   5.180  13.713  0.00  0.00    +0.000 N 
ATOM     20  H   UNL     1       6.814   2.914  12.972  0.00  0.00    +0.000 HD
ATOM     21  H   UNL     1       8.293   4.756  12.975  0.00  0.00    +0.000 HD
ATOM     22  H   UNL     1       7.954   6.130  14.026  0.00  0.00    +0.000 HD
ENDBRANCH  11  18
ENDBRANCH   1  14
BRANCH   6  23
ATOM     23  C   UNL     1      -0.514  10.467  21.388  0.00  0.00    +0.000 A 
ATOM     24  C   UNL     1      -1.088  11.504  20.625  0.00  0.00    +0.000 A 
ATOM     25  C   UNL     1      -1.933  12.451  21.197  0.00  0.00    +0.000 A 
ATOM     26  C   UNL     1      -2.252  12.411  22.570  0.00  0.00    +0.000 A 
ATOM     27  C   UNL     1      -1.657  11.380  23.338  0.00  0.00    +0.000 A 
ATOM     28  C   UNL     1      -0.804  10.427  22.758  0.00  0.00    +0.000 A 
BRANCH  26  29
ATOM     29  C   UNL     1      -3.199  13.422  23.187  0.00  0.00    +0.000 C 
ATOM     30  N   UNL     1      -3.314  14.623  22.726  0.00  0.00    +0.000 NA
ATOM     31  N   UNL     1      -4.022  13.084  24.297  0.00  0.00    +0.000 N 
ATOM     32  H   UNL     1      -2.799  15.009  21.927  0.00  0.00    +0.000 HD
ATOM     33  H   UNL     1      -4.022  12.157  24.736  0.00  0.00    +0.000 HD
ATOM     34  H   UNL     1      -4.672  13.785  24.681  0.00  0.00    +0.000 HD
ENDBRANCH  26  29
ENDBRANCH   6  23
TORSDOF 4
ENDMDL
MODEL 4
REMARK VINA RESULT:      -8.7      2.528      3.473
REMARK  Name = 
REMARK  4 active torsions:
REMARK  status: ('A' for Active; 'I' for Inactive)
REMARK    1  A    between atoms: C_2  and  C_4
REMARK    2  A    between atoms: C_7  and  C_8
REMARK    3  A    between atoms: C_13  and  C_14
REMARK    4  A    between atoms: C_17  and  C_18
REMARK                            x       y       z     vdW  Elec       q    Type
REMARK                         _______ _______ _______ _____ _____    ______ ____
ROOT
ATOM      1  C   UNL     1       1.725   7.606  20.154  0.00  0.00    +0.000 A 
ATOM      2  C   UNL     1       1.748   8.522  19.066  0.00  0.00    +0.000 A 
ATOM      3  C   UNL     1       1.182   9.786  19.165  0.00  0.00    +0.000 A 
ATOM      4  C   UNL     1       0.574  10.130  20.352  0.00  0.00    +0.000 A 
ATOM      5  C   UNL     1      -0.051  11.293  20.666  0.00  0.00    +0.000 A 
ATOM      6  C   UNL     1      -0.518  11.137  21.966  0.00  0.00    +0.000 A 
ATOM      7  N   UNL     1      -0.164   9.903  22.439  0.00  0.00    +0.000 N 
ATOM      8  C   UNL     1       0.511   9.295  21.427  0.00  0.00    +0.000 A 
ATOM      9  C   UNL     1       1.091   8.010  21.379  0.00  0.00    +0.000 A 
ATOM     10  H   UNL     1      -0.374   9.492  23.375  0.00  0.00    +0.000 HD
ENDROOT
BRANCH   1  14
ATOM     11  C   UNL     1       3.572   3.720  19.547  0.00  0.00    +0.000 A 
ATOM     12  C   UNL     1       4.055   4.857  18.873  0.00  0.00    +0.000 A 
ATOM     13  C   UNL     1       3.491   6.120  19.096  0.00  0.00    +0.000 A 
ATOM     14  C   UNL     1       2.401   6.276  19.970  0.00  0.00    +0.000 A 
ATOM     15  C   UNL     1       1.929   5.126  20.648  0.00  0.00    +0.000 A 
ATOM     16  C   UNL     1       2.512   3.878  20.451  0.00  0.00    +0.000 A 
BRANCH  11  18
ATOM     17  N   UNL     1       5.064   1.945  20.151  0.00  0.00    +0.000 NA
ATOM     18  C   UNL     1       4.170   2.374  19.331  0.00  0.00    +0.000 C 
ATOM     19  N   UNL     1       3.787   1.561  18.228  0.00  0.00    +0.000 N 
ATOM     20  H   UNL     1       5.523   1.033  20.016  0.00  0.00    +0.000 HD
ATOM     21  H   UNL     1       4.222   0.639  18.085  0.00  0.00    +0.000 HD
ATOM     22  H   UNL     1       3.019   1.832  17.600  0.00  0.00    +0.000 HD
ENDBRANCH  11  18
ENDBRANCH   1  14
BRANCH   6  23
ATOM     23  C   UNL     1      -1.316  12.182  22.682  0.00  0.00    +0.000 A 
ATOM     24  C   UNL     1      -0.832  13.504  22.763  0.00  0.00    +0.000 A 
ATOM     25  C   UNL     1      -1.566  14.514  23.380  0.00  0.00    +0.000 A 
ATOM     26  C   UNL     1      -2.828  14.254  23.952  0.00  0.00    +0.000 A 
ATOM     27  C   UNL     1      -3.302  12.921  23.887  0.00  0.00    +0.000 A 
ATOM     28  C   UNL     1      -2.558  11.904  23.264  0.00  0.00    +0.000 A 
BRANCH  26  29
ATOM     29  C   UNL     1      -3.642  15.361  24.595  0.00  0.00    +0.000 C 
ATOM     30  N   UNL     1      -3.096  16.280  25.320  0.00  0.00    +0.000 NA
ATOM     31  N   UNL     1      -5.050  15.446  24.411  0.00  0.00    +0.000 N 
ATOM     32  H   UNL     1      -2.095  16.358  25.532  0.00  0.00    +0.000 HD
ATOM     33  H   UNL     1      -5.585  14.778  23.847  0.00  0.00    +0.000 HD
ATOM     34  H   UNL     1      -5.573  16.222  24.842  0.00  0.00    +0.000 HD
ENDBRANCH  26  29
ENDBRANCH   6  23
TORSDOF 4
ENDMDL
MODEL 5
REMARK VINA RESULT:      -8.7      0.489      1.224
REMARK  Name = 
REMARK  4 active torsions:
REMARK  status: ('A' for Active; 'I' for Inactive)
REMARK    1  A    between atoms: C_2  and  C_4
REMARK    2  A    between atoms: C_7  and  C_8
REMARK    3  A    between atoms: C_13  and  C_14
REMARK    4  A    between atoms: C_17  and  C_18
REMARK                            x       y       z     vdW  Elec       q    Type
REMARK                         _______ _______ _______ _____ _____    ______ ____
ROOT
ATOM      1  C   UNL     1       2.982   6.854  18.466  0.00  0.00    +0.000 A 
ATOM      2  C   UNL     1       2.724   6.094  19.641  0.00  0.00    +0.000 A 
ATOM      3  C   UNL     1       1.892   6.567  20.647  0.00  0.00    +0.000 A 
ATOM      4  C   UNL     1       1.328   7.813  20.486  0.00  0.00    +0.000 A 
ATOM      5  C   UNL     1       0.505   8.475  21.337  0.00  0.00    +0.000 A 
ATOM      6  C   UNL     1       0.235   9.698  20.734  0.00  0.00    +0.000 A 
ATOM      7  N   UNL     1       0.872   9.767  19.525  0.00  0.00    +0.000 N 
ATOM      8  C   UNL     1       1.542   8.593  19.389  0.00  0.00    +0.000 A 
ATOM      9  C   UNL     1       2.364   8.144  18.333  0.00  0.00    +0.000 A 
ATOM     10  H   UNL     1       0.867  10.558  18.844  0.00  0.00    +0.000 HD
ENDROOT
BRANCH   1  14
ATOM     11  C   UNL     1       5.634   5.131  15.486  0.00  0.00    +0.000 A 
ATOM     12  C   UNL     1       4.942   4.307  16.393  0.00  0.00    +0.000 A 
ATOM     13  C   UNL     1       4.054   4.852  17.330  0.00  0.00    +0.000 A 
ATOM     14  C   UNL     1       3.861   6.242  17.411  0.00  0.00    +0.000 A 
ATOM     15  C   UNL     1       4.556   7.061  16.488  0.00  0.00    +0.000 A 
ATOM     16  C   UNL     1       5.413   6.514  15.536  0.00  0.00    +0.000 A 
BRANCH  11  18
ATOM     17  N   UNL     1       6.306   3.423  13.945  0.00  0.00    +0.000 NA
ATOM     18  C   UNL     1       6.570   4.565  14.476  0.00  0.00    +0.000 C 
ATOM     19  N   UNL     1       7.758   5.253  14.099  0.00  0.00    +0.000 N 
ATOM     20  H   UNL     1       6.946   2.986  13.267  0.00  0.00    +0.000 HD
ATOM     21  H   UNL     1       8.403   4.839  13.411  0.00  0.00    +0.000 HD
ATOM     22  H   UNL     1       7.961   6.202  14.438  0.00  0.00    +0.000 HD
ENDBRANCH  11  18
ENDBRANCH   1  14
BRANCH   6  23
ATOM     23  C   UNL     1      -0.605  10.760  21.373  0.00  0.00    +0.000 A 
ATOM     24  C   UNL     1      -0.920  10.677  22.744  0.00  0.00    +0.000 A 
ATOM     25  C   UNL     1      -1.660  11.667  23.385  0.00  0.00    +0.000 A 
ATOM     26  C   UNL     1      -2.126  12.799  22.685  0.00  0.00    +0.000 A 
ATOM     27  C   UNL     1      -1.825  12.869  21.302  0.00  0.00    +0.000 A 
ATOM     28  C   UNL     1      -1.079  11.867  20.659  0.00  0.00    +0.000 A 
BRANCH  26  29
ATOM     29  C   UNL     1      -2.903  13.894  23.389  0.00  0.00    +0.000 C 
ATOM     30  N   UNL     1      -4.163  14.086  23.175  0.00  0.00    +0.000 NA
ATOM     31  N   UNL     1      -2.280  14.752  24.337  0.00  0.00    +0.000 N 
ATOM     32  H   UNL     1      -4.750  13.543  22.532  0.00  0.00    +0.000 HD
ATOM     33  H   UNL     1      -1.289  14.683  24.593  0.00  0.00    +0.000 HD
ATOM     34  H   UNL     1      -2.839  15.473  24.816  0.00  0.00    +0.000 HD
ENDBRANCH  26  29
ENDBRANCH   6  23
TORSDOF 4
ENDMDL
MODEL 6
REMARK VINA RESULT:      -8.6      2.626      3.531
REMARK  Name = 
REMARK  4 active torsions:
REMARK  status: ('A' for Active; 'I' for Inactive)
REMARK    1  A    between atoms: C_2  and  C_4
REMARK    2  A    between atoms: C_7  and  C_8
REMARK    3  A    between atoms: C_13  and  C_14
REMARK    4  A    between atoms: C_17  and  C_18
REMARK                            x       y       z     vdW  Elec       q    Type
REMARK                         _______ _______ _______ _____ _____    ______ ____
ROOT
ATOM      1  C   UNL     1       1.812   7.402  20.044  0.00  0.00    +0.000 A 
ATOM      2  C   UNL     1       1.864   8.283  18.929  0.00  0.00    +0.000 A 
ATOM      3  C   UNL     1       1.342   9.569  18.991  0.00  0.00    +0.000 A 
ATOM      4  C   UNL     1       0.750   9.969  20.168  0.00  0.00    +0.000 A 
ATOM      5  C   UNL     1       0.167  11.162  20.448  0.00  0.00    +0.000 A 
ATOM      6  C   UNL     1      -0.301  11.062  21.753  0.00  0.00    +0.000 A 
ATOM      7  N   UNL     1       0.011   9.831  22.262  0.00  0.00    +0.000 N 
ATOM      8  C   UNL     1       0.661   9.170  21.268  0.00  0.00    +0.000 A 
ATOM      9  C   UNL     1       1.196   7.864  21.257  0.00  0.00    +0.000 A 
ATOM     10  H   UNL     1      -0.210   9.456  23.211  0.00  0.00    +0.000 HD
ENDROOT
BRANCH   1  14
ATOM     11  C   UNL     1       3.542   3.450  19.521  0.00  0.00    +0.000 A 
ATOM     12  C   UNL     1       4.234   4.599  19.095  0.00  0.00    +0.000 A 
ATOM     13  C   UNL     1       3.701   5.878  19.297  0.00  0.00    +0.000 A 
ATOM     14  C   UNL     1       2.441   6.044  19.899  0.00  0.00    +0.000 A 
ATOM     15  C   UNL     1       1.757   4.882  20.330  0.00  0.00    +0.000 A 
ATOM     16  C   UNL     1       2.304   3.613  20.159  0.00  0.00    +0.000 A 
BRANCH  11  18
ATOM     17  N   UNL     1       3.621   1.335  18.398  0.00  0.00    +0.000 NA
ATOM     18  C   UNL     1       4.102   2.085  19.326  0.00  0.00    +0.000 C 
ATOM     19  N   UNL     1       5.147   1.587  20.154  0.00  0.00    +0.000 N 
ATOM     20  H   UNL     1       3.961   0.373  18.254  0.00  0.00    +0.000 HD
ATOM     21  H   UNL     1       5.512   0.634  20.016  0.00  0.00    +0.000 HD
ATOM     22  H   UNL     1       5.613   2.184  20.850  0.00  0.00    +0.000 HD
ENDBRANCH  11  18
ENDBRANCH   1  14
BRANCH   6  23
ATOM     23  C   UNL     1      -1.060  12.155  22.439  0.00  0.00    +0.000 A 
ATOM     24  C   UNL     1      -2.297  11.874  23.053  0.00  0.00    +0.000 A 
ATOM     25  C   UNL     1      -3.011  12.853  23.738  0.00  0.00    +0.000 A 
ATOM     26  C   UNL     1      -2.523  14.171  23.848  0.00  0.00    +0.000 A 
ATOM     27  C   UNL     1      -1.290  14.455  23.212  0.00  0.00    +0.000 A 
ATOM     28  C   UNL     1      -0.572  13.465  22.520  0.00  0.00    +0.000 A 
BRANCH  26  29
ATOM     29  C   UNL     1      -3.285  15.230  24.623  0.00  0.00    +0.000 C 
ATOM     30  N   UNL     1      -2.687  16.075  25.395  0.00  0.00    +0.000 NA
ATOM     31  N   UNL     1      -4.698  15.351  24.518  0.00  0.00    +0.000 N 
ATOM     32  H   UNL     1      -1.676  16.121  25.564  0.00  0.00    +0.000 HD
ATOM     33  H   UNL     1      -5.272  14.742  23.926  0.00  0.00    +0.000 HD
ATOM     34  H   UNL     1      -5.185  16.094  25.040  0.00  0.00    +0.000 HD
ENDBRANCH  26  29
ENDBRANCH   6  23
TORSDOF 4
ENDMDL
MODEL 7
REMARK VINA RESULT:      -8.6      2.561      3.438
REMARK  Name = 
REMARK  4 active torsions:
REMARK  status: ('A' for Active; 'I' for Inactive)
REMARK    1  A    between atoms: C_2  and  C_4
REMARK    2  A    between atoms: C_7  and  C_8
REMARK    3  A    between atoms: C_13  and  C_14
REMARK    4  A    between atoms: C_17  and  C_18
REMARK                            x       y       z     vdW  Elec       q    Type
REMARK                         _______ _______ _______ _____ _____    ______ ____
ROOT
ATOM      1  C   UNL     1       1.729   7.458  20.025  0.00  0.00    +0.000 A 
ATOM      2  C   UNL     1       1.884   8.388  18.959  0.00  0.00    +0.000 A 
ATOM      3  C   UNL     1       1.417   9.692  19.056  0.00  0.00    +0.000 A 
ATOM      4  C   UNL     1       0.776  10.064  20.218  0.00  0.00    +0.000 A 
ATOM      5  C   UNL     1       0.231  11.268  20.524  0.00  0.00    +0.000 A 
ATOM      6  C   UNL     1      -0.315  11.128  21.795  0.00  0.00    +0.000 A 
ATOM      7  N   UNL     1      -0.087   9.861  22.259  0.00  0.00    +0.000 N 
ATOM      8  C   UNL     1       0.589   9.218  21.270  0.00  0.00    +0.000 A 
ATOM      9  C   UNL     1       1.066   7.890  21.223  0.00  0.00    +0.000 A 
ATOM     10  H   UNL     1      -0.379   9.452  23.173  0.00  0.00    +0.000 HD
ENDROOT
BRANCH   1  14
ATOM     11  C   UNL     1       3.512   3.521  19.572  0.00  0.00    +0.000 A 
ATOM     12  C   UNL     1       2.496   3.744  20.520  0.00  0.00    +0.000 A 
ATOM     13  C   UNL     1       1.888   5.001  20.643  0.00  0.00    +0.000 A 
ATOM     14  C   UNL     1       2.306   6.081  19.846  0.00  0.00    +0.000 A 
ATOM     15  C   UNL     1       3.323   5.843  18.891  0.00  0.00    +0.000 A 
ATOM     16  C   UNL     1       3.903   4.585  18.747  0.00  0.00    +0.000 A 
BRANCH  11  18
ATOM     17  N   UNL     1       5.118   1.861  20.209  0.00  0.00    +0.000 NA
ATOM     18  C   UNL     1       4.157   2.188  19.420  0.00  0.00    +0.000 C 
ATOM     19  N   UNL     1       3.743   1.276  18.408  0.00  0.00    +0.000 N 
ATOM     20  H   UNL     1       5.609   0.961  20.114  0.00  0.00    +0.000 HD
ATOM     21  H   UNL     1       4.211   0.364  18.306  0.00  0.00    +0.000 HD
ATOM     22  H   UNL     1       2.927   1.466  17.813  0.00  0.00    +0.000 HD
ENDBRANCH  11  18
ENDBRANCH   1  14
BRANCH   6  23
ATOM     23  C   UNL     1      -1.063  12.221  22.491  0.00  0.00    +0.000 A 
ATOM     24  C   UNL     1      -2.306  11.947  23.098  0.00  0.00    +0.000 A 
ATOM     25  C   UNL     1      -3.011  12.926  23.794  0.00  0.00    +0.000 A 
ATOM     26  C   UNL     1      -2.508  14.238  23.920  0.00  0.00    +0.000 A 
ATOM     27  C   UNL     1      -1.270  14.515  23.291  0.00  0.00    +0.000 A 
ATOM     28  C   UNL     1      -0.561  13.525  22.589  0.00  0.00    +0.000 A 
BRANCH  26  29
ATOM     29  C   UNL     1      -3.259  15.295  24.706  0.00  0.00    +0.000 C 
ATOM     30  N   UNL     1      -2.655  16.119  25.496  0.00  0.00    +0.000 NA
ATOM     31  N   UNL     1      -4.669  15.440  24.591  0.00  0.00    +0.000 N 
ATOM     32  H   UNL     1      -1.645  16.146  25.674  0.00  0.00    +0.000 HD
ATOM     33  H   UNL     1      -5.248  14.850  23.984  0.00  0.00    +0.000 HD
ATOM     34  H   UNL     1      -5.150  16.183  25.120  0.00  0.00    +0.000 HD
ENDBRANCH  26  29
ENDBRANCH   6  23
TORSDOF 4
ENDMDL
MODEL 8
REMARK VINA RESULT:      -8.6      2.499      3.425
REMARK  Name = 
REMARK  4 active torsions:
REMARK  status: ('A' for Active; 'I' for Inactive)
REMARK    1  A    between atoms: C_2  and  C_4
REMARK    2  A    between atoms: C_7  and  C_8
REMARK    3  A    between atoms: C_13  and  C_14
REMARK    4  A    between atoms: C_17  and  C_18
REMARK                            x       y       z     vdW  Elec       q    Type
REMARK                         _______ _______ _______ _____ _____    ______ ____
ROOT
ATOM      1  C   UNL     1       1.651   7.542  20.049  0.00  0.00    +0.000 A 
ATOM      2  C   UNL     1       1.766   8.494  18.999  0.00  0.00    +0.000 A 
ATOM      3  C   UNL     1       1.268   9.785  19.127  0.00  0.00    +0.000 A 
ATOM      4  C   UNL     1       0.639  10.120  20.305  0.00  0.00    +0.000 A 
ATOM      5  C   UNL     1       0.070  11.304  20.642  0.00  0.00    +0.000 A 
ATOM      6  C   UNL     1      -0.450  11.129  21.919  0.00  0.00    +0.000 A 
ATOM      7  N   UNL     1      -0.184   9.860  22.356  0.00  0.00    +0.000 N 
ATOM      8  C   UNL     1       0.490   9.252  21.345  0.00  0.00    +0.000 A 
ATOM      9  C   UNL     1       0.998   7.937  21.266  0.00  0.00    +0.000 A 
ATOM     10  H   UNL     1      -0.451   9.428  23.268  0.00  0.00    +0.000 HD
ENDROOT
BRANCH   1  14
ATOM     11  C   UNL     1       3.517   3.656  19.503  0.00  0.00    +0.000 A 
ATOM     12  C   UNL     1       2.465   3.824  20.423  0.00  0.00    +0.000 A 
ATOM     13  C   UNL     1       1.831   5.064  20.574  0.00  0.00    +0.000 A 
ATOM     14  C   UNL     1       2.258   6.183  19.837  0.00  0.00    +0.000 A 
ATOM     15  C   UNL     1       3.312   6.000  18.910  0.00  0.00    +0.000 A 
ATOM     16  C   UNL     1       3.918   4.758  18.737  0.00  0.00    +0.000 A 
BRANCH  11  18
ATOM     17  N   UNL     1       3.892   1.618  18.300  0.00  0.00    +0.000 NA
ATOM     18  C   UNL     1       4.190   2.340  19.321  0.00  0.00    +0.000 C 
ATOM     19  N   UNL     1       5.143   1.859  20.263  0.00  0.00    +0.000 N 
ATOM     20  H   UNL     1       4.314   0.689  18.158  0.00  0.00    +0.000 HD
ATOM     21  H   UNL     1       5.588   0.940  20.130  0.00  0.00    +0.000 HD
ATOM     22  H   UNL     1       5.468   2.442  21.046  0.00  0.00    +0.000 HD
ENDBRANCH  11  18
ENDBRANCH   1  14
BRANCH   6  23
ATOM     23  C   UNL     1      -1.213  12.191  22.647  0.00  0.00    +0.000 A 
ATOM     24  C   UNL     1      -0.641  13.467  22.831  0.00  0.00    +0.000 A 
ATOM     25  C   UNL     1      -1.336  14.495  23.463  0.00  0.00    +0.000 A 
ATOM     26  C   UNL     1      -2.646  14.302  23.946  0.00  0.00    +0.000 A 
ATOM     27  C   UNL     1      -3.210  13.013  23.778  0.00  0.00    +0.000 A 
ATOM     28  C   UNL     1      -2.506  11.978  23.141  0.00  0.00    +0.000 A 
BRANCH  26  29
ATOM     29  C   UNL     1      -3.416  15.431  24.605  0.00  0.00    +0.000 C 
ATOM     30  N   UNL     1      -4.706  15.437  24.663  0.00  0.00    +0.000 NA
ATOM     31  N   UNL     1      -2.745  16.530  25.208  0.00  0.00    +0.000 N 
ATOM     32  H   UNL     1      -5.326  14.711  24.285  0.00  0.00    +0.000 HD
ATOM     33  H   UNL     1      -1.724  16.623  25.231  0.00  0.00    +0.000 HD
ATOM     34  H   UNL     1      -3.294  17.272  25.667  0.00  0.00    +0.000 HD
ENDBRANCH  26  29
ENDBRANCH   6  23
TORSDOF 4
ENDMDL
MODEL 9
REMARK VINA RESULT:      -8.4      2.708     11.004
REMARK  Name = 
REMARK  4 active torsions:
REMARK  status: ('A' for Active; 'I' for Inactive)
REMARK    1  A    between atoms: C_2  and  C_4
REMARK    2  A    between atoms: C_7  and  C_8
REMARK    3  A    between atoms: C_13  and  C_14
REMARK    4  A    between atoms: C_17  and  C_18
REMARK                            x       y       z     vdW  Elec       q    Type
REMARK                         _______ _______ _______ _____ _____    ______ ____
ROOT
ATOM      1  C   UNL     1      -0.422  11.280  21.779  0.00  0.00    +0.000 A 
ATOM      2  C   UNL     1       0.151  11.682  20.540  0.00  0.00    +0.000 A 
ATOM      3  C   UNL     1       0.845  10.790  19.734  0.00  0.00    +0.000 A 
ATOM      4  C   UNL     1       0.981   9.493  20.175  0.00  0.00    +0.000 A 
ATOM      5  C   UNL     1       1.625   8.465  19.566  0.00  0.00    +0.000 A 
ATOM      6  C   UNL     1       1.500   7.376  20.420  0.00  0.00    +0.000 A 
ATOM      7  N   UNL     1       0.776   7.735  21.524  0.00  0.00    +0.000 N 
ATOM      8  C   UNL     1       0.463   9.047  21.354  0.00  0.00    +0.000 A 
ATOM      9  C   UNL     1      -0.266   9.914  22.195  0.00  0.00    +0.000 A 
ATOM     10  H   UNL     1       0.520   7.141  22.343  0.00  0.00    +0.000 HD
ENDROOT
BRANCH   1  14
ATOM     11  C   UNL     1      -2.676  14.307  23.931  0.00  0.00    +0.000 A 
ATOM     12  C   UNL     1      -3.205  13.017  23.743  0.00  0.00    +0.000 A 
ATOM     13  C   UNL     1      -2.467  12.024  23.086  0.00  0.00    +0.000 A 
ATOM     14  C   UNL     1      -1.192  12.304  22.564  0.00  0.00    +0.000 A 
ATOM     15  C   UNL     1      -0.667  13.603  22.767  0.00  0.00    +0.000 A 
ATOM     16  C   UNL     1      -1.388  14.579  23.449  0.00  0.00    +0.000 A 
BRANCH  11  18
ATOM     17  N   UNL     1      -4.728  15.353  24.593  0.00  0.00    +0.000 NA
ATOM     18  C   UNL     1      -3.443  15.368  24.640  0.00  0.00    +0.000 C 
ATOM     19  N   UNL     1      -2.783  16.408  25.353  0.00  0.00    +0.000 N 
ATOM     20  H   UNL     1      -5.292  16.088  25.044  0.00  0.00    +0.000 HD
ATOM     21  H   UNL     1      -3.328  17.144  25.824  0.00  0.00    +0.000 HD
ATOM     22  H   UNL     1      -1.763  16.409  25.483  0.00  0.00    +0.000 HD
ENDBRANCH  11  18
ENDBRANCH   1  14
BRANCH   6  23
ATOM     23  C   UNL     1       2.118   6.041  20.143  0.00  0.00    +0.000 A 
ATOM     24  C   UNL     1       3.382   5.966  19.522  0.00  0.00    +0.000 A 
ATOM     25  C   UNL     1       4.010   4.746  19.288  0.00  0.00    +0.000 A 
ATOM     26  C   UNL     1       3.406   3.529  19.666  0.00  0.00    +0.000 A 
ATOM     27  C   UNL     1       2.127   3.607  20.270  0.00  0.00    +0.000 A 
ATOM     28  C   UNL     1       1.495   4.840  20.504  0.00  0.00    +0.000 A 
BRANCH  26  29
ATOM     29  C   UNL     1       4.104   2.202  19.442  0.00  0.00    +0.000 C 
ATOM     30  N   UNL     1       5.114   1.830  20.157  0.00  0.00    +0.000 NA
ATOM     31  N   UNL     1       3.664   1.293  18.440  0.00  0.00    +0.000 N 
ATOM     32  H   UNL     1       5.537   2.369  20.921  0.00  0.00    +0.000 HD
ATOM     33  H   UNL     1       2.866   1.479  17.823  0.00  0.00    +0.000 HD
ATOM     34  H   UNL     1       4.144   0.389  18.326  0.00  0.00    +0.000 HD
ENDBRANCH  26  29
ENDBRANCH   6  23
TORSDOF 4
ENDMDL
