MODEL 1
REMARK VINA RESULT:      -7.8      0.000      0.000
REMARK  Name = 
REMARK  5 active torsions:
REMARK  status: ('A' for Active; 'I' for Inactive)
REMARK    1  A    between atoms: C_2  and  C_16
REMARK    2  A    between atoms: N_3  and  C_4
REMARK    3  A    between atoms: C_4  and  C_5
REMARK    4  A    between atoms: C_5  and  C_6
REMARK    5  A    between atoms: C_5  and  N_11
REMARK                            x       y       z     vdW  Elec       q    Type
REMARK                         _______ _______ _______ _____ _____    ______ ____
ROOT
ATOM      1  C   UNL     1       5.571   4.595  18.454  0.00  0.00    +0.000 C 
ENDROOT
BRANCH   1   4
ATOM      2  O   UNL     1       2.875   4.925  17.699  0.00  0.00    +0.000 OA
ATOM      3  C   UNL     1       3.428   5.832  18.312  0.00  0.00    +0.000 C 
ATOM      4  N   UNL     1       4.742   5.773  18.714  0.00  0.00    +0.000 N 
ATOM      5  H   UNL     1       5.144   6.503  19.287  0.00  0.00    +0.000 HD
BRANCH   3   6
ATOM      6  C   UNL     1       2.668   7.053  18.687  0.00  0.00    +0.000 A 
ATOM      7  C   UNL     1       2.522   8.058  17.718  0.00  0.00    +0.000 A 
ATOM      8  C   UNL     1       1.803   9.220  18.009  0.00  0.00    +0.000 A 
ATOM      9  C   UNL     1       1.240   9.383  19.273  0.00  0.00    +0.000 A 
ATOM     10  C   UNL     1       1.408   8.391  20.236  0.00  0.00    +0.000 A 
ATOM     11  F   UNL     1       0.878   8.562  21.454  0.00  0.00    +0.000 F 
ATOM     12  C   UNL     1       2.120   7.227  19.961  0.00  0.00    +0.000 A 
ENDBRANCH   3   6
ENDBRANCH   1   4
BRANCH   1  13
ATOM     13  C   UNL     1       6.792   4.859  17.551  0.00  0.00    +0.000 C 
BRANCH  13  14
ATOM     14  C   UNL     1       6.512   4.588  16.099  0.00  0.00    +0.000 A 
ATOM     15  C   UNL     1       5.377   4.187  15.418  0.00  0.00    +0.000 A 
ATOM     16  C   UNL     1       5.713   4.176  14.043  0.00  0.00    +0.000 A 
ATOM     17  C   UNL     1       7.025   4.576  13.965  0.00  0.00    +0.000 A 
ATOM     18  O   UNL     1       7.516   4.833  15.202  0.00  0.00    +0.000 OA
ENDBRANCH  13  14
BRANCH  13  19
ATOM     19  N   UNL     1       7.314   6.218  17.751  0.00  0.00    +0.000 N 
ATOM     20  C   UNL     1       8.153   6.623  18.759  0.00  0.00    +0.000 A 
ATOM     21  C   UNL     1       8.351   7.973  18.589  0.00  0.00    +0.000 A 
ATOM     22  C   UNL     1       7.548   8.307  17.485  0.00  0.00    +0.000 A 
ATOM     23  N   UNL     1       6.899   7.251  16.986  0.00  0.00    +0.000 NA
ENDBRANCH  13  19
ENDBRANCH   1  13
TORSDOF 5
ENDMDL
MODEL 2
REMARK VINA RESULT:      -7.8      3.154      6.721
REMARK  Name = 
REMARK  5 active torsions:
REMARK  status: ('A' for Active; 'I' for Inactive)
REMARK    1  A    between atoms: C_2  and  C_16
REMARK    2  A    between atoms: N_3  and  C_4
REMARK    3  A    between atoms: C_4  and  C_5
REMARK    4  A    between atoms: C_5  and  C_6
REMARK    5  A    between atoms: C_5  and  N_11
REMARK                            x       y       z     vdW  Elec       q    Type
REMARK                         _______ _______ _______ _____ _____    ______ ____
ROOT
ATOM      1  C   UNL     1       6.091   4.870  18.360  0.00  0.00    +0.000 C 
ENDROOT
BRANCH   1   4
ATOM      2  O   UNL     1       7.507   6.299  16.384  0.00  0.00    +0.000 OA
ATOM      3  C   UNL     1       6.851   5.319  16.044  0.00  0.00    +0.000 C 
ATOM      4  N   UNL     1       6.118   4.565  16.929  0.00  0.00    +0.000 N 
ATOM      5  H   UNL     1       5.653   3.718  16.630  0.00  0.00    +0.000 HD
BRANCH   3   6
ATOM      6  C   UNL     1       6.853   4.876  14.626  0.00  0.00    +0.000 A 
ATOM      7  C   UNL     1       7.759   5.490  13.748  0.00  0.00    +0.000 A 
ATOM      8  C   UNL     1       7.816   5.102  12.406  0.00  0.00    +0.000 A 
ATOM      9  C   UNL     1       6.958   4.108  11.941  0.00  0.00    +0.000 A 
ATOM     10  C   UNL     1       6.046   3.519  12.813  0.00  0.00    +0.000 A 
ATOM     11  F   UNL     1       5.214   2.576  12.354  0.00  0.00    +0.000 F 
ATOM     12  C   UNL     1       5.979   3.893  14.152  0.00  0.00    +0.000 A 
ENDBRANCH   3   6
ENDBRANCH   1   4
BRANCH   1  13
ATOM     13  C   UNL     1       4.693   4.795  19.005  0.00  0.00    +0.000 C 
BRANCH  13  14
ATOM     14  C   UNL     1       3.833   5.982  18.673  0.00  0.00    +0.000 A 
ATOM     15  C   UNL     1       2.701   6.518  19.258  0.00  0.00    +0.000 A 
ATOM     16  C   UNL     1       2.388   7.694  18.533  0.00  0.00    +0.000 A 
ATOM     17  C   UNL     1       3.348   7.809  17.557  0.00  0.00    +0.000 A 
ATOM     18  O   UNL     1       4.230   6.783  17.636  0.00  0.00    +0.000 OA
ENDBRANCH  13  14
BRANCH  13  19
ATOM     19  N   UNL     1       4.020   3.535  18.660  0.00  0.00    +0.000 N 
ATOM     20  C   UNL     1       4.144   2.341  19.328  0.00  0.00    +0.000 A 
ATOM     21  C   UNL     1       3.380   1.425  18.644  0.00  0.00    +0.000 A 
ATOM     22  C   UNL     1       2.875   2.142  17.547  0.00  0.00    +0.000 A 
ATOM     23  N   UNL     1       3.277   3.416  17.538  0.00  0.00    +0.000 NA
ENDBRANCH  13  19
ENDBRANCH   1  13
TORSDOF 5
ENDMDL
MODEL 3
REMARK VINA RESULT:      -7.7      2.487      3.214
REMARK  Name = 
REMARK  5 active torsions:
REMARK  status: ('A' for Active; 'I' for Inactive)
REMARK    1  A    between atoms: C_2  and  C_16
REMARK    2  A    between atoms: N_3  and  C_4
REMARK    3  A    between atoms: C_4  and  C_5
REMARK    4  A    between atoms: C_5  and  C_6
REMARK    5  A    between atoms: C_5  and  N_11
REMARK                            x       y       z     vdW  Elec       q    Type
REMARK                         _______ _______ _______ _____ _____    ______ ____
ROOT
ATOM      1  C   UNL     1       4.690   4.851  15.805  0.00  0.00    +0.000 C 
ENDROOT
BRANCH   1   4
ATOM      2  O   UNL     1       3.176   6.231  17.742  0.00  0.00    +0.000 OA
ATOM      3  C   UNL     1       3.246   5.009  17.813  0.00  0.00    +0.000 C 
ATOM      4  N   UNL     1       3.968   4.246  16.925  0.00  0.00    +0.000 N 
ATOM      5  H   UNL     1       3.940   3.236  16.965  0.00  0.00    +0.000 HD
BRANCH   3   6
ATOM      6  C   UNL     1       2.503   4.279  18.873  0.00  0.00    +0.000 A 
ATOM      7  C   UNL     1       1.439   3.453  18.478  0.00  0.00    +0.000 A 
ATOM      8  C   UNL     1       0.716   2.729  19.430  0.00  0.00    +0.000 A 
ATOM      9  C   UNL     1       1.048   2.842  20.778  0.00  0.00    +0.000 A 
ATOM     10  C   UNL     1       2.090   3.681  21.164  0.00  0.00    +0.000 A 
ATOM     11  F   UNL     1       2.393   3.797  22.464  0.00  0.00    +0.000 F 
ATOM     12  C   UNL     1       2.822   4.406  20.228  0.00  0.00    +0.000 A 
ENDBRANCH   3   6
ENDBRANCH   1   4
BRANCH   1  13
ATOM     13  C   UNL     1       6.216   4.631  15.833  0.00  0.00    +0.000 C 
BRANCH  13  14
ATOM     14  C   UNL     1       6.837   4.687  14.466  0.00  0.00    +0.000 A 
ATOM     15  C   UNL     1       6.529   4.075  13.265  0.00  0.00    +0.000 A 
ATOM     16  C   UNL     1       7.438   4.582  12.306  0.00  0.00    +0.000 A 
ATOM     17  C   UNL     1       8.242   5.474  12.974  0.00  0.00    +0.000 A 
ATOM     18  O   UNL     1       7.883   5.550  14.279  0.00  0.00    +0.000 OA
ENDBRANCH  13  14
BRANCH  13  19
ATOM     19  N   UNL     1       6.867   5.571  16.756  0.00  0.00    +0.000 N 
ATOM     20  C   UNL     1       7.513   5.244  17.923  0.00  0.00    +0.000 A 
ATOM     21  C   UNL     1       7.931   6.427  18.486  0.00  0.00    +0.000 A 
ATOM     22  C   UNL     1       7.447   7.418  17.617  0.00  0.00    +0.000 A 
ATOM     23  N   UNL     1       6.781   6.907  16.577  0.00  0.00    +0.000 NA
ENDBRANCH  13  19
ENDBRANCH   1  13
TORSDOF 5
ENDMDL
MODEL 4
REMARK VINA RESULT:      -7.7      0.939      1.391
REMARK  Name = 
REMARK  5 active torsions:
REMARK  status: ('A' for Active; 'I' for Inactive)
REMARK    1  A    between atoms: C_2  and  C_16
REMARK    2  A    between atoms: N_3  and  C_4
REMARK    3  A    between atoms: C_4  and  C_5
REMARK    4  A    between atoms: C_5  and  C_6
REMARK    5  A    between atoms: C_5  and  N_11
REMARK                            x       y       z     vdW  Elec       q    Type
REMARK                         _______ _______ _______ _____ _____    ______ ____
ROOT
ATOM      1  C   UNL     1       5.651   4.461  18.342  0.00  0.00    +0.000 C 
ENDROOT
BRANCH   1   4
ATOM      2  O   UNL     1       2.977   4.857  17.541  0.00  0.00    +0.000 OA
ATOM      3  C   UNL     1       3.514   5.712  18.237  0.00  0.00    +0.000 C 
ATOM      4  N   UNL     1       4.816   5.618  18.668  0.00  0.00    +0.000 N 
ATOM      5  H   UNL     1       5.203   6.301  19.307  0.00  0.00    +0.000 HD
BRANCH   3   6
ATOM      6  C   UNL     1       2.745   6.902  18.684  0.00  0.00    +0.000 A 
ATOM      7  C   UNL     1       2.241   6.904  19.994  0.00  0.00    +0.000 A 
ATOM      8  C   UNL     1       1.525   8.004  20.474  0.00  0.00    +0.000 A 
ATOM      9  C   UNL     1       1.300   9.096  19.640  0.00  0.00    +0.000 A 
ATOM     10  C   UNL     1       1.783   9.078  18.334  0.00  0.00    +0.000 A 
ATOM     11  F   UNL     1       1.550  10.125  17.533  0.00  0.00    +0.000 F 
ATOM     12  C   UNL     1       2.501   7.991  17.842  0.00  0.00    +0.000 A 
ENDBRANCH   3   6
ENDBRANCH   1   4
BRANCH   1  13
ATOM     13  C   UNL     1       6.876   4.784  17.463  0.00  0.00    +0.000 C 
BRANCH  13  14
ATOM     14  C   UNL     1       6.628   4.529  16.003  0.00  0.00    +0.000 A 
ATOM     15  C   UNL     1       5.558   3.999  15.307  0.00  0.00    +0.000 A 
ATOM     16  C   UNL     1       5.884   4.085  13.932  0.00  0.00    +0.000 A 
ATOM     17  C   UNL     1       7.127   4.667  13.869  0.00  0.00    +0.000 A 
ATOM     18  O   UNL     1       7.584   4.945  15.115  0.00  0.00    +0.000 OA
ENDBRANCH  13  14
BRANCH  13  19
ATOM     19  N   UNL     1       7.345   6.157  17.695  0.00  0.00    +0.000 N 
ATOM     20  C   UNL     1       8.153   6.574  18.724  0.00  0.00    +0.000 A 
ATOM     21  C   UNL     1       8.305   7.933  18.580  0.00  0.00    +0.000 A 
ATOM     22  C   UNL     1       7.509   8.257  17.469  0.00  0.00    +0.000 A 
ATOM     23  N   UNL     1       6.906   7.188  16.941  0.00  0.00    +0.000 NA
ENDBRANCH  13  19
ENDBRANCH   1  13
TORSDOF 5
ENDMDL
MODEL 5
REMARK VINA RESULT:      -7.7      2.279      3.144
REMARK  Name = 
REMARK  5 active torsions:
REMARK  status: ('A' for Active; 'I' for Inactive)
REMARK    1  A    between atoms: C_2  and  C_16
REMARK    2  A    between atoms: N_3  and  C_4
REMARK    3  A    between atoms: C_4  and  C_5
REMARK    4  A    between atoms: C_5  and  C_6
REMARK    5  A    between atoms: C_5  and  N_11
REMARK                            x       y       z     vdW  Elec       q    Type
REMARK                         _______ _______ _______ _____ _____    ______ ____
ROOT
ATOM      1  C   UNL     1       4.991   3.815  15.814  0.00  0.00    +0.000 C 
ENDROOT
BRANCH   1   4
ATOM      2  O   UNL     1       2.374   3.138  16.613  0.00  0.00    +0.000 OA
ATOM      3  C   UNL     1       3.143   3.597  17.451  0.00  0.00    +0.000 C 
ATOM      4  N   UNL     1       4.434   3.969  17.159  0.00  0.00    +0.000 N 
ATOM      5  H   UNL     1       5.067   4.269  17.889  0.00  0.00    +0.000 HD
BRANCH   3   6
ATOM      6  C   UNL     1       2.708   3.741  18.865  0.00  0.00    +0.000 A 
ATOM      7  C   UNL     1       2.739   2.599  19.680  0.00  0.00    +0.000 A 
ATOM      8  C   UNL     1       2.357   2.679  21.022  0.00  0.00    +0.000 A 
ATOM      9  C   UNL     1       1.932   3.897  21.545  0.00  0.00    +0.000 A 
ATOM     10  C   UNL     1       1.882   5.021  20.724  0.00  0.00    +0.000 A 
ATOM     11  F   UNL     1       1.457   6.186  21.230  0.00  0.00    +0.000 F 
ATOM     12  C   UNL     1       2.262   4.958  19.386  0.00  0.00    +0.000 A 
ENDBRANCH   3   6
ENDBRANCH   1   4
BRANCH   1  13
ATOM     13  C   UNL     1       6.485   4.177  15.695  0.00  0.00    +0.000 C 
BRANCH  13  14
ATOM     14  C   UNL     1       6.913   4.426  14.276  0.00  0.00    +0.000 A 
ATOM     15  C   UNL     1       6.479   3.930  13.061  0.00  0.00    +0.000 A 
ATOM     16  C   UNL     1       7.222   4.601  12.060  0.00  0.00    +0.000 A 
ATOM     17  C   UNL     1       8.058   5.468  12.720  0.00  0.00    +0.000 A 
ATOM     18  O   UNL     1       7.876   5.375  14.061  0.00  0.00    +0.000 OA
ENDBRANCH  13  14
BRANCH  13  19
ATOM     19  N   UNL     1       6.824   5.313  16.563  0.00  0.00    +0.000 N 
ATOM     20  C   UNL     1       7.595   5.263  17.699  0.00  0.00    +0.000 A 
ATOM     21  C   UNL     1       7.617   6.537  18.217  0.00  0.00    +0.000 A 
ATOM     22  C   UNL     1       6.788   7.277  17.357  0.00  0.00    +0.000 A 
ATOM     23  N   UNL     1       6.285   6.536  16.365  0.00  0.00    +0.000 NA
ENDBRANCH  13  19
ENDBRANCH   1  13
TORSDOF 5
ENDMDL
MODEL 6
REMARK VINA RESULT:      -7.7      3.301      4.631
REMARK  Name = 
REMARK  5 active torsions:
REMARK  status: ('A' for Active; 'I' for Inactive)
REMARK    1  A    between atoms: C_2  and  C_16
REMARK    2  A    between atoms: N_3  and  C_4
REMARK    3  A    between atoms: C_4  and  C_5
REMARK    4  A    between atoms: C_5  and  C_6
REMARK    5  A    between atoms: C_5  and  N_11
REMARK                            x       y       z     vdW  Elec       q    Type
REMARK                         _______ _______ _______ _____ _____    ______ ____
ROOT
ATOM      1  C   UNL     1       5.248   3.443  16.072  0.00  0.00    +0.000 C 
ENDROOT
BRANCH   1   4
ATOM      2  O   UNL     1       2.459   3.453  16.486  0.00  0.00    +0.000 OA
ATOM      3  C   UNL     1       3.197   3.405  17.464  0.00  0.00    +0.000 C 
ATOM      4  N   UNL     1       4.569   3.408  17.369  0.00  0.00    +0.000 N 
ATOM      5  H   UNL     1       5.147   3.287  18.189  0.00  0.00    +0.000 HD
BRANCH   3   6
ATOM      6  C   UNL     1       2.621   3.305  18.830  0.00  0.00    +0.000 A 
ATOM      7  C   UNL     1       1.367   3.892  19.058  0.00  0.00    +0.000 A 
ATOM      8  C   UNL     1       0.769   3.814  20.319  0.00  0.00    +0.000 A 
ATOM      9  C   UNL     1       1.431   3.160  21.355  0.00  0.00    +0.000 A 
ATOM     10  C   UNL     1       2.685   2.600  21.127  0.00  0.00    +0.000 A 
ATOM     11  F   UNL     1       3.323   1.986  22.133  0.00  0.00    +0.000 F 
ATOM     12  C   UNL     1       3.293   2.667  19.877  0.00  0.00    +0.000 A 
ENDBRANCH   3   6
ENDBRANCH   1   4
BRANCH   1  13
ATOM     13  C   UNL     1       5.789   4.829  15.670  0.00  0.00    +0.000 C 
BRANCH  13  14
ATOM     14  C   UNL     1       6.634   5.457  16.742  0.00  0.00    +0.000 A 
ATOM     15  C   UNL     1       6.915   6.771  17.071  0.00  0.00    +0.000 A 
ATOM     16  C   UNL     1       7.720   6.734  18.236  0.00  0.00    +0.000 A 
ATOM     17  C   UNL     1       7.876   5.406  18.552  0.00  0.00    +0.000 A 
ATOM     18  O   UNL     1       7.219   4.626  17.659  0.00  0.00    +0.000 OA
ENDBRANCH  13  14
BRANCH  13  19
ATOM     19  N   UNL     1       6.509   4.763  14.391  0.00  0.00    +0.000 N 
ATOM     20  C   UNL     1       6.227   3.920  13.344  0.00  0.00    +0.000 A 
ATOM     21  C   UNL     1       7.170   4.166  12.374  0.00  0.00    +0.000 A 
ATOM     22  C   UNL     1       8.012   5.135  12.945  0.00  0.00    +0.000 A 
ATOM     23  N   UNL     1       7.631   5.485  14.176  0.00  0.00    +0.000 NA
ENDBRANCH  13  19
ENDBRANCH   1  13
TORSDOF 5
ENDMDL
MODEL 7
REMARK VINA RESULT:      -7.6      3.163      6.861
REMARK  Name = 
REMARK  5 active torsions:
REMARK  status: ('A' for Active; 'I' for Inactive)
REMARK    1  A    between atoms: C_2  and  C_16
REMARK    2  A    between atoms: N_3  and  C_4
REMARK    3  A    between atoms: C_4  and  C_5
REMARK    4  A    between atoms: C_5  and  C_6
REMARK    5  A    between atoms: C_5  and  N_11
REMARK                            x       y       z     vdW  Elec       q    Type
REMARK                         _______ _______ _______ _____ _____    ______ ____
ROOT
ATOM      1  C   UNL     1       6.085   4.876  18.326  0.00  0.00    +0.000 C 
ENDROOT
BRANCH   1   4
ATOM      2  O   UNL     1       7.443   6.334  16.331  0.00  0.00    +0.000 OA
ATOM      3  C   UNL     1       6.827   5.324  16.004  0.00  0.00    +0.000 C 
ATOM      4  N   UNL     1       6.124   4.553  16.899  0.00  0.00    +0.000 N 
ATOM      5  H   UNL     1       5.694   3.684  16.611  0.00  0.00    +0.000 HD
BRANCH   3   6
ATOM      6  C   UNL     1       6.846   4.862  14.592  0.00  0.00    +0.000 A 
ATOM      7  C   UNL     1       7.770   5.458  13.719  0.00  0.00    +0.000 A 
ATOM      8  C   UNL     1       7.844   5.052  12.384  0.00  0.00    +0.000 A 
ATOM      9  C   UNL     1       6.986   4.059  11.918  0.00  0.00    +0.000 A 
ATOM     10  C   UNL     1       6.056   3.489  12.784  0.00  0.00    +0.000 A 
ATOM     11  F   UNL     1       5.224   2.546  12.325  0.00  0.00    +0.000 F 
ATOM     12  C   UNL     1       5.972   3.881  14.117  0.00  0.00    +0.000 A 
ENDBRANCH   3   6
ENDBRANCH   1   4
BRANCH   1  13
ATOM     13  C   UNL     1       4.675   4.850  18.950  0.00  0.00    +0.000 C 
BRANCH  13  14
ATOM     14  C   UNL     1       3.887   6.096  18.660  0.00  0.00    +0.000 A 
ATOM     15  C   UNL     1       3.864   6.968  17.588  0.00  0.00    +0.000 A 
ATOM     16  C   UNL     1       2.852   7.920  17.860  0.00  0.00    +0.000 A 
ATOM     17  C   UNL     1       2.315   7.570  19.076  0.00  0.00    +0.000 A 
ATOM     18  O   UNL     1       2.929   6.465  19.565  0.00  0.00    +0.000 OA
ENDBRANCH  13  14
BRANCH  13  19
ATOM     19  N   UNL     1       3.940   3.644  18.542  0.00  0.00    +0.000 N 
ATOM     20  C   UNL     1       2.791   3.611  17.791  0.00  0.00    +0.000 A 
ATOM     21  C   UNL     1       2.427   2.289  17.685  0.00  0.00    +0.000 A 
ATOM     22  C   UNL     1       3.384   1.602  18.449  0.00  0.00    +0.000 A 
ATOM     23  N   UNL     1       4.292   2.420  18.991  0.00  0.00    +0.000 NA
ENDBRANCH  13  19
ENDBRANCH   1  13
TORSDOF 5
ENDMDL
MODEL 8
REMARK VINA RESULT:      -7.6      1.022      1.264
REMARK  Name = 
REMARK  5 active torsions:
REMARK  status: ('A' for Active; 'I' for Inactive)
REMARK    1  A    between atoms: C_2  and  C_16
REMARK    2  A    between atoms: N_3  and  C_4
REMARK    3  A    between atoms: C_4  and  C_5
REMARK    4  A    between atoms: C_5  and  C_6
REMARK    5  A    between atoms: C_5  and  N_11
REMARK                            x       y       z     vdW  Elec       q    Type
REMARK                         _______ _______ _______ _____ _____    ______ ____
ROOT
ATOM      1  C   UNL     1       4.894   4.063  16.464  0.00  0.00    +0.000 C 
ENDROOT
BRANCH   1   4
ATOM      2  O   UNL     1       3.063   4.108  18.608  0.00  0.00    +0.000 OA
ATOM      3  C   UNL     1       3.338   5.165  18.049  0.00  0.00    +0.000 C 
ATOM      4  N   UNL     1       4.208   5.246  16.987  0.00  0.00    +0.000 N 
ATOM      5  H   UNL     1       4.475   6.142  16.601  0.00  0.00    +0.000 HD
BRANCH   3   6
ATOM      6  C   UNL     1       2.751   6.441  18.533  0.00  0.00    +0.000 A 
ATOM      7  C   UNL     1       2.683   7.515  17.632  0.00  0.00    +0.000 A 
ATOM      8  C   UNL     1       2.126   8.734  18.027  0.00  0.00    +0.000 A 
ATOM      9  C   UNL     1       1.648   8.883  19.327  0.00  0.00    +0.000 A 
ATOM     10  C   UNL     1       1.739   7.820  20.222  0.00  0.00    +0.000 A 
ATOM     11  F   UNL     1       1.292   7.975  21.475  0.00  0.00    +0.000 F 
ATOM     12  C   UNL     1       2.290   6.598  19.843  0.00  0.00    +0.000 A 
ENDBRANCH   3   6
ENDBRANCH   1   4
BRANCH   1  13
ATOM     13  C   UNL     1       6.398   4.263  16.193  0.00  0.00    +0.000 C 
BRANCH  13  14
ATOM     14  C   UNL     1       6.716   4.368  14.728  0.00  0.00    +0.000 A 
ATOM     15  C   UNL     1       6.134   3.829  13.596  0.00  0.00    +0.000 A 
ATOM     16  C   UNL     1       6.839   4.355  12.486  0.00  0.00    +0.000 A 
ATOM     17  C   UNL     1       7.803   5.186  13.004  0.00  0.00    +0.000 A 
ATOM     18  O   UNL     1       7.734   5.206  14.358  0.00  0.00    +0.000 OA
ENDBRANCH  13  14
BRANCH  13  19
ATOM     19  N   UNL     1       6.920   5.416  16.938  0.00  0.00    +0.000 N 
ATOM     20  C   UNL     1       7.578   5.371  18.143  0.00  0.00    +0.000 A 
ATOM     21  C   UNL     1       7.849   6.673  18.493  0.00  0.00    +0.000 A 
ATOM     22  C   UNL     1       7.269   7.438  17.467  0.00  0.00    +0.000 A 
ATOM     23  N   UNL     1       6.685   6.683  16.532  0.00  0.00    +0.000 NA
ENDBRANCH  13  19
ENDBRANCH   1  13
TORSDOF 5
ENDMDL
MODEL 9
REMARK VINA RESULT:      -7.5      2.757      4.510
REMARK  Name = 
REMARK  5 active torsions:
REMARK  status: ('A' for Active; 'I' for Inactive)
REMARK    1  A    between atoms: C_2  and  C_16
REMARK    2  A    between atoms: N_3  and  C_4
REMARK    3  A    between atoms: C_4  and  C_5
REMARK    4  A    between atoms: C_5  and  C_6
REMARK    5  A    between atoms: C_5  and  N_11
REMARK                            x       y       z     vdW  Elec       q    Type
REMARK                         _______ _______ _______ _____ _____    ______ ____
ROOT
ATOM      1  C   UNL     1       4.466   6.855  16.718  0.00  0.00    +0.000 C 
ENDROOT
BRANCH   1   4
ATOM      2  O   UNL     1       2.599   7.263  18.791  0.00  0.00    +0.000 OA
ATOM      3  C   UNL     1       2.918   6.113  18.506  0.00  0.00    +0.000 C 
ATOM      4  N   UNL     1       3.828   5.811  17.521  0.00  0.00    +0.000 N 
ATOM      5  H   UNL     1       4.009   4.851  17.257  0.00  0.00    +0.000 HD
BRANCH   3   6
ATOM      6  C   UNL     1       2.288   4.967  19.211  0.00  0.00    +0.000 A 
ATOM      7  C   UNL     1       2.470   4.872  20.600  0.00  0.00    +0.000 A 
ATOM      8  C   UNL     1       1.887   3.824  21.318  0.00  0.00    +0.000 A 
ATOM      9  C   UNL     1       1.133   2.865  20.646  0.00  0.00    +0.000 A 
ATOM     10  C   UNL     1       0.976   2.954  19.265  0.00  0.00    +0.000 A 
ATOM     11  F   UNL     1       0.263   2.019  18.624  0.00  0.00    +0.000 F 
ATOM     12  C   UNL     1       1.548   3.992  18.536  0.00  0.00    +0.000 A 
ENDBRANCH   3   6
ENDBRANCH   1   4
BRANCH   1  13
ATOM     13  C   UNL     1       5.963   6.619  16.434  0.00  0.00    +0.000 C 
BRANCH  13  14
ATOM     14  C   UNL     1       6.738   6.250  17.667  0.00  0.00    +0.000 A 
ATOM     15  C   UNL     1       7.823   6.823  18.305  0.00  0.00    +0.000 A 
ATOM     16  C   UNL     1       8.059   6.057  19.472  0.00  0.00    +0.000 A 
ATOM     17  C   UNL     1       7.104   5.070  19.482  0.00  0.00    +0.000 A 
ATOM     18  O   UNL     1       6.296   5.180  18.398  0.00  0.00    +0.000 OA
ENDBRANCH  13  14
BRANCH  13  19
ATOM     19  N   UNL     1       6.147   5.625  15.368  0.00  0.00    +0.000 N 
ATOM     20  C   UNL     1       5.245   4.660  14.996  0.00  0.00    +0.000 A 
ATOM     21  C   UNL     1       5.841   3.928  13.995  0.00  0.00    +0.000 A 
ATOM     22  C   UNL     1       7.121   4.491  13.867  0.00  0.00    +0.000 A 
ATOM     23  N   UNL     1       7.323   5.506  14.712  0.00  0.00    +0.000 NA
ENDBRANCH  13  19
ENDBRANCH   1  13
TORSDOF 5
ENDMDL
