MODEL 1
REMARK VINA RESULT:      -8.4      0.000      0.000
REMARK  Name = 
REMARK  5 active torsions:
REMARK  status: ('A' for Active; 'I' for Inactive)
REMARK    1  A    between atoms: C_1  and  C_2
REMARK    2  A    between atoms: C_5  and  C_6
REMARK    3  A    between atoms: C_9  and  C_10
REMARK    4  A    between atoms: C_10  and  C_11
REMARK    5  A    between atoms: C_11  and  C_12
REMARK                            x       y       z     vdW  Elec       q    Type
REMARK                         _______ _______ _______ _____ _____    ______ ____
ROOT
ATOM      1  C   UNL     1       2.835   8.276  18.158  0.00  0.00    +0.000 C 
ENDROOT
BRANCH   1   2
ATOM      2  C   UNL     1       2.742   6.778  18.379  0.00  0.00    +0.000 A 
ATOM      3  C   UNL     1       3.396   5.959  17.461  0.00  0.00    +0.000 A 
ATOM      4  C   UNL     1       3.431   4.589  17.678  0.00  0.00    +0.000 A 
ATOM      5  C   UNL     1       2.814   4.053  18.810  0.00  0.00    +0.000 A 
ATOM      6  C   UNL     1       2.885   2.682  19.105  0.00  0.00    +0.000 A 
ATOM      7  F   UNL     1       3.571   1.856  18.298  0.00  0.00    +0.000 F 
ATOM      8  C   UNL     1       2.278   2.152  20.230  0.00  0.00    +0.000 A 
ATOM      9  C   UNL     1       1.567   3.009  21.049  0.00  0.00    +0.000 A 
ATOM     10  F   UNL     1       0.956   2.516  22.134  0.00  0.00    +0.000 F 
ATOM     11  C   UNL     1       1.483   4.375  20.773  0.00  0.00    +0.000 A 
ATOM     12  C   UNL     1       2.123   4.933  19.671  0.00  0.00    +0.000 A 
ATOM     13  N   UNL     1       2.090   6.272  19.456  0.00  0.00    +0.000 NA
ENDBRANCH   1   2
BRANCH   1  14
ATOM     14  C   UNL     1       1.555   9.015  17.769  0.00  0.00    +0.000 C 
BRANCH  14  23
ATOM     15  C   UNL     1      -0.266   9.398  22.966  0.00  0.00    +0.000 C 
ATOM     16  C   UNL     1      -0.084  10.626  22.121  0.00  0.00    +0.000 A 
ATOM     17  N   UNL     1      -0.361  11.802  22.620  0.00  0.00    +0.000 NA
ATOM     18  C   UNL     1      -0.181  12.909  21.811  0.00  0.00    +0.000 A 
ATOM     19  C   UNL     1       0.270  12.863  20.539  0.00  0.00    +0.000 A 
ATOM     20  C   UNL     1       0.457  14.078  19.690  0.00  0.00    +0.000 C 
ATOM     21  N   UNL     1       0.566  11.608  20.003  0.00  0.00    +0.000 N 
ATOM     22  N   UNL     1       1.028  11.235  18.780  0.00  0.00    +0.000 NA
ATOM     23  C   UNL     1       1.087   9.899  18.884  0.00  0.00    +0.000 A 
ATOM     24  N   UNL     1       0.723   9.394  20.109  0.00  0.00    +0.000 NA
ATOM     25  C   UNL     1       0.397  10.480  20.773  0.00  0.00    +0.000 A 
ENDBRANCH  14  23
ENDBRANCH   1  14
TORSDOF 3
ENDMDL
MODEL 2
REMARK VINA RESULT:      -8.2      3.995      7.764
REMARK  Name = 
REMARK  5 active torsions:
REMARK  status: ('A' for Active; 'I' for Inactive)
REMARK    1  A    between atoms: C_1  and  C_2
REMARK    2  A    between atoms: C_5  and  C_6
REMARK    3  A    between atoms: C_9  and  C_10
REMARK    4  A    between atoms: C_10  and  C_11
REMARK    5  A    between atoms: C_11  and  C_12
REMARK                            x       y       z     vdW  Elec       q    Type
REMARK                         _______ _______ _______ _____ _____    ______ ____
ROOT
ATOM      1  C   UNL     1       2.159   2.533  18.563  0.00  0.00    +0.000 C 
ENDROOT
BRANCH   1   2
ATOM      2  C   UNL     1       1.922   3.958  19.028  0.00  0.00    +0.000 A 
ATOM      3  C   UNL     1       1.631   4.145  20.378  0.00  0.00    +0.000 A 
ATOM      4  C   UNL     1       1.512   5.435  20.873  0.00  0.00    +0.000 A 
ATOM      5  C   UNL     1       1.687   6.523  20.015  0.00  0.00    +0.000 A 
ATOM      6  C   UNL     1       1.644   7.845  20.488  0.00  0.00    +0.000 A 
ATOM      7  F   UNL     1       1.447   8.085  21.795  0.00  0.00    +0.000 F 
ATOM      8  C   UNL     1       1.824   8.923  19.640  0.00  0.00    +0.000 A 
ATOM      9  C   UNL     1       2.017   8.666  18.295  0.00  0.00    +0.000 A 
ATOM     10  F   UNL     1       2.176   9.694  17.451  0.00  0.00    +0.000 F 
ATOM     11  C   UNL     1       2.062   7.359  17.804  0.00  0.00    +0.000 A 
ATOM     12  C   UNL     1       1.928   6.262  18.649  0.00  0.00    +0.000 A 
ATOM     13  N   UNL     1       2.043   5.000  18.166  0.00  0.00    +0.000 NA
ENDBRANCH   1   2
BRANCH   1  14
ATOM     14  C   UNL     1       3.589   1.996  18.625  0.00  0.00    +0.000 C 
BRANCH  14  23
ATOM     15  C   UNL     1       5.714   4.700  14.306  0.00  0.00    +0.000 C 
ATOM     16  C   UNL     1       6.199   4.974  15.701  0.00  0.00    +0.000 A 
ATOM     17  N   UNL     1       7.137   5.862  15.897  0.00  0.00    +0.000 NA
ATOM     18  C   UNL     1       7.557   6.086  17.196  0.00  0.00    +0.000 A 
ATOM     19  C   UNL     1       7.060   5.455  18.281  0.00  0.00    +0.000 A 
ATOM     20  C   UNL     1       7.533   5.720  19.673  0.00  0.00    +0.000 C 
ATOM     21  N   UNL     1       6.059   4.505  18.074  0.00  0.00    +0.000 N 
ATOM     22  N   UNL     1       5.370   3.717  18.942  0.00  0.00    +0.000 NA
ATOM     23  C   UNL     1       4.566   3.016  18.126  0.00  0.00    +0.000 A 
ATOM     24  N   UNL     1       4.674   3.331  16.793  0.00  0.00    +0.000 NA
ATOM     25  C   UNL     1       5.614   4.249  16.798  0.00  0.00    +0.000 A 
ENDBRANCH  14  23
ENDBRANCH   1  14
TORSDOF 3
ENDMDL
MODEL 3
REMARK VINA RESULT:      -8.2      0.647      2.007
REMARK  Name = 
REMARK  5 active torsions:
REMARK  status: ('A' for Active; 'I' for Inactive)
REMARK    1  A    between atoms: C_1  and  C_2
REMARK    2  A    between atoms: C_5  and  C_6
REMARK    3  A    between atoms: C_9  and  C_10
REMARK    4  A    between atoms: C_10  and  C_11
REMARK    5  A    between atoms: C_11  and  C_12
REMARK                            x       y       z     vdW  Elec       q    Type
REMARK                         _______ _______ _______ _____ _____    ______ ____
ROOT
ATOM      1  C   UNL     1       2.777   8.364  18.230  0.00  0.00    +0.000 C 
ENDROOT
BRANCH   1   2
ATOM      2  C   UNL     1       2.714   6.860  18.423  0.00  0.00    +0.000 A 
ATOM      3  C   UNL     1       3.377   6.071  17.486  0.00  0.00    +0.000 A 
ATOM      4  C   UNL     1       3.439   4.699  17.678  0.00  0.00    +0.000 A 
ATOM      5  C   UNL     1       2.839   4.130  18.804  0.00  0.00    +0.000 A 
ATOM      6  C   UNL     1       2.938   2.755  19.072  0.00  0.00    +0.000 A 
ATOM      7  F   UNL     1       3.634   1.957  18.246  0.00  0.00    +0.000 F 
ATOM      8  C   UNL     1       2.348   2.194  20.191  0.00  0.00    +0.000 A 
ATOM      9  C   UNL     1       1.627   3.022  21.031  0.00  0.00    +0.000 A 
ATOM     10  F   UNL     1       1.033   2.497  22.110  0.00  0.00    +0.000 F 
ATOM     11  C   UNL     1       1.516   4.391  20.781  0.00  0.00    +0.000 A 
ATOM     12  C   UNL     1       2.138   4.981  19.685  0.00  0.00    +0.000 A 
ATOM     13  N   UNL     1       2.078   6.323  19.496  0.00  0.00    +0.000 NA
ENDBRANCH   1   2
BRANCH   1  14
ATOM     14  C   UNL     1       1.504   9.073  17.771  0.00  0.00    +0.000 C 
BRANCH  14  23
ATOM     15  C   UNL     1      -0.525  13.951  19.375  0.00  0.00    +0.000 C 
ATOM     16  C   UNL     1      -0.435  12.800  20.336  0.00  0.00    +0.000 A 
ATOM     17  N   UNL     1      -0.840  12.953  21.569  0.00  0.00    +0.000 NA
ATOM     18  C   UNL     1      -0.741  11.871  22.425  0.00  0.00    +0.000 A 
ATOM     19  C   UNL     1      -0.260  10.659  22.073  0.00  0.00    +0.000 A 
ATOM     20  C   UNL     1      -0.167   9.507  23.019  0.00  0.00    +0.000 C 
ATOM     21  N   UNL     1       0.174  10.493  20.757  0.00  0.00    +0.000 N 
ATOM     22  N   UNL     1       0.698   9.418  20.108  0.00  0.00    +0.000 NA
ATOM     23  C   UNL     1       0.924   9.901  18.877  0.00  0.00    +0.000 A 
ATOM     24  N   UNL     1       0.547  11.209  18.687  0.00  0.00    +0.000 NA
ATOM     25  C   UNL     1       0.097  11.545  19.874  0.00  0.00    +0.000 A 
ENDBRANCH  14  23
ENDBRANCH   1  14
TORSDOF 3
ENDMDL
MODEL 4
REMARK VINA RESULT:      -8.2      3.870      8.186
REMARK  Name = 
REMARK  5 active torsions:
REMARK  status: ('A' for Active; 'I' for Inactive)
REMARK    1  A    between atoms: C_1  and  C_2
REMARK    2  A    between atoms: C_5  and  C_6
REMARK    3  A    between atoms: C_9  and  C_10
REMARK    4  A    between atoms: C_10  and  C_11
REMARK    5  A    between atoms: C_11  and  C_12
REMARK                            x       y       z     vdW  Elec       q    Type
REMARK                         _______ _______ _______ _____ _____    ______ ____
ROOT
ATOM      1  C   UNL     1       2.403   6.025  19.987  0.00  0.00    +0.000 C 
ENDROOT
BRANCH   1   2
ATOM      2  C   UNL     1       1.835   7.429  20.068  0.00  0.00    +0.000 A 
ATOM      3  C   UNL     1       1.911   8.212  18.918  0.00  0.00    +0.000 A 
ATOM      4  C   UNL     1       1.312   9.463  18.909  0.00  0.00    +0.000 A 
ATOM      5  C   UNL     1       0.642   9.917  20.048  0.00  0.00    +0.000 A 
ATOM      6  C   UNL     1      -0.037  11.146  20.058  0.00  0.00    +0.000 A 
ATOM      7  F   UNL     1      -0.066  11.908  18.952  0.00  0.00    +0.000 F 
ATOM      8  C   UNL     1      -0.705  11.593  21.184  0.00  0.00    +0.000 A 
ATOM      9  C   UNL     1      -0.662  10.806  22.321  0.00  0.00    +0.000 A 
ATOM     10  F   UNL     1      -1.287  11.227  23.428  0.00  0.00    +0.000 F 
ATOM     11  C   UNL     1       0.009   9.582  22.331  0.00  0.00    +0.000 A 
ATOM     12  C   UNL     1       0.649   9.096  21.195  0.00  0.00    +0.000 A 
ATOM     13  N   UNL     1       1.236   7.873  21.203  0.00  0.00    +0.000 NA
ENDBRANCH   1   2
BRANCH   1  14
ATOM     14  C   UNL     1       2.302   5.296  18.647  0.00  0.00    +0.000 C 
BRANCH  14  23
ATOM     15  C   UNL     1       7.781   5.505  19.289  0.00  0.00    +0.000 C 
ATOM     16  C   UNL     1       7.174   5.098  17.977  0.00  0.00    +0.000 A 
ATOM     17  N   UNL     1       7.951   4.790  16.972  0.00  0.00    +0.000 NA
ATOM     18  C   UNL     1       7.354   4.420  15.780  0.00  0.00    +0.000 A 
ATOM     19  C   UNL     1       6.020   4.347  15.581  0.00  0.00    +0.000 A 
ATOM     20  C   UNL     1       5.405   3.942  14.282  0.00  0.00    +0.000 C 
ATOM     21  N   UNL     1       5.189   4.676  16.653  0.00  0.00    +0.000 N 
ATOM     22  N   UNL     1       3.834   4.701  16.769  0.00  0.00    +0.000 NA
ATOM     23  C   UNL     1       3.656   5.115  18.033  0.00  0.00    +0.000 A 
ATOM     24  N   UNL     1       4.813   5.325  18.744  0.00  0.00    +0.000 NA
ATOM     25  C   UNL     1       5.740   5.053  17.855  0.00  0.00    +0.000 A 
ENDBRANCH  14  23
ENDBRANCH   1  14
TORSDOF 3
ENDMDL
MODEL 5
REMARK VINA RESULT:      -8.2      4.363      8.367
REMARK  Name = 
REMARK  5 active torsions:
REMARK  status: ('A' for Active; 'I' for Inactive)
REMARK    1  A    between atoms: C_1  and  C_2
REMARK    2  A    between atoms: C_5  and  C_6
REMARK    3  A    between atoms: C_9  and  C_10
REMARK    4  A    between atoms: C_10  and  C_11
REMARK    5  A    between atoms: C_11  and  C_12
REMARK                            x       y       z     vdW  Elec       q    Type
REMARK                         _______ _______ _______ _____ _____    ______ ____
ROOT
ATOM      1  C   UNL     1       1.442   9.566  18.968  0.00  0.00    +0.000 C 
ENDROOT
BRANCH   1   2
ATOM      2  C   UNL     1       0.012   9.992  18.693  0.00  0.00    +0.000 A 
ATOM      3  C   UNL     1      -0.626  10.747  19.675  0.00  0.00    +0.000 A 
ATOM      4  C   UNL     1      -1.894  11.251  19.425  0.00  0.00    +0.000 A 
ATOM      5  C   UNL     1      -2.510  10.995  18.198  0.00  0.00    +0.000 A 
ATOM      6  C   UNL     1      -3.763  11.543  17.878  0.00  0.00    +0.000 A 
ATOM      7  F   UNL     1      -4.389  12.345  18.754  0.00  0.00    +0.000 F 
ATOM      8  C   UNL     1      -4.370  11.295  16.660  0.00  0.00    +0.000 A 
ATOM      9  C   UNL     1      -3.721  10.460  15.768  0.00  0.00    +0.000 A 
ATOM     10  F   UNL     1      -4.298  10.192  14.590  0.00  0.00    +0.000 F 
ATOM     11  C   UNL     1      -2.476   9.905  16.068  0.00  0.00    +0.000 A 
ATOM     12  C   UNL     1      -1.830  10.179  17.270  0.00  0.00    +0.000 A 
ATOM     13  N   UNL     1      -0.590   9.687  17.515  0.00  0.00    +0.000 NA
ENDBRANCH   1   2
BRANCH   1  14
ATOM     14  C   UNL     1       2.244   8.983  17.805  0.00  0.00    +0.000 C 
BRANCH  14  23
ATOM     15  C   UNL     1       5.609   4.807  16.494  0.00  0.00    +0.000 C 
ATOM     16  C   UNL     1       4.717   4.729  17.700  0.00  0.00    +0.000 A 
ATOM     17  N   UNL     1       4.735   3.659  18.450  0.00  0.00    +0.000 NA
ATOM     18  C   UNL     1       3.900   3.624  19.553  0.00  0.00    +0.000 A 
ATOM     19  C   UNL     1       3.068   4.624  19.915  0.00  0.00    +0.000 A 
ATOM     20  C   UNL     1       2.179   4.558  21.113  0.00  0.00    +0.000 C 
ATOM     21  N   UNL     1       3.047   5.768  19.115  0.00  0.00    +0.000 N 
ATOM     22  N   UNL     1       2.334   6.923  19.211  0.00  0.00    +0.000 NA
ATOM     23  C   UNL     1       2.749   7.613  18.137  0.00  0.00    +0.000 A 
ATOM     24  N   UNL     1       3.707   6.985  17.378  0.00  0.00    +0.000 NA
ATOM     25  C   UNL     1       3.859   5.843  18.008  0.00  0.00    +0.000 A 
ENDBRANCH  14  23
ENDBRANCH   1  14
TORSDOF 3
ENDMDL
MODEL 6
REMARK VINA RESULT:      -8.1      1.099      2.174
REMARK  Name = 
REMARK  5 active torsions:
REMARK  status: ('A' for Active; 'I' for Inactive)
REMARK    1  A    between atoms: C_1  and  C_2
REMARK    2  A    between atoms: C_5  and  C_6
REMARK    3  A    between atoms: C_9  and  C_10
REMARK    4  A    between atoms: C_10  and  C_11
REMARK    5  A    between atoms: C_11  and  C_12
REMARK                            x       y       z     vdW  Elec       q    Type
REMARK                         _______ _______ _______ _____ _____    ______ ____
ROOT
ATOM      1  C   UNL     1       2.782   8.218  18.045  0.00  0.00    +0.000 C 
ENDROOT
BRANCH   1   2
ATOM      2  C   UNL     1       2.679   6.857  18.707  0.00  0.00    +0.000 A 
ATOM      3  C   UNL     1       2.029   6.797  19.937  0.00  0.00    +0.000 A 
ATOM      4  C   UNL     1       1.815   5.561  20.531  0.00  0.00    +0.000 A 
ATOM      5  C   UNL     1       2.252   4.401  19.889  0.00  0.00    +0.000 A 
ATOM      6  C   UNL     1       1.995   3.127  20.421  0.00  0.00    +0.000 A 
ATOM      7  F   UNL     1       1.301   3.004  21.565  0.00  0.00    +0.000 F 
ATOM      8  C   UNL     1       2.422   1.977  19.782  0.00  0.00    +0.000 A 
ATOM      9  C   UNL     1       3.143   2.115  18.609  0.00  0.00    +0.000 A 
ATOM     10  F   UNL     1       3.583   1.016  17.982  0.00  0.00    +0.000 F 
ATOM     11  C   UNL     1       3.410   3.372  18.065  0.00  0.00    +0.000 A 
ATOM     12  C   UNL     1       2.951   4.538  18.671  0.00  0.00    +0.000 A 
ATOM     13  N   UNL     1       3.159   5.746  18.091  0.00  0.00    +0.000 NA
ENDBRANCH   1   2
BRANCH   1  14
ATOM     14  C   UNL     1       1.480   8.958  17.741  0.00  0.00    +0.000 C 
BRANCH  14  23
ATOM     15  C   UNL     1      -0.694  10.995  22.389  0.00  0.00    +0.000 C 
ATOM     16  C   UNL     1       0.147  11.856  21.490  0.00  0.00    +0.000 A 
ATOM     17  N   UNL     1       0.367  13.104  21.810  0.00  0.00    +0.000 NA
ATOM     18  C   UNL     1       1.147  13.864  20.956  0.00  0.00    +0.000 A 
ATOM     19  C   UNL     1       1.704  13.405  19.815  0.00  0.00    +0.000 A 
ATOM     20  C   UNL     1       2.544  14.251  18.914  0.00  0.00    +0.000 C 
ATOM     21  N   UNL     1       1.470  12.073  19.472  0.00  0.00    +0.000 N 
ATOM     22  N   UNL     1       1.882  11.329  18.411  0.00  0.00    +0.000 NA
ATOM     23  C   UNL     1       1.310  10.138  18.648  0.00  0.00    +0.000 A 
ATOM     24  N   UNL     1       0.585  10.064  19.813  0.00  0.00    +0.000 NA
ATOM     25  C   UNL     1       0.698  11.282  20.291  0.00  0.00    +0.000 A 
ENDBRANCH  14  23
ENDBRANCH   1  14
TORSDOF 3
ENDMDL
MODEL 7
REMARK VINA RESULT:      -8.1      1.052      1.135
REMARK  Name = 
REMARK  5 active torsions:
REMARK  status: ('A' for Active; 'I' for Inactive)
REMARK    1  A    between atoms: C_1  and  C_2
REMARK    2  A    between atoms: C_5  and  C_6
REMARK    3  A    between atoms: C_9  and  C_10
REMARK    4  A    between atoms: C_10  and  C_11
REMARK    5  A    between atoms: C_11  and  C_12
REMARK                            x       y       z     vdW  Elec       q    Type
REMARK                         _______ _______ _______ _____ _____    ______ ____
ROOT
ATOM      1  C   UNL     1       2.738   8.351  17.831  0.00  0.00    +0.000 C 
ENDROOT
BRANCH   1   2
ATOM      2  C   UNL     1       2.935   6.931  18.327  0.00  0.00    +0.000 A 
ATOM      3  C   UNL     1       4.083   6.264  17.904  0.00  0.00    +0.000 A 
ATOM      4  C   UNL     1       4.362   5.004  18.414  0.00  0.00    +0.000 A 
ATOM      5  C   UNL     1       3.492   4.426  19.340  0.00  0.00    +0.000 A 
ATOM      6  C   UNL     1       3.772   3.184  19.933  0.00  0.00    +0.000 A 
ATOM      7  F   UNL     1       4.905   2.532  19.624  0.00  0.00    +0.000 F 
ATOM      8  C   UNL     1       2.913   2.614  20.856  0.00  0.00    +0.000 A 
ATOM      9  C   UNL     1       1.745   3.289  21.161  0.00  0.00    +0.000 A 
ATOM     10  F   UNL     1       0.890   2.748  22.039  0.00  0.00    +0.000 F 
ATOM     11  C   UNL     1       1.448   4.524  20.582  0.00  0.00    +0.000 A 
ATOM     12  C   UNL     1       2.320   5.133  19.685  0.00  0.00    +0.000 A 
ATOM     13  N   UNL     1       2.049   6.365  19.185  0.00  0.00    +0.000 NA
ENDBRANCH   1   2
BRANCH   1  14
ATOM     14  C   UNL     1       1.314   8.905  17.814  0.00  0.00    +0.000 C 
BRANCH  14  23
ATOM     15  C   UNL     1      -0.820  11.005  22.452  0.00  0.00    +0.000 C 
ATOM     16  C   UNL     1       0.069  11.833  21.570  0.00  0.00    +0.000 A 
ATOM     17  N   UNL     1       0.341  13.068  21.901  0.00  0.00    +0.000 NA
ATOM     18  C   UNL     1       1.164  13.799  21.063  0.00  0.00    +0.000 A 
ATOM     19  C   UNL     1       1.714  13.323  19.925  0.00  0.00    +0.000 A 
ATOM     20  C   UNL     1       2.602  14.136  19.040  0.00  0.00    +0.000 C 
ATOM     21  N   UNL     1       1.424  12.005  19.568  0.00  0.00    +0.000 N 
ATOM     22  N   UNL     1       1.815  11.250  18.507  0.00  0.00    +0.000 NA
ATOM     23  C   UNL     1       1.187  10.085  18.728  0.00  0.00    +0.000 A 
ATOM     24  N   UNL     1       0.445  10.035  19.884  0.00  0.00    +0.000 NA
ATOM     25  C   UNL     1       0.607  11.244  20.372  0.00  0.00    +0.000 A 
ENDBRANCH  14  23
ENDBRANCH   1  14
TORSDOF 3
ENDMDL
MODEL 8
REMARK VINA RESULT:      -8.1      2.627      3.704
REMARK  Name = 
REMARK  5 active torsions:
REMARK  status: ('A' for Active; 'I' for Inactive)
REMARK    1  A    between atoms: C_1  and  C_2
REMARK    2  A    between atoms: C_5  and  C_6
REMARK    3  A    between atoms: C_9  and  C_10
REMARK    4  A    between atoms: C_10  and  C_11
REMARK    5  A    between atoms: C_11  and  C_12
REMARK                            x       y       z     vdW  Elec       q    Type
REMARK                         _______ _______ _______ _____ _____    ______ ____
ROOT
ATOM      1  C   UNL     1       1.898   8.933  18.233  0.00  0.00    +0.000 C 
ENDROOT
BRANCH   1   2
ATOM      2  C   UNL     1       2.016   7.526  18.788  0.00  0.00    +0.000 A 
ATOM      3  C   UNL     1       1.840   7.369  20.161  0.00  0.00    +0.000 A 
ATOM      4  C   UNL     1       1.832   6.091  20.702  0.00  0.00    +0.000 A 
ATOM      5  C   UNL     1       1.998   4.986  19.865  0.00  0.00    +0.000 A 
ATOM      6  C   UNL     1       1.927   3.674  20.360  0.00  0.00    +0.000 A 
ATOM      7  F   UNL     1       1.679   3.460  21.663  0.00  0.00    +0.000 F 
ATOM      8  C   UNL     1       2.086   2.578  19.530  0.00  0.00    +0.000 A 
ATOM      9  C   UNL     1       2.349   2.809  18.192  0.00  0.00    +0.000 A 
ATOM     10  F   UNL     1       2.524   1.765  17.373  0.00  0.00    +0.000 F 
ATOM     11  C   UNL     1       2.425   4.106  17.681  0.00  0.00    +0.000 A 
ATOM     12  C   UNL     1       2.225   5.219  18.492  0.00  0.00    +0.000 A 
ATOM     13  N   UNL     1       2.233   6.469  17.965  0.00  0.00    +0.000 NA
ENDBRANCH   1   2
BRANCH   1  14
ATOM     14  C   UNL     1       1.377  10.023  19.169  0.00  0.00    +0.000 C 
BRANCH  14  23
ATOM     15  C   UNL     1      -2.779   9.673  15.552  0.00  0.00    +0.000 C 
ATOM     16  C   UNL     1      -2.923  10.471  16.815  0.00  0.00    +0.000 A 
ATOM     17  N   UNL     1      -4.045  11.093  17.064  0.00  0.00    +0.000 NA
ATOM     18  C   UNL     1      -4.139  11.819  18.238  0.00  0.00    +0.000 A 
ATOM     19  C   UNL     1      -3.152  11.924  19.154  0.00  0.00    +0.000 A 
ATOM     20  C   UNL     1      -3.285  12.714  20.415  0.00  0.00    +0.000 C 
ATOM     21  N   UNL     1      -1.952  11.261  18.891  0.00  0.00    +0.000 N 
ATOM     22  N   UNL     1      -0.795  11.175  19.600  0.00  0.00    +0.000 NA
ATOM     23  C   UNL     1      -0.023  10.413  18.808  0.00  0.00    +0.000 A 
ATOM     24  N   UNL     1      -0.626   9.979  17.652  0.00  0.00    +0.000 NA
ATOM     25  C   UNL     1      -1.815  10.531  17.733  0.00  0.00    +0.000 A 
ENDBRANCH  14  23
ENDBRANCH   1  14
TORSDOF 3
ENDMDL
MODEL 9
REMARK VINA RESULT:      -8.1      4.234      8.184
REMARK  Name = 
REMARK  5 active torsions:
REMARK  status: ('A' for Active; 'I' for Inactive)
REMARK    1  A    between atoms: C_1  and  C_2
REMARK    2  A    between atoms: C_5  and  C_6
REMARK    3  A    between atoms: C_9  and  C_10
REMARK    4  A    between atoms: C_10  and  C_11
REMARK    5  A    between atoms: C_11  and  C_12
REMARK                            x       y       z     vdW  Elec       q    Type
REMARK                         _______ _______ _______ _____ _____    ______ ____
ROOT
ATOM      1  C   UNL     1       1.765   9.414  18.880  0.00  0.00    +0.000 C 
ENDROOT
BRANCH   1   2
ATOM      2  C   UNL     1       0.335   9.901  18.741  0.00  0.00    +0.000 A 
ATOM      3  C   UNL     1      -0.185  10.652  19.793  0.00  0.00    +0.000 A 
ATOM      4  C   UNL     1      -1.450  11.209  19.668  0.00  0.00    +0.000 A 
ATOM      5  C   UNL     1      -2.179  11.011  18.493  0.00  0.00    +0.000 A 
ATOM      6  C   UNL     1      -3.432  11.615  18.297  0.00  0.00    +0.000 A 
ATOM      7  F   UNL     1      -3.948  12.415  19.245  0.00  0.00    +0.000 F 
ATOM      8  C   UNL     1      -4.151  11.423  17.131  0.00  0.00    +0.000 A 
ATOM      9  C   UNL     1      -3.615  10.591  16.166  0.00  0.00    +0.000 A 
ATOM     10  F   UNL     1      -4.302  10.377  15.036  0.00  0.00    +0.000 F 
ATOM     11  C   UNL     1      -2.372   9.981  16.342  0.00  0.00    +0.000 A 
ATOM     12  C   UNL     1      -1.614  10.196  17.489  0.00  0.00    +0.000 A 
ATOM     13  N   UNL     1      -0.378   9.651  17.613  0.00  0.00    +0.000 NA
ENDBRANCH   1   2
BRANCH   1  14
ATOM     14  C   UNL     1       2.355   8.608  17.723  0.00  0.00    +0.000 C 
BRANCH  14  23
ATOM     15  C   UNL     1       1.411   4.103  20.771  0.00  0.00    +0.000 C 
ATOM     16  C   UNL     1       2.676   4.243  19.974  0.00  0.00    +0.000 A 
ATOM     17  N   UNL     1       3.567   3.287  20.002  0.00  0.00    +0.000 NA
ATOM     18  C   UNL     1       4.720   3.453  19.254  0.00  0.00    +0.000 A 
ATOM     19  C   UNL     1       4.988   4.533  18.489  0.00  0.00    +0.000 A 
ATOM     20  C   UNL     1       6.241   4.682  17.690  0.00  0.00    +0.000 C 
ATOM     21  N   UNL     1       4.038   5.555  18.458  0.00  0.00    +0.000 N 
ATOM     22  N   UNL     1       4.013   6.744  17.799  0.00  0.00    +0.000 NA
ATOM     23  C   UNL     1       2.845   7.274  18.196  0.00  0.00    +0.000 A 
ATOM     24  N   UNL     1       2.106   6.484  19.042  0.00  0.00    +0.000 NA
ATOM     25  C   UNL     1       2.879   5.432  19.190  0.00  0.00    +0.000 A 
ENDBRANCH  14  23
ENDBRANCH   1  14
TORSDOF 3
ENDMDL
