MODEL 1
REMARK VINA RESULT:      -8.3      0.000      0.000
REMARK  Name = 
REMARK  3 active torsions:
REMARK  status: ('A' for Active; 'I' for Inactive)
REMARK    1  A    between atoms: N_6  and  N_7
REMARK    2  A    between atoms: C_8  and  C_9
REMARK    3  A    between atoms: C_8  and  C_15
REMARK                            x       y       z     vdW  Elec       q    Type
REMARK                         _______ _______ _______ _____ _____    ______ ____
ROOT
ATOM      1  N   UNL     1       4.024   6.739  19.032  0.00  0.00    +0.000 NA
ATOM      2  C   UNL     1       2.772   6.528  19.362  0.00  0.00    +0.000 C 
ENDROOT
BRANCH   1   8
ATOM      3  O   UNL     1       6.763   4.638  13.852  0.00  0.00    +0.000 OA
ATOM      4  C   UNL     1       6.309   4.884  14.958  0.00  0.00    +0.000 C 
ATOM      5  C   UNL     1       5.442   6.053  15.191  0.00  0.00    +0.000 C 
ATOM      6  C   UNL     1       4.940   6.326  16.401  0.00  0.00    +0.000 C 
ATOM      7  C   UNL     1       5.209   5.448  17.565  0.00  0.00    +0.000 C 
ATOM      8  N   UNL     1       4.761   5.596  18.772  0.00  0.00    +0.000 NA
ATOM      9  C   UNL     1       6.095   4.278  17.316  0.00  0.00    +0.000 C 
ATOM     10  C   UNL     1       6.607   4.016  16.114  0.00  0.00    +0.000 C 
ENDBRANCH   1   8
BRANCH   2  11
ATOM     11  C   UNL     1       2.114   5.166  19.474  0.00  0.00    +0.000 A 
ATOM     12  C   UNL     1       1.855   4.578  20.720  0.00  0.00    +0.000 A 
ATOM     13  C   UNL     1       1.293   3.302  20.810  0.00  0.00    +0.000 A 
ATOM     14  C   UNL     1       0.911   2.628  19.655  0.00  0.00    +0.000 A 
ATOM     15  C   UNL     1       1.116   3.216  18.410  0.00  0.00    +0.000 A 
ATOM     16  C   UNL     1       1.744   4.462  18.317  0.00  0.00    +0.000 A 
ENDBRANCH   2  11
BRANCH   2  17
ATOM     17  C   UNL     1       1.928   7.748  19.639  0.00  0.00    +0.000 A 
ATOM     18  C   UNL     1       1.709   8.686  18.620  0.00  0.00    +0.000 A 
ATOM     19  C   UNL     1       0.928   9.821  18.861  0.00  0.00    +0.000 A 
ATOM     20  C   UNL     1       0.354  10.022  20.116  0.00  0.00    +0.000 A 
ATOM     21  C   UNL     1       0.563   9.095  21.134  0.00  0.00    +0.000 A 
ATOM     22  C   UNL     1       1.362   7.973  20.903  0.00  0.00    +0.000 A 
ENDBRANCH   2  17
TORSDOF 3
ENDMDL
MODEL 2
REMARK VINA RESULT:      -8.3      0.094      1.030
REMARK  Name = 
REMARK  3 active torsions:
REMARK  status: ('A' for Active; 'I' for Inactive)
REMARK    1  A    between atoms: N_6  and  N_7
REMARK    2  A    between atoms: C_8  and  C_9
REMARK    3  A    between atoms: C_8  and  C_15
REMARK                            x       y       z     vdW  Elec       q    Type
REMARK                         _______ _______ _______ _____ _____    ______ ____
ROOT
ATOM      1  N   UNL     1       4.043   6.725  18.941  0.00  0.00    +0.000 NA
ATOM      2  C   UNL     1       2.802   6.513  19.305  0.00  0.00    +0.000 C 
ENDROOT
BRANCH   1   8
ATOM      3  O   UNL     1       6.779   4.585  13.776  0.00  0.00    +0.000 OA
ATOM      4  C   UNL     1       6.327   4.839  14.880  0.00  0.00    +0.000 C 
ATOM      5  C   UNL     1       5.457   6.008  15.104  0.00  0.00    +0.000 C 
ATOM      6  C   UNL     1       4.957   6.291  16.312  0.00  0.00    +0.000 C 
ATOM      7  C   UNL     1       5.229   5.424  17.483  0.00  0.00    +0.000 C 
ATOM      8  N   UNL     1       4.782   5.581  18.690  0.00  0.00    +0.000 NA
ATOM      9  C   UNL     1       6.117   4.254  17.244  0.00  0.00    +0.000 C 
ATOM     10  C   UNL     1       6.628   3.982  16.043  0.00  0.00    +0.000 C 
ENDBRANCH   1   8
BRANCH   2  11
ATOM     11  C   UNL     1       2.155   5.150  19.462  0.00  0.00    +0.000 A 
ATOM     12  C   UNL     1       1.711   4.417  18.353  0.00  0.00    +0.000 A 
ATOM     13  C   UNL     1       1.072   3.185  18.514  0.00  0.00    +0.000 A 
ATOM     14  C   UNL     1       0.939   2.633  19.784  0.00  0.00    +0.000 A 
ATOM     15  C   UNL     1       1.417   3.323  20.894  0.00  0.00    +0.000 A 
ATOM     16  C   UNL     1       1.991   4.589  20.739  0.00  0.00    +0.000 A 
ENDBRANCH   2  11
BRANCH   2  17
ATOM     17  C   UNL     1       1.955   7.734  19.573  0.00  0.00    +0.000 A 
ATOM     18  C   UNL     1       1.730   8.662  18.547  0.00  0.00    +0.000 A 
ATOM     19  C   UNL     1       0.948   9.797  18.781  0.00  0.00    +0.000 A 
ATOM     20  C   UNL     1       0.377  10.008  20.035  0.00  0.00    +0.000 A 
ATOM     21  C   UNL     1       0.592   9.091  21.061  0.00  0.00    +0.000 A 
ATOM     22  C   UNL     1       1.393   7.969  20.837  0.00  0.00    +0.000 A 
ENDBRANCH   2  17
TORSDOF 3
ENDMDL
MODEL 3
REMARK VINA RESULT:      -8.2      0.036      1.030
REMARK  Name = 
REMARK  3 active torsions:
REMARK  status: ('A' for Active; 'I' for Inactive)
REMARK    1  A    between atoms: N_6  and  N_7
REMARK    2  A    between atoms: C_8  and  C_9
REMARK    3  A    between atoms: C_8  and  C_15
REMARK                            x       y       z     vdW  Elec       q    Type
REMARK                         _______ _______ _______ _____ _____    ______ ____
ROOT
ATOM      1  N   UNL     1       4.028   6.732  19.027  0.00  0.00    +0.000 NA
ATOM      2  C   UNL     1       2.777   6.519  19.359  0.00  0.00    +0.000 C 
ENDROOT
BRANCH   1   8
ATOM      3  O   UNL     1       6.770   4.635  13.847  0.00  0.00    +0.000 OA
ATOM      4  C   UNL     1       6.316   4.880  14.953  0.00  0.00    +0.000 C 
ATOM      5  C   UNL     1       5.448   6.048  15.186  0.00  0.00    +0.000 C 
ATOM      6  C   UNL     1       4.946   6.320  16.396  0.00  0.00    +0.000 C 
ATOM      7  C   UNL     1       5.214   5.442  17.559  0.00  0.00    +0.000 C 
ATOM      8  N   UNL     1       4.765   5.589  18.766  0.00  0.00    +0.000 NA
ATOM      9  C   UNL     1       6.101   4.272  17.310  0.00  0.00    +0.000 C 
ATOM     10  C   UNL     1       6.613   4.011  16.108  0.00  0.00    +0.000 C 
ENDBRANCH   1   8
BRANCH   2  11
ATOM     11  C   UNL     1       2.119   5.157  19.472  0.00  0.00    +0.000 A 
ATOM     12  C   UNL     1       1.899   4.551  20.716  0.00  0.00    +0.000 A 
ATOM     13  C   UNL     1       1.337   3.275  20.806  0.00  0.00    +0.000 A 
ATOM     14  C   UNL     1       0.918   2.619  19.654  0.00  0.00    +0.000 A 
ATOM     15  C   UNL     1       1.085   3.224  18.411  0.00  0.00    +0.000 A 
ATOM     16  C   UNL     1       1.712   4.471  18.317  0.00  0.00    +0.000 A 
ENDBRANCH   2  11
BRANCH   2  17
ATOM     17  C   UNL     1       1.932   7.739  19.636  0.00  0.00    +0.000 A 
ATOM     18  C   UNL     1       1.374   7.922  20.910  0.00  0.00    +0.000 A 
ATOM     19  C   UNL     1       0.590   9.047  21.181  0.00  0.00    +0.000 A 
ATOM     20  C   UNL     1       0.366  10.001  20.190  0.00  0.00    +0.000 A 
ATOM     21  C   UNL     1       0.918   9.831  18.922  0.00  0.00    +0.000 A 
ATOM     22  C   UNL     1       1.681   8.695  18.641  0.00  0.00    +0.000 A 
ENDBRANCH   2  17
TORSDOF 3
ENDMDL
MODEL 4
REMARK VINA RESULT:      -8.2      3.140      7.195
REMARK  Name = 
REMARK  3 active torsions:
REMARK  status: ('A' for Active; 'I' for Inactive)
REMARK    1  A    between atoms: N_6  and  N_7
REMARK    2  A    between atoms: C_8  and  C_9
REMARK    3  A    between atoms: C_8  and  C_15
REMARK                            x       y       z     vdW  Elec       q    Type
REMARK                         _______ _______ _______ _____ _____    ______ ____
ROOT
ATOM      1  N   UNL     1       4.196   5.203  16.477  0.00  0.00    +0.000 NA
ATOM      2  C   UNL     1       5.472   5.348  16.210  0.00  0.00    +0.000 C 
ENDROOT
BRANCH   1   8
ATOM      3  O   UNL     1       1.097   2.576  21.193  0.00  0.00    +0.000 OA
ATOM      4  C   UNL     1       1.719   3.255  20.393  0.00  0.00    +0.000 C 
ATOM      5  C   UNL     1       2.043   2.753  19.045  0.00  0.00    +0.000 C 
ATOM      6  C   UNL     1       2.723   3.494  18.164  0.00  0.00    +0.000 C 
ATOM      7  C   UNL     1       3.160   4.873  18.487  0.00  0.00    +0.000 C 
ATOM      8  N   UNL     1       3.799   5.691  17.711  0.00  0.00    +0.000 NA
ATOM      9  C   UNL     1       2.835   5.362  19.856  0.00  0.00    +0.000 C 
ATOM     10  C   UNL     1       2.171   4.617  20.739  0.00  0.00    +0.000 C 
ENDBRANCH   1   8
BRANCH   2  11
ATOM     11  C   UNL     1       6.494   5.985  17.132  0.00  0.00    +0.000 A 
ATOM     12  C   UNL     1       7.130   5.249  18.141  0.00  0.00    +0.000 A 
ATOM     13  C   UNL     1       8.033   5.858  19.015  0.00  0.00    +0.000 A 
ATOM     14  C   UNL     1       8.370   7.197  18.844  0.00  0.00    +0.000 A 
ATOM     15  C   UNL     1       7.784   7.933  17.818  0.00  0.00    +0.000 A 
ATOM     16  C   UNL     1       6.827   7.341  16.988  0.00  0.00    +0.000 A 
ENDBRANCH   2  11
BRANCH   2  17
ATOM     17  C   UNL     1       5.945   4.844  14.868  0.00  0.00    +0.000 A 
ATOM     18  C   UNL     1       7.184   5.268  14.365  0.00  0.00    +0.000 A 
ATOM     19  C   UNL     1       7.636   4.810  13.124  0.00  0.00    +0.000 A 
ATOM     20  C   UNL     1       6.861   3.919  12.381  0.00  0.00    +0.000 A 
ATOM     21  C   UNL     1       5.631   3.490  12.873  0.00  0.00    +0.000 A 
ATOM     22  C   UNL     1       5.166   3.965  14.101  0.00  0.00    +0.000 A 
ENDBRANCH   2  17
TORSDOF 3
ENDMDL
MODEL 5
REMARK VINA RESULT:      -8.2      0.080      1.455
REMARK  Name = 
REMARK  3 active torsions:
REMARK  status: ('A' for Active; 'I' for Inactive)
REMARK    1  A    between atoms: N_6  and  N_7
REMARK    2  A    between atoms: C_8  and  C_9
REMARK    3  A    between atoms: C_8  and  C_15
REMARK                            x       y       z     vdW  Elec       q    Type
REMARK                         _______ _______ _______ _____ _____    ______ ____
ROOT
ATOM      1  N   UNL     1       4.030   6.731  18.968  0.00  0.00    +0.000 NA
ATOM      2  C   UNL     1       2.790   6.514  19.333  0.00  0.00    +0.000 C 
ENDROOT
BRANCH   1   8
ATOM      3  O   UNL     1       6.782   4.633  13.794  0.00  0.00    +0.000 OA
ATOM      4  C   UNL     1       6.327   4.878  14.899  0.00  0.00    +0.000 C 
ATOM      5  C   UNL     1       5.455   6.045  15.130  0.00  0.00    +0.000 C 
ATOM      6  C   UNL     1       4.951   6.317  16.338  0.00  0.00    +0.000 C 
ATOM      7  C   UNL     1       5.221   5.442  17.504  0.00  0.00    +0.000 C 
ATOM      8  N   UNL     1       4.771   5.590  18.710  0.00  0.00    +0.000 NA
ATOM      9  C   UNL     1       6.111   4.275  17.258  0.00  0.00    +0.000 C 
ATOM     10  C   UNL     1       6.626   4.012  16.057  0.00  0.00    +0.000 C 
ENDBRANCH   1   8
BRANCH   2  11
ATOM     11  C   UNL     1       2.147   5.149  19.486  0.00  0.00    +0.000 A 
ATOM     12  C   UNL     1       1.708   4.417  18.374  0.00  0.00    +0.000 A 
ATOM     13  C   UNL     1       1.073   3.183  18.531  0.00  0.00    +0.000 A 
ATOM     14  C   UNL     1       0.936   2.628  19.799  0.00  0.00    +0.000 A 
ATOM     15  C   UNL     1       1.408   3.318  20.912  0.00  0.00    +0.000 A 
ATOM     16  C   UNL     1       1.980   4.586  20.761  0.00  0.00    +0.000 A 
ENDBRANCH   2  11
BRANCH   2  17
ATOM     17  C   UNL     1       1.941   7.732  19.609  0.00  0.00    +0.000 A 
ATOM     18  C   UNL     1       1.361   7.901  20.875  0.00  0.00    +0.000 A 
ATOM     19  C   UNL     1       0.573   9.024  21.145  0.00  0.00    +0.000 A 
ATOM     20  C   UNL     1       0.367   9.990  20.160  0.00  0.00    +0.000 A 
ATOM     21  C   UNL     1       0.941   9.833  18.901  0.00  0.00    +0.000 A 
ATOM     22  C   UNL     1       1.708   8.700  18.620  0.00  0.00    +0.000 A 
ENDBRANCH   2  17
TORSDOF 3
ENDMDL
MODEL 6
REMARK VINA RESULT:      -8.2      3.166      7.224
REMARK  Name = 
REMARK  3 active torsions:
REMARK  status: ('A' for Active; 'I' for Inactive)
REMARK    1  A    between atoms: N_6  and  N_7
REMARK    2  A    between atoms: C_8  and  C_9
REMARK    3  A    between atoms: C_8  and  C_15
REMARK                            x       y       z     vdW  Elec       q    Type
REMARK                         _______ _______ _______ _____ _____    ______ ____
ROOT
ATOM      1  N   UNL     1       4.239   5.151  16.556  0.00  0.00    +0.000 NA
ATOM      2  C   UNL     1       5.499   5.348  16.253  0.00  0.00    +0.000 C 
ENDROOT
BRANCH   1   8
ATOM      3  O   UNL     1       1.059   2.568  21.243  0.00  0.00    +0.000 OA
ATOM      4  C   UNL     1       1.701   3.237  20.450  0.00  0.00    +0.000 C 
ATOM      5  C   UNL     1       2.013   2.738  19.098  0.00  0.00    +0.000 C 
ATOM      6  C   UNL     1       2.715   3.469  18.225  0.00  0.00    +0.000 C 
ATOM      7  C   UNL     1       3.190   4.832  18.562  0.00  0.00    +0.000 C 
ATOM      8  N   UNL     1       3.853   5.638  17.794  0.00  0.00    +0.000 NA
ATOM      9  C   UNL     1       2.876   5.317  19.934  0.00  0.00    +0.000 C 
ATOM     10  C   UNL     1       2.190   4.583  20.809  0.00  0.00    +0.000 C 
ENDBRANCH   1   8
BRANCH   2  11
ATOM     11  C   UNL     1       6.516   6.043  17.139  0.00  0.00    +0.000 A 
ATOM     12  C   UNL     1       7.175   5.362  18.171  0.00  0.00    +0.000 A 
ATOM     13  C   UNL     1       8.073   6.025  19.011  0.00  0.00    +0.000 A 
ATOM     14  C   UNL     1       8.381   7.362  18.782  0.00  0.00    +0.000 A 
ATOM     15  C   UNL     1       7.772   8.043  17.732  0.00  0.00    +0.000 A 
ATOM     16  C   UNL     1       6.820   7.399  16.935  0.00  0.00    +0.000 A 
ENDBRANCH   2  11
BRANCH   2  17
ATOM     17  C   UNL     1       5.959   4.847  14.905  0.00  0.00    +0.000 A 
ATOM     18  C   UNL     1       5.134   3.986  14.167  0.00  0.00    +0.000 A 
ATOM     19  C   UNL     1       5.547   3.514  12.917  0.00  0.00    +0.000 A 
ATOM     20  C   UNL     1       6.777   3.906  12.391  0.00  0.00    +0.000 A 
ATOM     21  C   UNL     1       7.602   4.764  13.114  0.00  0.00    +0.000 A 
ATOM     22  C   UNL     1       7.204   5.217  14.374  0.00  0.00    +0.000 A 
ENDBRANCH   2  17
TORSDOF 3
ENDMDL
MODEL 7
REMARK VINA RESULT:      -8.2      3.146      7.258
REMARK  Name = 
REMARK  3 active torsions:
REMARK  status: ('A' for Active; 'I' for Inactive)
REMARK    1  A    between atoms: N_6  and  N_7
REMARK    2  A    between atoms: C_8  and  C_9
REMARK    3  A    between atoms: C_8  and  C_15
REMARK                            x       y       z     vdW  Elec       q    Type
REMARK                         _______ _______ _______ _____ _____    ______ ____
ROOT
ATOM      1  N   UNL     1       4.228   5.175  16.420  0.00  0.00    +0.000 NA
ATOM      2  C   UNL     1       5.500   5.356  16.157  0.00  0.00    +0.000 C 
ENDROOT
BRANCH   1   8
ATOM      3  O   UNL     1       1.131   2.520  21.121  0.00  0.00    +0.000 OA
ATOM      4  C   UNL     1       1.748   3.206  20.323  0.00  0.00    +0.000 C 
ATOM      5  C   UNL     1       2.094   2.702  18.982  0.00  0.00    +0.000 C 
ATOM      6  C   UNL     1       2.769   3.450  18.103  0.00  0.00    +0.000 C 
ATOM      7  C   UNL     1       3.179   4.838  18.422  0.00  0.00    +0.000 C 
ATOM      8  N   UNL     1       3.811   5.663  17.647  0.00  0.00    +0.000 NA
ATOM      9  C   UNL     1       2.832   5.329  19.784  0.00  0.00    +0.000 C 
ATOM     10  C   UNL     1       2.173   4.577  20.666  0.00  0.00    +0.000 C 
ENDBRANCH   1   8
BRANCH   2  11
ATOM     11  C   UNL     1       6.498   6.033  17.077  0.00  0.00    +0.000 A 
ATOM     12  C   UNL     1       6.796   7.397  16.956  0.00  0.00    +0.000 A 
ATOM     13  C   UNL     1       7.753   8.000  17.777  0.00  0.00    +0.000 A 
ATOM     14  C   UNL     1       8.370   7.261  18.781  0.00  0.00    +0.000 A 
ATOM     15  C   UNL     1       8.052   5.916  18.948  0.00  0.00    +0.000 A 
ATOM     16  C   UNL     1       7.146   5.297  18.081  0.00  0.00    +0.000 A 
ENDBRANCH   2  11
BRANCH   2  17
ATOM     17  C   UNL     1       5.994   4.854  14.822  0.00  0.00    +0.000 A 
ATOM     18  C   UNL     1       5.193   3.986  14.066  0.00  0.00    +0.000 A 
ATOM     19  C   UNL     1       5.637   3.514  12.828  0.00  0.00    +0.000 A 
ATOM     20  C   UNL     1       6.878   3.911  12.330  0.00  0.00    +0.000 A 
ATOM     21  C   UNL     1       7.681   4.774  13.071  0.00  0.00    +0.000 A 
ATOM     22  C   UNL     1       7.250   5.228  14.320  0.00  0.00    +0.000 A 
ENDBRANCH   2  17
TORSDOF 3
ENDMDL
MODEL 8
REMARK VINA RESULT:      -8.2      3.194      7.212
REMARK  Name = 
REMARK  3 active torsions:
REMARK  status: ('A' for Active; 'I' for Inactive)
REMARK    1  A    between atoms: N_6  and  N_7
REMARK    2  A    between atoms: C_8  and  C_9
REMARK    3  A    between atoms: C_8  and  C_15
REMARK                            x       y       z     vdW  Elec       q    Type
REMARK                         _______ _______ _______ _____ _____    ______ ____
ROOT
ATOM      1  N   UNL     1       4.188   5.152  16.449  0.00  0.00    +0.000 NA
ATOM      2  C   UNL     1       5.463   5.311  16.191  0.00  0.00    +0.000 C 
ENDROOT
BRANCH   1   8
ATOM      3  O   UNL     1       1.460   2.339  21.285  0.00  0.00    +0.000 OA
ATOM      4  C   UNL     1       1.997   3.058  20.459  0.00  0.00    +0.000 C 
ATOM      5  C   UNL     1       2.332   2.563  19.111  0.00  0.00    +0.000 C 
ATOM      6  C   UNL     1       2.919   3.347  18.200  0.00  0.00    +0.000 C 
ATOM      7  C   UNL     1       3.237   4.765  18.491  0.00  0.00    +0.000 C 
ATOM      8  N   UNL     1       3.779   5.623  17.685  0.00  0.00    +0.000 NA
ATOM      9  C   UNL     1       2.902   5.247  19.859  0.00  0.00    +0.000 C 
ATOM     10  C   UNL     1       2.332   4.461  20.771  0.00  0.00    +0.000 C 
ENDBRANCH   1   8
BRANCH   2  11
ATOM     11  C   UNL     1       6.474   5.949  17.125  0.00  0.00    +0.000 A 
ATOM     12  C   UNL     1       6.800   7.309  17.033  0.00  0.00    +0.000 A 
ATOM     13  C   UNL     1       7.768   7.875  17.867  0.00  0.00    +0.000 A 
ATOM     14  C   UNL     1       8.369   7.103  18.856  0.00  0.00    +0.000 A 
ATOM     15  C   UNL     1       8.024   5.762  18.995  0.00  0.00    +0.000 A 
ATOM     16  C   UNL     1       7.107   5.179  18.114  0.00  0.00    +0.000 A 
ENDBRANCH   2  11
BRANCH   2  17
ATOM     17  C   UNL     1       5.949   4.826  14.847  0.00  0.00    +0.000 A 
ATOM     18  C   UNL     1       7.185   5.269  14.354  0.00  0.00    +0.000 A 
ATOM     19  C   UNL     1       7.649   4.828  13.110  0.00  0.00    +0.000 A 
ATOM     20  C   UNL     1       6.889   3.934  12.357  0.00  0.00    +0.000 A 
ATOM     21  C   UNL     1       5.662   3.485  12.838  0.00  0.00    +0.000 A 
ATOM     22  C   UNL     1       5.185   3.944  14.068  0.00  0.00    +0.000 A 
ENDBRANCH   2  17
TORSDOF 3
ENDMDL
MODEL 9
REMARK VINA RESULT:      -8.1      2.791      6.171
REMARK  Name = 
REMARK  3 active torsions:
REMARK  status: ('A' for Active; 'I' for Inactive)
REMARK    1  A    between atoms: N_6  and  N_7
REMARK    2  A    between atoms: C_8  and  C_9
REMARK    3  A    between atoms: C_8  and  C_15
REMARK                            x       y       z     vdW  Elec       q    Type
REMARK                         _______ _______ _______ _____ _____    ______ ____
ROOT
ATOM      1  N   UNL     1       2.999   7.173  18.894  0.00  0.00    +0.000 NA
ATOM      2  C   UNL     1       3.122   5.891  18.646  0.00  0.00    +0.000 C 
ENDROOT
BRANCH   1   8
ATOM      3  O   UNL     1      -1.188  11.692  19.784  0.00  0.00    +0.000 OA
ATOM      4  C   UNL     1      -0.426  10.740  19.796  0.00  0.00    +0.000 C 
ATOM      5  C   UNL     1       0.506  10.486  18.682  0.00  0.00    +0.000 C 
ATOM      6  C   UNL     1       1.345   9.444  18.691  0.00  0.00    +0.000 C 
ATOM      7  C   UNL     1       1.401   8.507  19.838  0.00  0.00    +0.000 C 
ATOM      8  N   UNL     1       2.185   7.484  19.971  0.00  0.00    +0.000 NA
ATOM      9  C   UNL     1       0.447   8.771  20.950  0.00  0.00    +0.000 C 
ATOM     10  C   UNL     1      -0.399   9.799  20.933  0.00  0.00    +0.000 C 
ENDBRANCH   1   8
BRANCH   2  11
ATOM     11  C   UNL     1       2.454   4.778  19.430  0.00  0.00    +0.000 A 
ATOM     12  C   UNL     1       1.374   4.057  18.903  0.00  0.00    +0.000 A 
ATOM     13  C   UNL     1       0.735   3.067  19.653  0.00  0.00    +0.000 A 
ATOM     14  C   UNL     1       1.217   2.732  20.914  0.00  0.00    +0.000 A 
ATOM     15  C   UNL     1       2.319   3.404  21.436  0.00  0.00    +0.000 A 
ATOM     16  C   UNL     1       2.914   4.443  20.714  0.00  0.00    +0.000 A 
ENDBRANCH   2  11
BRANCH   2  17
ATOM     17  C   UNL     1       4.014   5.507  17.490  0.00  0.00    +0.000 A 
ATOM     18  C   UNL     1       4.548   6.506  16.663  0.00  0.00    +0.000 A 
ATOM     19  C   UNL     1       5.375   6.165  15.588  0.00  0.00    +0.000 A 
ATOM     20  C   UNL     1       5.684   4.829  15.339  0.00  0.00    +0.000 A 
ATOM     21  C   UNL     1       5.162   3.829  16.156  0.00  0.00    +0.000 A 
ATOM     22  C   UNL     1       4.315   4.165  17.214  0.00  0.00    +0.000 A 
ENDBRANCH   2  17
TORSDOF 3
ENDMDL
