MODEL 1
REMARK VINA RESULT:      -8.5      0.000      0.000
REMARK  Name = 
REMARK  2 active torsions:
REMARK  status: ('A' for Active; 'I' for Inactive)
REMARK    1  A    between atoms: C_2  and  O_3
REMARK    2  A    between atoms: C_2  and  C_4
REMARK                            x       y       z     vdW  Elec       q    Type
REMARK                         _______ _______ _______ _____ _____    ______ ____
ROOT
ATOM      1  C   UNL     1       6.689   5.251  17.614  0.00  0.00    +0.000 A 
ATOM      2  C   UNL     1       7.175   4.756  16.392  0.00  0.00    +0.000 A 
ATOM      3  C   UNL     1       6.336   4.054  15.543  0.00  0.00    +0.000 A 
ATOM      4  C   UNL     1       5.029   3.797  15.938  0.00  0.00    +0.000 A 
ATOM      5  C   UNL     1       4.518   4.244  17.178  0.00  0.00    +0.000 A 
ATOM      6  C   UNL     1       5.338   5.026  18.022  0.00  0.00    +0.000 A 
ATOM      7  C   UNL     1       4.871   5.640  19.327  0.00  0.00    +0.000 C 
ATOM      8  C   UNL     1       3.378   5.905  19.475  0.00  0.00    +0.000 C 
ATOM      9  C   UNL     1       2.649   4.632  19.773  0.00  0.00    +0.000 A 
ATOM     10  C   UNL     1       2.039   4.441  21.025  0.00  0.00    +0.000 A 
ATOM     11  C   UNL     1       1.338   3.266  21.304  0.00  0.00    +0.000 A 
ATOM     12  C   UNL     1       1.233   2.271  20.338  0.00  0.00    +0.000 A 
ATOM     13  C   UNL     1       1.835   2.451  19.091  0.00  0.00    +0.000 A 
ATOM     14  C   UNL     1       2.556   3.623  18.813  0.00  0.00    +0.000 A 
ATOM     15  C   UNL     1       3.120   3.776  17.455  0.00  0.00    +0.000 C 
ATOM     16  O   UNL     1       2.411   3.418  16.515  0.00  0.00    +0.000 OA
ENDROOT
BRANCH   1  18
ATOM     17  O   UNL     1       7.964   7.134  18.363  0.00  0.00    +0.000 OA
ATOM     18  C   UNL     1       7.664   5.961  18.496  0.00  0.00    +0.000 C 
BRANCH  18  19
ATOM     19  O   UNL     1       8.205   5.173  19.451  0.00  0.00    +0.000 OA
ATOM     20  H   UNL     1       8.660   5.639  20.176  0.00  0.00    +0.000 HD
ENDBRANCH  18  19
ENDBRANCH   1  18
TORSDOF 2
ENDMDL
MODEL 2
REMARK VINA RESULT:      -7.7      2.308      5.823
REMARK  Name = 
REMARK  2 active torsions:
REMARK  status: ('A' for Active; 'I' for Inactive)
REMARK    1  A    between atoms: C_2  and  O_3
REMARK    2  A    between atoms: C_2  and  C_4
REMARK                            x       y       z     vdW  Elec       q    Type
REMARK                         _______ _______ _______ _____ _____    ______ ____
ROOT
ATOM      1  C   UNL     1       1.905   4.868  20.532  0.00  0.00    +0.000 A 
ATOM      2  C   UNL     1       1.404   6.000  21.196  0.00  0.00    +0.000 A 
ATOM      3  C   UNL     1       1.581   7.261  20.652  0.00  0.00    +0.000 A 
ATOM      4  C   UNL     1       2.308   7.398  19.475  0.00  0.00    +0.000 A 
ATOM      5  C   UNL     1       2.863   6.286  18.802  0.00  0.00    +0.000 A 
ATOM      6  C   UNL     1       2.626   4.987  19.303  0.00  0.00    +0.000 A 
ATOM      7  C   UNL     1       3.088   3.716  18.617  0.00  0.00    +0.000 C 
ATOM      8  C   UNL     1       3.311   3.782  17.112  0.00  0.00    +0.000 C 
ATOM      9  C   UNL     1       4.610   4.460  16.805  0.00  0.00    +0.000 A 
ATOM     10  C   UNL     1       5.671   3.735  16.236  0.00  0.00    +0.000 A 
ATOM     11  C   UNL     1       6.879   4.364  15.926  0.00  0.00    +0.000 A 
ATOM     12  C   UNL     1       7.040   5.723  16.176  0.00  0.00    +0.000 A 
ATOM     13  C   UNL     1       5.992   6.452  16.740  0.00  0.00    +0.000 A 
ATOM     14  C   UNL     1       4.783   5.819  17.070  0.00  0.00    +0.000 A 
ATOM     15  C   UNL     1       3.694   6.660  17.611  0.00  0.00    +0.000 C 
ATOM     16  O   UNL     1       3.529   7.761  17.086  0.00  0.00    +0.000 OA
ENDROOT
BRANCH   1  18
ATOM     17  O   UNL     1       2.486   3.089  22.024  0.00  0.00    +0.000 OA
ATOM     18  C   UNL     1       1.713   3.546  21.201  0.00  0.00    +0.000 C 
BRANCH  18  19
ATOM     19  O   UNL     1       0.606   2.887  20.793  0.00  0.00    +0.000 OA
ATOM     20  H   UNL     1       0.758   2.003  20.413  0.00  0.00    +0.000 HD
ENDBRANCH  18  19
ENDBRANCH   1  18
TORSDOF 2
ENDMDL
MODEL 3
REMARK VINA RESULT:      -7.5      2.948      5.377
REMARK  Name = 
REMARK  2 active torsions:
REMARK  status: ('A' for Active; 'I' for Inactive)
REMARK    1  A    between atoms: C_2  and  O_3
REMARK    2  A    between atoms: C_2  and  C_4
REMARK                            x       y       z     vdW  Elec       q    Type
REMARK                         _______ _______ _______ _____ _____    ______ ____
ROOT
ATOM      1  C   UNL     1       2.115   3.456  19.123  0.00  0.00    +0.000 A 
ATOM      2  C   UNL     1       2.757   2.736  18.102  0.00  0.00    +0.000 A 
ATOM      3  C   UNL     1       3.566   3.393  17.190  0.00  0.00    +0.000 A 
ATOM      4  C   UNL     1       3.689   4.775  17.262  0.00  0.00    +0.000 A 
ATOM      5  C   UNL     1       3.025   5.537  18.250  0.00  0.00    +0.000 A 
ATOM      6  C   UNL     1       2.257   4.874  19.233  0.00  0.00    +0.000 A 
ATOM      7  C   UNL     1       1.579   5.575  20.395  0.00  0.00    +0.000 C 
ATOM      8  C   UNL     1       2.172   6.904  20.845  0.00  0.00    +0.000 C 
ATOM      9  C   UNL     1       1.772   7.999  19.907  0.00  0.00    +0.000 A 
ATOM     10  C   UNL     1       0.911   9.023  20.338  0.00  0.00    +0.000 A 
ATOM     11  C   UNL     1       0.551  10.062  19.477  0.00  0.00    +0.000 A 
ATOM     12  C   UNL     1       1.047  10.093  18.178  0.00  0.00    +0.000 A 
ATOM     13  C   UNL     1       1.903   9.080  17.739  0.00  0.00    +0.000 A 
ATOM     14  C   UNL     1       2.253   8.025  18.597  0.00  0.00    +0.000 A 
ATOM     15  C   UNL     1       3.208   7.017  18.090  0.00  0.00    +0.000 C 
ATOM     16  O   UNL     1       4.161   7.435  17.433  0.00  0.00    +0.000 OA
ENDROOT
BRANCH   1  18
ATOM     17  O   UNL     1       1.576   2.277  21.135  0.00  0.00    +0.000 OA
ATOM     18  C   UNL     1       1.224   2.686  20.043  0.00  0.00    +0.000 C 
BRANCH  18  19
ATOM     19  O   UNL     1      -0.011   2.464  19.542  0.00  0.00    +0.000 OA
ATOM     20  H   UNL     1      -0.199   1.546  19.274  0.00  0.00    +0.000 HD
ENDBRANCH  18  19
ENDBRANCH   1  18
TORSDOF 2
ENDMDL
MODEL 4
REMARK VINA RESULT:      -7.4      3.568      5.601
REMARK  Name = 
REMARK  2 active torsions:
REMARK  status: ('A' for Active; 'I' for Inactive)
REMARK    1  A    between atoms: C_2  and  O_3
REMARK    2  A    between atoms: C_2  and  C_4
REMARK                            x       y       z     vdW  Elec       q    Type
REMARK                         _______ _______ _______ _____ _____    ______ ____
ROOT
ATOM      1  C   UNL     1       2.316   4.222  19.960  0.00  0.00    +0.000 A 
ATOM      2  C   UNL     1       3.015   3.500  18.979  0.00  0.00    +0.000 A 
ATOM      3  C   UNL     1       3.603   4.163  17.914  0.00  0.00    +0.000 A 
ATOM      4  C   UNL     1       3.444   5.538  17.798  0.00  0.00    +0.000 A 
ATOM      5  C   UNL     1       2.713   6.292  18.745  0.00  0.00    +0.000 A 
ATOM      6  C   UNL     1       2.172   5.641  19.876  0.00  0.00    +0.000 A 
ATOM      7  C   UNL     1       1.452   6.357  21.003  0.00  0.00    +0.000 C 
ATOM      8  C   UNL     1       1.791   7.826  21.220  0.00  0.00    +0.000 C 
ATOM      9  C   UNL     1       1.107   8.677  20.197  0.00  0.00    +0.000 A 
ATOM     10  C   UNL     1       0.089   9.567  20.580  0.00  0.00    +0.000 A 
ATOM     11  C   UNL     1      -0.540  10.381  19.636  0.00  0.00    +0.000 A 
ATOM     12  C   UNL     1      -0.158  10.321  18.300  0.00  0.00    +0.000 A 
ATOM     13  C   UNL     1       0.853   9.440  17.908  0.00  0.00    +0.000 A 
ATOM     14  C   UNL     1       1.474   8.607  18.852  0.00  0.00    +0.000 A 
ATOM     15  C   UNL     1       2.576   7.740  18.382  0.00  0.00    +0.000 C 
ATOM     16  O   UNL     1       3.372   8.236  17.585  0.00  0.00    +0.000 OA
ENDROOT
BRANCH   1  18
ATOM     17  O   UNL     1       2.206   3.211  22.128  0.00  0.00    +0.000 OA
ATOM     18  C   UNL     1       1.673   3.434  21.055  0.00  0.00    +0.000 C 
BRANCH  18  19
ATOM     19  O   UNL     1       0.445   2.969  20.739  0.00  0.00    +0.000 OA
ATOM     20  H   UNL     1       0.362   2.559  19.859  0.00  0.00    +0.000 HD
ENDBRANCH  18  19
ENDBRANCH   1  18
TORSDOF 2
ENDMDL
MODEL 5
REMARK VINA RESULT:      -7.2      3.136      4.488
REMARK  Name = 
REMARK  2 active torsions:
REMARK  status: ('A' for Active; 'I' for Inactive)
REMARK    1  A    between atoms: C_2  and  O_3
REMARK    2  A    between atoms: C_2  and  C_4
REMARK                            x       y       z     vdW  Elec       q    Type
REMARK                         _______ _______ _______ _____ _____    ______ ____
ROOT
ATOM      1  C   UNL     1       4.928   6.026  17.621  0.00  0.00    +0.000 A 
ATOM      2  C   UNL     1       5.431   4.805  18.101  0.00  0.00    +0.000 A 
ATOM      3  C   UNL     1       4.783   4.143  19.130  0.00  0.00    +0.000 A 
ATOM      4  C   UNL     1       3.667   4.725  19.718  0.00  0.00    +0.000 A 
ATOM      5  C   UNL     1       3.157   5.971  19.288  0.00  0.00    +0.000 A 
ATOM      6  C   UNL     1       3.761   6.624  18.190  0.00  0.00    +0.000 A 
ATOM      7  C   UNL     1       3.246   7.913  17.580  0.00  0.00    +0.000 C 
ATOM      8  C   UNL     1       1.767   8.225  17.765  0.00  0.00    +0.000 C 
ATOM      9  C   UNL     1       1.509   8.736  19.148  0.00  0.00    +0.000 A 
ATOM     10  C   UNL     1       1.109  10.068  19.350  0.00  0.00    +0.000 A 
ATOM     11  C   UNL     1       0.845  10.547  20.634  0.00  0.00    +0.000 A 
ATOM     12  C   UNL     1       0.972   9.703  21.732  0.00  0.00    +0.000 A 
ATOM     13  C   UNL     1       1.369   8.378  21.543  0.00  0.00    +0.000 A 
ATOM     14  C   UNL     1       1.653   7.898  20.255  0.00  0.00    +0.000 A 
ATOM     15  C   UNL     1       2.012   6.470  20.118  0.00  0.00    +0.000 C 
ATOM     16  O   UNL     1       1.369   5.668  20.796  0.00  0.00    +0.000 OA
ENDROOT
BRANCH   1  18
ATOM     17  O   UNL     1       5.449   6.589  15.353  0.00  0.00    +0.000 OA
ATOM     18  C   UNL     1       5.704   6.703  16.539  0.00  0.00    +0.000 C 
BRANCH  18  19
ATOM     19  O   UNL     1       6.739   7.443  16.995  0.00  0.00    +0.000 OA
ATOM     20  H   UNL     1       7.081   8.116  16.378  0.00  0.00    +0.000 HD
ENDBRANCH  18  19
ENDBRANCH   1  18
TORSDOF 2
ENDMDL
MODEL 6
REMARK VINA RESULT:      -7.1      2.088      3.088
REMARK  Name = 
REMARK  2 active torsions:
REMARK  status: ('A' for Active; 'I' for Inactive)
REMARK    1  A    between atoms: C_2  and  O_3
REMARK    2  A    between atoms: C_2  and  C_4
REMARK                            x       y       z     vdW  Elec       q    Type
REMARK                         _______ _______ _______ _____ _____    ______ ____
ROOT
ATOM      1  C   UNL     1       6.005   5.604  16.740  0.00  0.00    +0.000 A 
ATOM      2  C   UNL     1       7.188   6.069  17.340  0.00  0.00    +0.000 A 
ATOM      3  C   UNL     1       7.544   5.632  18.605  0.00  0.00    +0.000 A 
ATOM      4  C   UNL     1       6.693   4.777  19.294  0.00  0.00    +0.000 A 
ATOM      5  C   UNL     1       5.475   4.321  18.739  0.00  0.00    +0.000 A 
ATOM      6  C   UNL     1       5.134   4.697  17.420  0.00  0.00    +0.000 A 
ATOM      7  C   UNL     1       3.906   4.196  16.686  0.00  0.00    +0.000 C 
ATOM      8  C   UNL     1       3.329   2.859  17.131  0.00  0.00    +0.000 C 
ATOM      9  C   UNL     1       2.548   3.022  18.398  0.00  0.00    +0.000 A 
ATOM     10  C   UNL     1       1.154   2.843  18.399  0.00  0.00    +0.000 A 
ATOM     11  C   UNL     1       0.419   2.971  19.580  0.00  0.00    +0.000 A 
ATOM     12  C   UNL     1       1.067   3.276  20.773  0.00  0.00    +0.000 A 
ATOM     13  C   UNL     1       2.451   3.456  20.782  0.00  0.00    +0.000 A 
ATOM     14  C   UNL     1       3.190   3.345  19.594  0.00  0.00    +0.000 A 
ATOM     15  C   UNL     1       4.659   3.491  19.683  0.00  0.00    +0.000 C 
ATOM     16  O   UNL     1       5.213   2.953  20.642  0.00  0.00    +0.000 OA
ENDROOT
BRANCH   1  18
ATOM     17  O   UNL     1       4.931   7.109  15.220  0.00  0.00    +0.000 OA
ATOM     18  C   UNL     1       5.665   6.152  15.393  0.00  0.00    +0.000 C 
BRANCH  18  19
ATOM     19  O   UNL     1       6.234   5.474  14.371  0.00  0.00    +0.000 OA
ATOM     20  H   UNL     1       7.166   5.218  14.502  0.00  0.00    +0.000 HD
ENDBRANCH  18  19
ENDBRANCH   1  18
TORSDOF 2
ENDMDL
MODEL 7
REMARK VINA RESULT:      -7.0      5.860      8.173
REMARK  Name = 
REMARK  2 active torsions:
REMARK  status: ('A' for Active; 'I' for Inactive)
REMARK    1  A    between atoms: C_2  and  O_3
REMARK    2  A    between atoms: C_2  and  C_4
REMARK                            x       y       z     vdW  Elec       q    Type
REMARK                         _______ _______ _______ _____ _____    ______ ____
ROOT
ATOM      1  C   UNL     1      -1.094  11.328  19.169  0.00  0.00    +0.000 A 
ATOM      2  C   UNL     1      -1.727  11.914  20.278  0.00  0.00    +0.000 A 
ATOM      3  C   UNL     1      -1.323  11.587  21.562  0.00  0.00    +0.000 A 
ATOM      4  C   UNL     1      -0.328  10.633  21.740  0.00  0.00    +0.000 A 
ATOM      5  C   UNL     1       0.302   9.993  20.648  0.00  0.00    +0.000 A 
ATOM      6  C   UNL     1      -0.044  10.371  19.332  0.00  0.00    +0.000 A 
ATOM      7  C   UNL     1       0.628   9.826  18.087  0.00  0.00    +0.000 C 
ATOM      8  C   UNL     1       2.050   9.302  18.241  0.00  0.00    +0.000 C 
ATOM      9  C   UNL     1       2.043   7.945  18.872  0.00  0.00    +0.000 A 
ATOM     10  C   UNL     1       2.441   6.817  18.135  0.00  0.00    +0.000 A 
ATOM     11  C   UNL     1       2.458   5.550  18.722  0.00  0.00    +0.000 A 
ATOM     12  C   UNL     1       2.082   5.395  20.053  0.00  0.00    +0.000 A 
ATOM     13  C   UNL     1       1.685   6.509  20.794  0.00  0.00    +0.000 A 
ATOM     14  C   UNL     1       1.649   7.781  20.201  0.00  0.00    +0.000 A 
ATOM     15  C   UNL     1       1.274   8.927  21.057  0.00  0.00    +0.000 C 
ATOM     16  O   UNL     1       1.738   8.944  22.197  0.00  0.00    +0.000 OA
ENDROOT
BRANCH   1  18
ATOM     17  O   UNL     1      -2.432  11.036  17.206  0.00  0.00    +0.000 OA
ATOM     18  C   UNL     1      -1.612  11.698  17.817  0.00  0.00    +0.000 C 
BRANCH  18  19
ATOM     19  O   UNL     1      -1.070  12.831  17.319  0.00  0.00    +0.000 OA
ATOM     20  H   UNL     1      -0.891  13.535  17.970  0.00  0.00    +0.000 HD
ENDBRANCH  18  19
ENDBRANCH   1  18
TORSDOF 2
ENDMDL
MODEL 8
REMARK VINA RESULT:      -6.9      3.504      5.676
REMARK  Name = 
REMARK  2 active torsions:
REMARK  status: ('A' for Active; 'I' for Inactive)
REMARK    1  A    between atoms: C_2  and  O_3
REMARK    2  A    between atoms: C_2  and  C_4
REMARK                            x       y       z     vdW  Elec       q    Type
REMARK                         _______ _______ _______ _____ _____    ______ ____
ROOT
ATOM      1  C   UNL     1       1.385   9.100  19.330  0.00  0.00    +0.000 A 
ATOM      2  C   UNL     1       0.695   9.512  20.483  0.00  0.00    +0.000 A 
ATOM      3  C   UNL     1       0.581   8.657  21.567  0.00  0.00    +0.000 A 
ATOM      4  C   UNL     1       1.105   7.373  21.480  0.00  0.00    +0.000 A 
ATOM      5  C   UNL     1       1.769   6.911  20.321  0.00  0.00    +0.000 A 
ATOM      6  C   UNL     1       1.960   7.795  19.235  0.00  0.00    +0.000 A 
ATOM      7  C   UNL     1       2.738   7.444  17.982  0.00  0.00    +0.000 C 
ATOM      8  C   UNL     1       3.796   6.354  18.105  0.00  0.00    +0.000 C 
ATOM      9  C   UNL     1       3.154   5.002  18.126  0.00  0.00    +0.000 A 
ATOM     10  C   UNL     1       3.345   4.108  17.059  0.00  0.00    +0.000 A 
ATOM     11  C   UNL     1       2.769   2.837  17.080  0.00  0.00    +0.000 A 
ATOM     12  C   UNL     1       1.998   2.440  18.168  0.00  0.00    +0.000 A 
ATOM     13  C   UNL     1       1.802   3.320  19.235  0.00  0.00    +0.000 A 
ATOM     14  C   UNL     1       2.365   4.606  19.208  0.00  0.00    +0.000 A 
ATOM     15  C   UNL     1       2.167   5.467  20.393  0.00  0.00    +0.000 C 
ATOM     16  O   UNL     1       2.263   4.926  21.495  0.00  0.00    +0.000 OA
ENDROOT
BRANCH   1  18
ATOM     17  O   UNL     1       2.404  10.740  17.915  0.00  0.00    +0.000 OA
ATOM     18  C   UNL     1       1.430  10.059  18.186  0.00  0.00    +0.000 C 
BRANCH  18  19
ATOM     19  O   UNL     1       0.278  10.121  17.484  0.00  0.00    +0.000 OA
ATOM     20  H   UNL     1       0.369  10.359  16.543  0.00  0.00    +0.000 HD
ENDBRANCH  18  19
ENDBRANCH   1  18
TORSDOF 2
ENDMDL
MODEL 9
REMARK VINA RESULT:      -6.8      2.205      3.024
REMARK  Name = 
REMARK  2 active torsions:
REMARK  status: ('A' for Active; 'I' for Inactive)
REMARK    1  A    between atoms: C_2  and  O_3
REMARK    2  A    between atoms: C_2  and  C_4
REMARK                            x       y       z     vdW  Elec       q    Type
REMARK                         _______ _______ _______ _____ _____    ______ ____
ROOT
ATOM      1  C   UNL     1       5.438   6.016  17.182  0.00  0.00    +0.000 A 
ATOM      2  C   UNL     1       6.750   6.276  17.613  0.00  0.00    +0.000 A 
ATOM      3  C   UNL     1       7.325   5.495  18.602  0.00  0.00    +0.000 A 
ATOM      4  C   UNL     1       6.572   4.492  19.201  0.00  0.00    +0.000 A 
ATOM      5  C   UNL     1       5.235   4.230  18.822  0.00  0.00    +0.000 A 
ATOM      6  C   UNL     1       4.660   4.967  17.763  0.00  0.00    +0.000 A 
ATOM      7  C   UNL     1       3.272   4.711  17.207  0.00  0.00    +0.000 C 
ATOM      8  C   UNL     1       2.701   3.311  17.387  0.00  0.00    +0.000 C 
ATOM      9  C   UNL     1       2.211   3.122  18.789  0.00  0.00    +0.000 A 
ATOM     10  C   UNL     1       0.837   2.969  19.046  0.00  0.00    +0.000 A 
ATOM     11  C   UNL     1       0.373   2.771  20.347  0.00  0.00    +0.000 A 
ATOM     12  C   UNL     1       1.273   2.717  21.407  0.00  0.00    +0.000 A 
ATOM     13  C   UNL     1       2.639   2.867  21.162  0.00  0.00    +0.000 A 
ATOM     14  C   UNL     1       3.108   3.086  19.857  0.00  0.00    +0.000 A 
ATOM     15  C   UNL     1       4.570   3.179  19.660  0.00  0.00    +0.000 C 
ATOM     16  O   UNL     1       5.268   2.385  20.291  0.00  0.00    +0.000 OA
ENDROOT
BRANCH   1  18
ATOM     17  O   UNL     1       5.229   6.928  14.979  0.00  0.00    +0.000 OA
ATOM     18  C   UNL     1       4.870   6.926  16.143  0.00  0.00    +0.000 C 
BRANCH  18  19
ATOM     19  O   UNL     1       3.928   7.771  16.618  0.00  0.00    +0.000 OA
ATOM     20  H   UNL     1       4.263   8.548  17.102  0.00  0.00    +0.000 HD
ENDBRANCH  18  19
ENDBRANCH   1  18
TORSDOF 2
ENDMDL
