MODEL 1
REMARK VINA RESULT:      -8.8      0.000      0.000
REMARK  Name = 
REMARK  7 active torsions:
REMARK  status: ('A' for Active; 'I' for Inactive)
REMARK    1  A    between atoms: C_1  and  C_2
REMARK    2  A    between atoms: C_2  and  O_3
REMARK    3  A    between atoms: O_3  and  C_4
REMARK    4  A    between atoms: N_12  and  C_13
REMARK    5  A    between atoms: C_13  and  C_14
REMARK    6  A    between atoms: C_17  and  C_18
REMARK    7  A    between atoms: C_23  and  C_24
REMARK                            x       y       z     vdW  Elec       q    Type
REMARK                         _______ _______ _______ _____ _____    ______ ____
ROOT
ATOM      1  C   UNL     1       1.594   9.354  18.965  0.00  0.00    +0.000 A 
ATOM      2  C   UNL     1       2.096   8.507  17.975  0.00  0.00    +0.000 A 
ATOM      3  C   UNL     1       2.308   7.151  18.244  0.00  0.00    +0.000 A 
ATOM      4  C   UNL     1       2.072   6.601  19.518  0.00  0.00    +0.000 A 
ATOM      5  C   UNL     1       1.746   7.512  20.538  0.00  0.00    +0.000 A 
ATOM      6  C   UNL     1       1.462   8.853  20.262  0.00  0.00    +0.000 A 
ENDROOT
BRANCH   4   7
ATOM      7  C   UNL     1       2.121   5.126  19.738  0.00  0.00    +0.000 A 
ATOM      8  C   UNL     1       1.017   4.492  20.359  0.00  0.00    +0.000 A 
ATOM      9  C   UNL     1       0.999   3.121  20.636  0.00  0.00    +0.000 A 
ATOM     10  C   UNL     1       2.075   2.326  20.271  0.00  0.00    +0.000 A 
ATOM     11  C   UNL     1       3.177   2.907  19.649  0.00  0.00    +0.000 A 
ATOM     12  C   UNL     1       3.232   4.299  19.398  0.00  0.00    +0.000 A 
BRANCH  12  13
ATOM     13  C   UNL     1       4.464   4.791  18.806  0.00  0.00    +0.000 A 
ATOM     14  N   UNL     1       5.462   5.366  19.564  0.00  0.00    +0.000 NA
ATOM     15  N   UNL     1       6.465   5.634  18.740  0.00  0.00    +0.000 NA
ATOM     16  N   UNL     1       6.030   5.230  17.542  0.00  0.00    +0.000 N 
ATOM     17  N   UNL     1       4.781   4.749  17.500  0.00  0.00    +0.000 NA
ATOM     18  H   UNL     1       6.624   5.266  16.718  0.00  0.00    +0.000 HD
ENDBRANCH  12  13
ENDBRANCH   4   7
BRANCH   1  19
ATOM     19  C   UNL     1       1.137  10.748  18.628  0.00  0.00    +0.000 C 
BRANCH  19  28
ATOM     20  C   UNL     1      -0.762  11.561  20.064  0.00  0.00    +0.000 A 
ATOM     21  N   UNL     1      -2.051  11.793  19.975  0.00  0.00    +0.000 NA
ATOM     22  C   UNL     1      -2.430  11.242  18.779  0.00  0.00    +0.000 A 
ATOM     23  C   UNL     1      -3.699  11.205  18.183  0.00  0.00    +0.000 A 
ATOM     24  C   UNL     1      -3.861  10.508  16.981  0.00  0.00    +0.000 A 
ATOM     25  C   UNL     1      -2.780   9.860  16.385  0.00  0.00    +0.000 A 
ATOM     26  C   UNL     1      -1.497   9.922  16.941  0.00  0.00    +0.000 A 
ATOM     27  C   UNL     1      -1.348  10.640  18.134  0.00  0.00    +0.000 A 
ATOM     28  N   UNL     1      -0.268  10.949  18.937  0.00  0.00    +0.000 N 
BRANCH  20  29
ATOM     29  O   UNL     1      -0.004  11.850  21.121  0.00  0.00    +0.000 OA
BRANCH  29  31
ATOM     30  C   UNL     1      -0.567  10.418  22.954  0.00  0.00    +0.000 C 
ATOM     31  C   UNL     1      -0.720  11.800  22.354  0.00  0.00    +0.000 C 
ENDBRANCH  29  31
ENDBRANCH  20  29
ENDBRANCH  19  28
ENDBRANCH   1  19
TORSDOF 6
ENDMDL
MODEL 2
REMARK VINA RESULT:      -8.8      2.450      8.079
REMARK  Name = 
REMARK  7 active torsions:
REMARK  status: ('A' for Active; 'I' for Inactive)
REMARK    1  A    between atoms: C_1  and  C_2
REMARK    2  A    between atoms: C_2  and  O_3
REMARK    3  A    between atoms: O_3  and  C_4
REMARK    4  A    between atoms: N_12  and  C_13
REMARK    5  A    between atoms: C_13  and  C_14
REMARK    6  A    between atoms: C_17  and  C_18
REMARK    7  A    between atoms: C_23  and  C_24
REMARK                            x       y       z     vdW  Elec       q    Type
REMARK                         _______ _______ _______ _____ _____    ______ ____
ROOT
ATOM      1  C   UNL     1       2.945   7.321  18.281  0.00  0.00    +0.000 A 
ATOM      2  C   UNL     1       2.361   8.529  17.895  0.00  0.00    +0.000 A 
ATOM      3  C   UNL     1       1.496   9.206  18.762  0.00  0.00    +0.000 A 
ATOM      4  C   UNL     1       1.147   8.682  20.021  0.00  0.00    +0.000 A 
ATOM      5  C   UNL     1       1.603   7.383  20.303  0.00  0.00    +0.000 A 
ATOM      6  C   UNL     1       2.523   6.731  19.475  0.00  0.00    +0.000 A 
ENDROOT
BRANCH   4   7
ATOM      7  C   UNL     1       0.380   9.500  21.006  0.00  0.00    +0.000 A 
ATOM      8  C   UNL     1       0.541   9.231  22.388  0.00  0.00    +0.000 A 
ATOM      9  C   UNL     1      -0.169   9.926  23.372  0.00  0.00    +0.000 A 
ATOM     10  C   UNL     1      -1.044  10.939  23.012  0.00  0.00    +0.000 A 
ATOM     11  C   UNL     1      -1.224  11.244  21.665  0.00  0.00    +0.000 A 
ATOM     12  C   UNL     1      -0.546  10.525  20.652  0.00  0.00    +0.000 A 
BRANCH  12  13
ATOM     13  C   UNL     1      -0.872  10.892  19.284  0.00  0.00    +0.000 A 
ATOM     14  N   UNL     1      -1.737  10.146  18.512  0.00  0.00    +0.000 NA
ATOM     15  N   UNL     1      -1.872  10.787  17.359  0.00  0.00    +0.000 NA
ATOM     16  N   UNL     1      -1.088  11.863  17.480  0.00  0.00    +0.000 N 
ATOM     17  N   UNL     1      -0.398  11.962  18.624  0.00  0.00    +0.000 NA
ATOM     18  H   UNL     1      -1.039  12.572  16.754  0.00  0.00    +0.000 HD
ENDBRANCH  12  13
ENDBRANCH   4   7
BRANCH   1  19
ATOM     19  C   UNL     1       4.052   6.706  17.469  0.00  0.00    +0.000 C 
BRANCH  19  28
ATOM     20  C   UNL     1       5.663   5.285  18.778  0.00  0.00    +0.000 A 
ATOM     21  N   UNL     1       5.717   4.103  19.345  0.00  0.00    +0.000 NA
ATOM     22  C   UNL     1       4.602   3.443  18.898  0.00  0.00    +0.000 A 
ATOM     23  C   UNL     1       4.162   2.144  19.193  0.00  0.00    +0.000 A 
ATOM     24  C   UNL     1       3.022   1.654  18.549  0.00  0.00    +0.000 A 
ATOM     25  C   UNL     1       2.333   2.442  17.628  0.00  0.00    +0.000 A 
ATOM     26  C   UNL     1       2.729   3.756  17.353  0.00  0.00    +0.000 A 
ATOM     27  C   UNL     1       3.862   4.238  18.021  0.00  0.00    +0.000 A 
ATOM     28  N   UNL     1       4.516   5.454  18.042  0.00  0.00    +0.000 N 
BRANCH  20  29
ATOM     29  O   UNL     1       6.609   6.220  18.869  0.00  0.00    +0.000 OA
BRANCH  29  31
ATOM     30  C   UNL     1       7.764   7.829  17.524  0.00  0.00    +0.000 C 
ATOM     31  C   UNL     1       7.358   6.377  17.664  0.00  0.00    +0.000 C 
ENDBRANCH  29  31
ENDBRANCH  20  29
ENDBRANCH  19  28
ENDBRANCH   1  19
TORSDOF 6
ENDMDL
MODEL 3
REMARK VINA RESULT:      -8.7      1.073      1.413
REMARK  Name = 
REMARK  7 active torsions:
REMARK  status: ('A' for Active; 'I' for Inactive)
REMARK    1  A    between atoms: C_1  and  C_2
REMARK    2  A    between atoms: C_2  and  O_3
REMARK    3  A    between atoms: O_3  and  C_4
REMARK    4  A    between atoms: N_12  and  C_13
REMARK    5  A    between atoms: C_13  and  C_14
REMARK    6  A    between atoms: C_17  and  C_18
REMARK    7  A    between atoms: C_23  and  C_24
REMARK                            x       y       z     vdW  Elec       q    Type
REMARK                         _______ _______ _______ _____ _____    ______ ____
ROOT
ATOM      1  C   UNL     1       2.000   9.017  18.598  0.00  0.00    +0.000 A 
ATOM      2  C   UNL     1       2.567   8.063  17.750  0.00  0.00    +0.000 A 
ATOM      3  C   UNL     1       2.705   6.736  18.169  0.00  0.00    +0.000 A 
ATOM      4  C   UNL     1       2.327   6.323  19.461  0.00  0.00    +0.000 A 
ATOM      5  C   UNL     1       1.933   7.338  20.349  0.00  0.00    +0.000 A 
ATOM      6  C   UNL     1       1.725   8.652  19.917  0.00  0.00    +0.000 A 
ENDROOT
BRANCH   4   7
ATOM      7  C   UNL     1       2.303   4.876  19.826  0.00  0.00    +0.000 A 
ATOM      8  C   UNL     1       1.149   4.351  20.459  0.00  0.00    +0.000 A 
ATOM      9  C   UNL     1       1.061   3.017  20.867  0.00  0.00    +0.000 A 
ATOM     10  C   UNL     1       2.114   2.148  20.628  0.00  0.00    +0.000 A 
ATOM     11  C   UNL     1       3.264   2.619  20.000  0.00  0.00    +0.000 A 
ATOM     12  C   UNL     1       3.388   3.975  19.616  0.00  0.00    +0.000 A 
BRANCH  12  13
ATOM     13  C   UNL     1       4.663   4.357  19.031  0.00  0.00    +0.000 A 
ATOM     14  N   UNL     1       5.673   4.921  19.782  0.00  0.00    +0.000 NA
ATOM     15  N   UNL     1       6.711   5.078  18.973  0.00  0.00    +0.000 NA
ATOM     16  N   UNL     1       6.285   4.624  17.790  0.00  0.00    +0.000 N 
ATOM     17  N   UNL     1       5.011   4.213  17.741  0.00  0.00    +0.000 NA
ATOM     18  H   UNL     1       6.901   4.573  16.984  0.00  0.00    +0.000 HD
ENDBRANCH  12  13
ENDBRANCH   4   7
BRANCH   1  19
ATOM     19  C   UNL     1       1.626  10.381  18.083  0.00  0.00    +0.000 C 
BRANCH  19  28
ATOM     20  C   UNL     1       0.336  11.732  19.768  0.00  0.00    +0.000 A 
ATOM     21  N   UNL     1      -0.882  12.177  19.967  0.00  0.00    +0.000 NA
ATOM     22  C   UNL     1      -1.654  11.529  19.037  0.00  0.00    +0.000 A 
ATOM     23  C   UNL     1      -3.033  11.633  18.802  0.00  0.00    +0.000 A 
ATOM     24  C   UNL     1      -3.619  10.804  17.840  0.00  0.00    +0.000 A 
ATOM     25  C   UNL     1      -2.846   9.888  17.126  0.00  0.00    +0.000 A 
ATOM     26  C   UNL     1      -1.462   9.801  17.315  0.00  0.00    +0.000 A 
ATOM     27  C   UNL     1      -0.889  10.652  18.268  0.00  0.00    +0.000 A 
ATOM     28  N   UNL     1       0.406  10.878  18.695  0.00  0.00    +0.000 N 
BRANCH  20  29
ATOM     29  O   UNL     1       1.393  12.035  20.521  0.00  0.00    +0.000 OA
BRANCH  29  31
ATOM     30  C   UNL     1       2.511  13.787  19.333  0.00  0.00    +0.000 C 
ATOM     31  C   UNL     1       1.679  13.433  20.548  0.00  0.00    +0.000 C 
ENDBRANCH  29  31
ENDBRANCH  20  29
ENDBRANCH  19  28
ENDBRANCH   1  19
TORSDOF 6
ENDMDL
MODEL 4
REMARK VINA RESULT:      -8.6      2.796      7.969
REMARK  Name = 
REMARK  7 active torsions:
REMARK  status: ('A' for Active; 'I' for Inactive)
REMARK    1  A    between atoms: C_1  and  C_2
REMARK    2  A    between atoms: C_2  and  O_3
REMARK    3  A    between atoms: O_3  and  C_4
REMARK    4  A    between atoms: N_12  and  C_13
REMARK    5  A    between atoms: C_13  and  C_14
REMARK    6  A    between atoms: C_17  and  C_18
REMARK    7  A    between atoms: C_23  and  C_24
REMARK                            x       y       z     vdW  Elec       q    Type
REMARK                         _______ _______ _______ _____ _____    ______ ____
ROOT
ATOM      1  C   UNL     1       2.628   7.509  18.482  0.00  0.00    +0.000 A 
ATOM      2  C   UNL     1       1.905   8.581  17.956  0.00  0.00    +0.000 A 
ATOM      3  C   UNL     1       1.128   9.389  18.793  0.00  0.00    +0.000 A 
ATOM      4  C   UNL     1       1.008   9.131  20.171  0.00  0.00    +0.000 A 
ATOM      5  C   UNL     1       1.596   7.942  20.636  0.00  0.00    +0.000 A 
ATOM      6  C   UNL     1       2.432   7.170  19.823  0.00  0.00    +0.000 A 
ENDROOT
BRANCH   4   7
ATOM      7  C   UNL     1       0.334  10.107  21.078  0.00  0.00    +0.000 A 
ATOM      8  C   UNL     1      -0.360   9.617  22.212  0.00  0.00    +0.000 A 
ATOM      9  C   UNL     1      -1.049  10.460  23.089  0.00  0.00    +0.000 A 
ATOM     10  C   UNL     1      -1.042  11.831  22.882  0.00  0.00    +0.000 A 
ATOM     11  C   UNL     1      -0.364  12.356  21.786  0.00  0.00    +0.000 A 
ATOM     12  C   UNL     1       0.305  11.516  20.863  0.00  0.00    +0.000 A 
BRANCH  12  13
ATOM     13  C   UNL     1       0.916  12.180  19.725  0.00  0.00    +0.000 A 
ATOM     14  N   UNL     1       2.238  12.573  19.730  0.00  0.00    +0.000 NA
ATOM     15  N   UNL     1       2.495  13.073  18.530  0.00  0.00    +0.000 NA
ATOM     16  N   UNL     1       1.336  12.974  17.871  0.00  0.00    +0.000 N 
ATOM     17  N   UNL     1       0.303  12.481  18.567  0.00  0.00    +0.000 NA
ATOM     18  H   UNL     1       1.253  13.237  16.893  0.00  0.00    +0.000 HD
ENDBRANCH  12  13
ENDBRANCH   4   7
BRANCH   1  19
ATOM     19  C   UNL     1       3.648   6.783  17.647  0.00  0.00    +0.000 C 
BRANCH  19  28
ATOM     20  C   UNL     1       5.181   5.086  18.695  0.00  0.00    +0.000 A 
ATOM     21  N   UNL     1       5.115   3.928  19.309  0.00  0.00    +0.000 NA
ATOM     22  C   UNL     1       3.824   3.503  19.131  0.00  0.00    +0.000 A 
ATOM     23  C   UNL     1       3.207   2.328  19.584  0.00  0.00    +0.000 A 
ATOM     24  C   UNL     1       1.885   2.070  19.207  0.00  0.00    +0.000 A 
ATOM     25  C   UNL     1       1.191   2.966  18.395  0.00  0.00    +0.000 A 
ATOM     26  C   UNL     1       1.774   4.166  17.970  0.00  0.00    +0.000 A 
ATOM     27  C   UNL     1       3.091   4.417  18.372  0.00  0.00    +0.000 A 
ATOM     28  N   UNL     1       3.963   5.473  18.190  0.00  0.00    +0.000 N 
BRANCH  20  29
ATOM     29  O   UNL     1       6.290   5.808  18.542  0.00  0.00    +0.000 OA
BRANCH  29  31
ATOM     30  C   UNL     1       7.065   4.864  16.483  0.00  0.00    +0.000 C 
ATOM     31  C   UNL     1       7.361   5.071  17.953  0.00  0.00    +0.000 C 
ENDBRANCH  29  31
ENDBRANCH  20  29
ENDBRANCH  19  28
ENDBRANCH   1  19
TORSDOF 6
ENDMDL
MODEL 5
REMARK VINA RESULT:      -8.6      2.478      8.206
REMARK  Name = 
REMARK  7 active torsions:
REMARK  status: ('A' for Active; 'I' for Inactive)
REMARK    1  A    between atoms: C_1  and  C_2
REMARK    2  A    between atoms: C_2  and  O_3
REMARK    3  A    between atoms: O_3  and  C_4
REMARK    4  A    between atoms: N_12  and  C_13
REMARK    5  A    between atoms: C_13  and  C_14
REMARK    6  A    between atoms: C_17  and  C_18
REMARK    7  A    between atoms: C_23  and  C_24
REMARK                            x       y       z     vdW  Elec       q    Type
REMARK                         _______ _______ _______ _____ _____    ______ ____
ROOT
ATOM      1  C   UNL     1       2.679   7.067  19.480  0.00  0.00    +0.000 A 
ATOM      2  C   UNL     1       1.857   7.671  20.434  0.00  0.00    +0.000 A 
ATOM      3  C   UNL     1       0.974   8.691  20.066  0.00  0.00    +0.000 A 
ATOM      4  C   UNL     1       0.911   9.177  18.746  0.00  0.00    +0.000 A 
ATOM      5  C   UNL     1       1.876   8.680  17.852  0.00  0.00    +0.000 A 
ATOM      6  C   UNL     1       2.712   7.612  18.194  0.00  0.00    +0.000 A 
ENDROOT
BRANCH   4   7
ATOM      7  C   UNL     1      -0.162  10.127  18.329  0.00  0.00    +0.000 A 
ATOM      8  C   UNL     1      -1.221   9.647  17.520  0.00  0.00    +0.000 A 
ATOM      9  C   UNL     1      -2.244  10.479  17.055  0.00  0.00    +0.000 A 
ATOM     10  C   UNL     1      -2.263  11.819  17.411  0.00  0.00    +0.000 A 
ATOM     11  C   UNL     1      -1.247  12.331  18.213  0.00  0.00    +0.000 A 
ATOM     12  C   UNL     1      -0.180  11.514  18.659  0.00  0.00    +0.000 A 
BRANCH  12  13
ATOM     13  C   UNL     1       0.853  12.182  19.432  0.00  0.00    +0.000 A 
ATOM     14  N   UNL     1       0.801  12.261  20.808  0.00  0.00    +0.000 NA
ATOM     15  N   UNL     1       1.916  12.860  21.200  0.00  0.00    +0.000 NA
ATOM     16  N   UNL     1       2.572  13.123  20.065  0.00  0.00    +0.000 N 
ATOM     17  N   UNL     1       1.947  12.779  18.931  0.00  0.00    +0.000 NA
ATOM     18  H   UNL     1       3.500  13.538  20.068  0.00  0.00    +0.000 HD
ENDBRANCH  12  13
ENDBRANCH   4   7
BRANCH   1  19
ATOM     19  C   UNL     1       3.452   5.819  19.807  0.00  0.00    +0.000 C 
BRANCH  19  28
ATOM     20  C   UNL     1       2.763   4.286  17.935  0.00  0.00    +0.000 A 
ATOM     21  N   UNL     1       3.230   3.831  16.796  0.00  0.00    +0.000 NA
ATOM     22  C   UNL     1       4.549   4.203  16.778  0.00  0.00    +0.000 A 
ATOM     23  C   UNL     1       5.520   3.977  15.792  0.00  0.00    +0.000 A 
ATOM     24  C   UNL     1       6.836   4.387  16.033  0.00  0.00    +0.000 A 
ATOM     25  C   UNL     1       7.178   5.009  17.232  0.00  0.00    +0.000 A 
ATOM     26  C   UNL     1       6.214   5.283  18.210  0.00  0.00    +0.000 A 
ATOM     27  C   UNL     1       4.899   4.884  17.945  0.00  0.00    +0.000 A 
ATOM     28  N   UNL     1       3.704   5.010  18.627  0.00  0.00    +0.000 N 
BRANCH  20  29
ATOM     29  O   UNL     1       1.535   4.065  18.401  0.00  0.00    +0.000 OA
BRANCH  29  31
ATOM     30  C   UNL     1       1.111   3.007  20.507  0.00  0.00    +0.000 C 
ATOM     31  C   UNL     1       1.398   2.793  19.035  0.00  0.00    +0.000 C 
ENDBRANCH  29  31
ENDBRANCH  20  29
ENDBRANCH  19  28
ENDBRANCH   1  19
TORSDOF 6
ENDMDL
MODEL 6
REMARK VINA RESULT:      -8.6      0.857      1.573
REMARK  Name = 
REMARK  7 active torsions:
REMARK  status: ('A' for Active; 'I' for Inactive)
REMARK    1  A    between atoms: C_1  and  C_2
REMARK    2  A    between atoms: C_2  and  O_3
REMARK    3  A    between atoms: O_3  and  C_4
REMARK    4  A    between atoms: N_12  and  C_13
REMARK    5  A    between atoms: C_13  and  C_14
REMARK    6  A    between atoms: C_17  and  C_18
REMARK    7  A    between atoms: C_23  and  C_24
REMARK                            x       y       z     vdW  Elec       q    Type
REMARK                         _______ _______ _______ _____ _____    ______ ____
ROOT
ATOM      1  C   UNL     1       1.465   9.172  18.992  0.00  0.00    +0.000 A 
ATOM      2  C   UNL     1       1.413   8.503  20.217  0.00  0.00    +0.000 A 
ATOM      3  C   UNL     1       1.890   7.193  20.328  0.00  0.00    +0.000 A 
ATOM      4  C   UNL     1       2.391   6.489  19.218  0.00  0.00    +0.000 A 
ATOM      5  C   UNL     1       2.261   7.120  17.969  0.00  0.00    +0.000 A 
ATOM      6  C   UNL     1       1.852   8.453  17.859  0.00  0.00    +0.000 A 
ENDROOT
BRANCH   4   7
ATOM      7  C   UNL     1       3.068   5.169  19.388  0.00  0.00    +0.000 A 
ATOM      8  C   UNL     1       2.546   4.252  20.333  0.00  0.00    +0.000 A 
ATOM      9  C   UNL     1       3.143   3.012  20.581  0.00  0.00    +0.000 A 
ATOM     10  C   UNL     1       4.268   2.629  19.867  0.00  0.00    +0.000 A 
ATOM     11  C   UNL     1       4.808   3.495  18.921  0.00  0.00    +0.000 A 
ATOM     12  C   UNL     1       4.243   4.771  18.685  0.00  0.00    +0.000 A 
BRANCH  12  13
ATOM     13  C   UNL     1       4.940   5.608  17.722  0.00  0.00    +0.000 A 
ATOM     14  N   UNL     1       4.763   5.460  16.362  0.00  0.00    +0.000 NA
ATOM     15  N   UNL     1       5.476   6.413  15.777  0.00  0.00    +0.000 NA
ATOM     16  N   UNL     1       6.049   7.072  16.790  0.00  0.00    +0.000 N 
ATOM     17  N   UNL     1       5.804   6.594  18.017  0.00  0.00    +0.000 NA
ATOM     18  H   UNL     1       6.617   7.900  16.635  0.00  0.00    +0.000 HD
ENDBRANCH  12  13
ENDBRANCH   4   7
BRANCH   1  19
ATOM     19  C   UNL     1       1.182  10.648  18.907  0.00  0.00    +0.000 C 
BRANCH  19  28
ATOM     20  C   UNL     1      -0.726  11.600  20.242  0.00  0.00    +0.000 A 
ATOM     21  N   UNL     1      -1.990  11.919  20.088  0.00  0.00    +0.000 NA
ATOM     22  C   UNL     1      -2.346  11.385  18.877  0.00  0.00    +0.000 A 
ATOM     23  C   UNL     1      -3.584  11.429  18.218  0.00  0.00    +0.000 A 
ATOM     24  C   UNL     1      -3.733  10.734  17.013  0.00  0.00    +0.000 A 
ATOM     25  C   UNL     1      -2.670  10.009  16.475  0.00  0.00    +0.000 A 
ATOM     26  C   UNL     1      -1.415   9.989  17.095  0.00  0.00    +0.000 A 
ATOM     27  C   UNL     1      -1.277  10.705  18.290  0.00  0.00    +0.000 A 
ATOM     28  N   UNL     1      -0.220  10.947  19.145  0.00  0.00    +0.000 N 
BRANCH  20  29
ATOM     29  O   UNL     1      -0.003  11.846  21.334  0.00  0.00    +0.000 OA
BRANCH  29  31
ATOM     30  C   UNL     1      -0.524  10.200  22.992  0.00  0.00    +0.000 C 
ATOM     31  C   UNL     1      -0.728  11.632  22.545  0.00  0.00    +0.000 C 
ENDBRANCH  29  31
ENDBRANCH  20  29
ENDBRANCH  19  28
ENDBRANCH   1  19
TORSDOF 6
ENDMDL
MODEL 7
REMARK VINA RESULT:      -8.6      2.221      8.082
REMARK  Name = 
REMARK  7 active torsions:
REMARK  status: ('A' for Active; 'I' for Inactive)
REMARK    1  A    between atoms: C_1  and  C_2
REMARK    2  A    between atoms: C_2  and  O_3
REMARK    3  A    between atoms: O_3  and  C_4
REMARK    4  A    between atoms: N_12  and  C_13
REMARK    5  A    between atoms: C_13  and  C_14
REMARK    6  A    between atoms: C_17  and  C_18
REMARK    7  A    between atoms: C_23  and  C_24
REMARK                            x       y       z     vdW  Elec       q    Type
REMARK                         _______ _______ _______ _____ _____    ______ ____
ROOT
ATOM      1  C   UNL     1       2.482   7.747  18.380  0.00  0.00    +0.000 A 
ATOM      2  C   UNL     1       2.187   7.407  19.702  0.00  0.00    +0.000 A 
ATOM      3  C   UNL     1       1.411   8.259  20.496  0.00  0.00    +0.000 A 
ATOM      4  C   UNL     1       0.942   9.497  20.017  0.00  0.00    +0.000 A 
ATOM      5  C   UNL     1       1.409   9.893  18.752  0.00  0.00    +0.000 A 
ATOM      6  C   UNL     1       2.123   9.018  17.926  0.00  0.00    +0.000 A 
ENDROOT
BRANCH   4   7
ATOM      7  C   UNL     1      -0.036  10.302  20.806  0.00  0.00    +0.000 A 
ATOM      8  C   UNL     1       0.057  10.296  22.219  0.00  0.00    +0.000 A 
ATOM      9  C   UNL     1      -0.844  10.993  23.031  0.00  0.00    +0.000 A 
ATOM     10  C   UNL     1      -1.853  11.749  22.457  0.00  0.00    +0.000 A 
ATOM     11  C   UNL     1      -1.975  11.792  21.070  0.00  0.00    +0.000 A 
ATOM     12  C   UNL     1      -1.099  11.061  20.233  0.00  0.00    +0.000 A 
BRANCH  12  13
ATOM     13  C   UNL     1      -1.373  11.134  18.807  0.00  0.00    +0.000 A 
ATOM     14  N   UNL     1      -1.925  10.078  18.113  0.00  0.00    +0.000 NA
ATOM     15  N   UNL     1      -2.111  10.492  16.868  0.00  0.00    +0.000 NA
ATOM     16  N   UNL     1      -1.660  11.751  16.863  0.00  0.00    +0.000 N 
ATOM     17  N   UNL     1      -1.140  12.194  18.015  0.00  0.00    +0.000 NA
ATOM     18  H   UNL     1      -1.730  12.340  16.039  0.00  0.00    +0.000 HD
ENDBRANCH  12  13
ENDBRANCH   4   7
BRANCH   1  19
ATOM     19  C   UNL     1       3.104   6.744  17.447  0.00  0.00    +0.000 C 
BRANCH  19  28
ATOM     20  C   UNL     1       4.753   5.301  18.683  0.00  0.00    +0.000 A 
ATOM     21  N   UNL     1       4.771   4.224  19.432  0.00  0.00    +0.000 NA
ATOM     22  C   UNL     1       3.514   3.688  19.313  0.00  0.00    +0.000 A 
ATOM     23  C   UNL     1       2.983   2.534  19.907  0.00  0.00    +0.000 A 
ATOM     24  C   UNL     1       1.685   2.138  19.570  0.00  0.00    +0.000 A 
ATOM     25  C   UNL     1       0.930   2.876  18.661  0.00  0.00    +0.000 A 
ATOM     26  C   UNL     1       1.425   4.056  18.092  0.00  0.00    +0.000 A 
ATOM     27  C   UNL     1       2.720   4.448  18.453  0.00  0.00    +0.000 A 
ATOM     28  N   UNL     1       3.513   5.536  18.142  0.00  0.00    +0.000 N 
BRANCH  20  29
ATOM     29  O   UNL     1       5.807   6.079  18.438  0.00  0.00    +0.000 OA
BRANCH  29  31
ATOM     30  C   UNL     1       7.349   4.736  17.193  0.00  0.00    +0.000 C 
ATOM     31  C   UNL     1       7.050   5.383  18.529  0.00  0.00    +0.000 C 
ENDBRANCH  29  31
ENDBRANCH  20  29
ENDBRANCH  19  28
ENDBRANCH   1  19
TORSDOF 6
ENDMDL
MODEL 8
REMARK VINA RESULT:      -8.5      2.440      4.096
REMARK  Name = 
REMARK  7 active torsions:
REMARK  status: ('A' for Active; 'I' for Inactive)
REMARK    1  A    between atoms: C_1  and  C_2
REMARK    2  A    between atoms: C_2  and  O_3
REMARK    3  A    between atoms: O_3  and  C_4
REMARK    4  A    between atoms: N_12  and  C_13
REMARK    5  A    between atoms: C_13  and  C_14
REMARK    6  A    between atoms: C_17  and  C_18
REMARK    7  A    between atoms: C_23  and  C_24
REMARK                            x       y       z     vdW  Elec       q    Type
REMARK                         _______ _______ _______ _____ _____    ______ ____
ROOT
ATOM      1  C   UNL     1       1.047   8.912  19.751  0.00  0.00    +0.000 A 
ATOM      2  C   UNL     1       1.487   9.102  18.439  0.00  0.00    +0.000 A 
ATOM      3  C   UNL     1       2.338   8.170  17.836  0.00  0.00    +0.000 A 
ATOM      4  C   UNL     1       2.817   7.044  18.531  0.00  0.00    +0.000 A 
ATOM      5  C   UNL     1       2.508   6.978  19.901  0.00  0.00    +0.000 A 
ATOM      6  C   UNL     1       1.601   7.865  20.491  0.00  0.00    +0.000 A 
ENDROOT
BRANCH   4   7
ATOM      7  C   UNL     1       3.566   5.965  17.821  0.00  0.00    +0.000 A 
ATOM      8  C   UNL     1       4.510   6.330  16.829  0.00  0.00    +0.000 A 
ATOM      9  C   UNL     1       5.224   5.381  16.092  0.00  0.00    +0.000 A 
ATOM     10  C   UNL     1       5.045   4.029  16.342  0.00  0.00    +0.000 A 
ATOM     11  C   UNL     1       4.134   3.627  17.316  0.00  0.00    +0.000 A 
ATOM     12  C   UNL     1       3.371   4.570  18.044  0.00  0.00    +0.000 A 
BRANCH  12  13
ATOM     13  C   UNL     1       2.407   4.021  18.982  0.00  0.00    +0.000 A 
ATOM     14  N   UNL     1       2.770   3.611  20.248  0.00  0.00    +0.000 NA
ATOM     15  N   UNL     1       1.658   3.237  20.864  0.00  0.00    +0.000 NA
ATOM     16  N   UNL     1       0.694   3.422  19.956  0.00  0.00    +0.000 N 
ATOM     17  N   UNL     1       1.094   3.853  18.753  0.00  0.00    +0.000 NA
ATOM     18  H   UNL     1      -0.286   3.265  20.177  0.00  0.00    +0.000 HD
ENDBRANCH  12  13
ENDBRANCH   4   7
BRANCH   1  19
ATOM     19  C   UNL     1      -0.047   9.768  20.328  0.00  0.00    +0.000 C 
BRANCH  19  28
ATOM     20  C   UNL     1      -1.342  11.069  18.608  0.00  0.00    +0.000 A 
ATOM     21  N   UNL     1      -1.463  12.301  18.173  0.00  0.00    +0.000 NA
ATOM     22  C   UNL     1      -0.425  12.986  18.749  0.00  0.00    +0.000 A 
ATOM     23  C   UNL     1      -0.080  14.340  18.628  0.00  0.00    +0.000 A 
ATOM     24  C   UNL     1       1.083  14.800  19.254  0.00  0.00    +0.000 A 
ATOM     25  C   UNL     1       1.888  13.928  19.986  0.00  0.00    +0.000 A 
ATOM     26  C   UNL     1       1.538  12.583  20.155  0.00  0.00    +0.000 A 
ATOM     27  C   UNL     1       0.360  12.143  19.538  0.00  0.00    +0.000 A 
ATOM     28  N   UNL     1      -0.313  10.937  19.508  0.00  0.00    +0.000 N 
BRANCH  20  29
ATOM     29  O   UNL     1      -2.098  10.043  18.219  0.00  0.00    +0.000 OA
BRANCH  29  31
ATOM     30  C   UNL     1      -2.723   9.817  15.919  0.00  0.00    +0.000 C 
ATOM     31  C   UNL     1      -3.092  10.411  17.263  0.00  0.00    +0.000 C 
ENDBRANCH  29  31
ENDBRANCH  20  29
ENDBRANCH  19  28
ENDBRANCH   1  19
TORSDOF 6
ENDMDL
MODEL 9
REMARK VINA RESULT:      -8.5      2.470      4.305
REMARK  Name = 
REMARK  7 active torsions:
REMARK  status: ('A' for Active; 'I' for Inactive)
REMARK    1  A    between atoms: C_1  and  C_2
REMARK    2  A    between atoms: C_2  and  O_3
REMARK    3  A    between atoms: O_3  and  C_4
REMARK    4  A    between atoms: N_12  and  C_13
REMARK    5  A    between atoms: C_13  and  C_14
REMARK    6  A    between atoms: C_17  and  C_18
REMARK    7  A    between atoms: C_23  and  C_24
REMARK                            x       y       z     vdW  Elec       q    Type
REMARK                         _______ _______ _______ _____ _____    ______ ____
ROOT
ATOM      1  C   UNL     1       1.337   9.023  19.717  0.00  0.00    +0.000 A 
ATOM      2  C   UNL     1       1.707   7.809  20.299  0.00  0.00    +0.000 A 
ATOM      3  C   UNL     1       2.470   6.881  19.581  0.00  0.00    +0.000 A 
ATOM      4  C   UNL     1       2.851   7.110  18.245  0.00  0.00    +0.000 A 
ATOM      5  C   UNL     1       2.310   8.252  17.630  0.00  0.00    +0.000 A 
ATOM      6  C   UNL     1       1.608   9.217  18.360  0.00  0.00    +0.000 A 
ENDROOT
BRANCH   4   7
ATOM      7  C   UNL     1       3.819   6.205  17.559  0.00  0.00    +0.000 A 
ATOM      8  C   UNL     1       4.916   6.777  16.869  0.00  0.00    +0.000 A 
ATOM      9  C   UNL     1       5.846   6.002  16.169  0.00  0.00    +0.000 A 
ATOM     10  C   UNL     1       5.730   4.620  16.160  0.00  0.00    +0.000 A 
ATOM     11  C   UNL     1       4.672   4.016  16.833  0.00  0.00    +0.000 A 
ATOM     12  C   UNL     1       3.697   4.785  17.513  0.00  0.00    +0.000 A 
BRANCH  12  13
ATOM     13  C   UNL     1       2.606   4.040  18.118  0.00  0.00    +0.000 A 
ATOM     14  N   UNL     1       1.376   3.919  17.507  0.00  0.00    +0.000 NA
ATOM     15  N   UNL     1       0.642   3.126  18.276  0.00  0.00    +0.000 NA
ATOM     16  N   UNL     1       1.443   2.821  19.303  0.00  0.00    +0.000 N 
ATOM     17  N   UNL     1       2.653   3.395  19.296  0.00  0.00    +0.000 NA
ATOM     18  H   UNL     1       1.155   2.173  20.031  0.00  0.00    +0.000 HD
ENDBRANCH  12  13
ENDBRANCH   4   7
BRANCH   1  19
ATOM     19  C   UNL     1       0.729  10.122  20.545  0.00  0.00    +0.000 C 
BRANCH  19  28
ATOM     20  C   UNL     1      -0.892  11.251  18.988  0.00  0.00    +0.000 A 
ATOM     21  N   UNL     1      -1.159  12.449  18.524  0.00  0.00    +0.000 NA
ATOM     22  C   UNL     1      -0.094  13.223  18.904  0.00  0.00    +0.000 A 
ATOM     23  C   UNL     1       0.138  14.587  18.674  0.00  0.00    +0.000 A 
ATOM     24  C   UNL     1       1.348  15.148  19.094  0.00  0.00    +0.000 A 
ATOM     25  C   UNL     1       2.310  14.365  19.731  0.00  0.00    +0.000 A 
ATOM     26  C   UNL     1       2.079  13.012  20.010  0.00  0.00    +0.000 A 
ATOM     27  C   UNL     1       0.855  12.472  19.600  0.00  0.00    +0.000 A 
ATOM     28  N   UNL     1       0.266  11.228  19.725  0.00  0.00    +0.000 N 
BRANCH  20  29
ATOM     29  O   UNL     1      -1.628  10.163  18.764  0.00  0.00    +0.000 OA
BRANCH  29  31
ATOM     30  C   UNL     1      -3.427   9.900  17.207  0.00  0.00    +0.000 C 
ATOM     31  C   UNL     1      -1.924   9.963  17.382  0.00  0.00    +0.000 C 
ENDBRANCH  29  31
ENDBRANCH  20  29
ENDBRANCH  19  28
ENDBRANCH   1  19
TORSDOF 6
ENDMDL
