MODEL 1
REMARK VINA RESULT:      -6.1      0.000      0.000
REMARK  Name = 
REMARK  4 active torsions:
REMARK  status: ('A' for Active; 'I' for Inactive)
REMARK    1  A    between atoms: C_1  and  N_2
REMARK    2  A    between atoms: C_3  and  S_4
REMARK    3  A    between atoms: C_3  and  C_5
REMARK    4  A    between atoms: C_5  and  C_6
REMARK                            x       y       z     vdW  Elec       q    Type
REMARK                         _______ _______ _______ _____ _____    ______ ____
ROOT
ATOM      1  C   UNL     1       6.066   5.643  16.878  0.00  0.00    +0.000 C 
ATOM      2  C   UNL     1       6.672   4.251  16.604  0.00  0.00    +0.000 C 
ATOM      3  C   UNL     1       6.017   3.843  15.308  0.00  0.00    +0.000 C 
ATOM      4  C   UNL     1       5.980   5.156  14.567  0.00  0.00    +0.000 C 
ATOM      5  O   UNL     1       5.830   6.191  15.546  0.00  0.00    +0.000 OA
ENDROOT
BRANCH   1   6
ATOM      6  C   UNL     1       4.727   5.532  17.629  0.00  0.00    +0.000 A 
ATOM      7  C   UNL     1       3.792   6.571  17.584  0.00  0.00    +0.000 A 
ATOM      8  C   UNL     1       2.588   6.444  18.270  0.00  0.00    +0.000 A 
ATOM      9  C   UNL     1       2.331   5.281  18.982  0.00  0.00    +0.000 A 
ATOM     10  C   UNL     1       3.301   4.295  18.987  0.00  0.00    +0.000 A 
ATOM     11  N   UNL     1       4.484   4.399  18.341  0.00  0.00    +0.000 NA
ENDBRANCH   1   6
BRANCH   1  14
ATOM     12  C   UNL     1       8.154   8.714  17.887  0.00  0.00    +0.000 C 
ATOM     13  N   UNL     1       7.261   7.789  17.218  0.00  0.00    +0.000 NA
ATOM     14  C   UNL     1       7.057   6.585  17.632  0.00  0.00    +0.000 C 
BRANCH  14  15
ATOM     15  S   UNL     1       7.801   5.897  19.088  0.00  0.00    +0.000 S 
ATOM     16  H   UNL     1       9.081   6.020  18.733  0.00  0.00    +0.000 HD
ENDBRANCH  14  15
ENDBRANCH   1  14
TORSDOF 3
ENDMDL
MODEL 2
REMARK VINA RESULT:      -6.0      2.662      4.503
REMARK  Name = 
REMARK  4 active torsions:
REMARK  status: ('A' for Active; 'I' for Inactive)
REMARK    1  A    between atoms: C_1  and  N_2
REMARK    2  A    between atoms: C_3  and  S_4
REMARK    3  A    between atoms: C_3  and  C_5
REMARK    4  A    between atoms: C_5  and  C_6
REMARK                            x       y       z     vdW  Elec       q    Type
REMARK                         _______ _______ _______ _____ _____    ______ ____
ROOT
ATOM      1  C   UNL     1       3.834   4.088  18.276  0.00  0.00    +0.000 C 
ATOM      2  C   UNL     1       2.826   3.070  17.705  0.00  0.00    +0.000 C 
ATOM      3  C   UNL     1       3.383   1.746  18.164  0.00  0.00    +0.000 C 
ATOM      4  C   UNL     1       3.882   2.095  19.543  0.00  0.00    +0.000 C 
ATOM      5  O   UNL     1       4.307   3.462  19.507  0.00  0.00    +0.000 OA
ENDROOT
BRANCH   1   6
ATOM      6  C   UNL     1       5.023   4.295  17.319  0.00  0.00    +0.000 A 
ATOM      7  C   UNL     1       4.851   4.218  15.934  0.00  0.00    +0.000 A 
ATOM      8  C   UNL     1       5.942   4.413  15.093  0.00  0.00    +0.000 A 
ATOM      9  C   UNL     1       7.185   4.690  15.644  0.00  0.00    +0.000 A 
ATOM     10  C   UNL     1       7.284   4.748  17.023  0.00  0.00    +0.000 A 
ATOM     11  N   UNL     1       6.244   4.550  17.862  0.00  0.00    +0.000 NA
ENDBRANCH   1   6
BRANCH   1  14
ATOM     12  C   UNL     1       2.672   7.754  18.136  0.00  0.00    +0.000 C 
ATOM     13  N   UNL     1       3.287   6.471  17.861  0.00  0.00    +0.000 NA
ATOM     14  C   UNL     1       3.163   5.450  18.639  0.00  0.00    +0.000 C 
BRANCH  14  15
ATOM     15  S   UNL     1       2.201   5.449  20.130  0.00  0.00    +0.000 S 
ATOM     16  H   UNL     1       1.038   5.853  19.614  0.00  0.00    +0.000 HD
ENDBRANCH  14  15
ENDBRANCH   1  14
TORSDOF 3
ENDMDL
MODEL 3
REMARK VINA RESULT:      -6.0      0.754      1.252
REMARK  Name = 
REMARK  4 active torsions:
REMARK  status: ('A' for Active; 'I' for Inactive)
REMARK    1  A    between atoms: C_1  and  N_2
REMARK    2  A    between atoms: C_3  and  S_4
REMARK    3  A    between atoms: C_3  and  C_5
REMARK    4  A    between atoms: C_5  and  C_6
REMARK                            x       y       z     vdW  Elec       q    Type
REMARK                         _______ _______ _______ _____ _____    ______ ____
ROOT
ATOM      1  C   UNL     1       6.147   5.597  16.716  0.00  0.00    +0.000 C 
ATOM      2  C   UNL     1       6.795   4.223  16.450  0.00  0.00    +0.000 C 
ATOM      3  C   UNL     1       6.223   3.831  15.111  0.00  0.00    +0.000 C 
ATOM      4  C   UNL     1       6.203   5.158  14.396  0.00  0.00    +0.000 C 
ATOM      5  O   UNL     1       5.976   6.169  15.384  0.00  0.00    +0.000 OA
ENDROOT
BRANCH   1   6
ATOM      6  C   UNL     1       4.769   5.446  17.387  0.00  0.00    +0.000 A 
ATOM      7  C   UNL     1       4.340   4.206  17.872  0.00  0.00    +0.000 A 
ATOM      8  C   UNL     1       3.092   4.099  18.476  0.00  0.00    +0.000 A 
ATOM      9  C   UNL     1       2.295   5.228  18.598  0.00  0.00    +0.000 A 
ATOM     10  C   UNL     1       2.780   6.422  18.094  0.00  0.00    +0.000 A 
ATOM     11  N   UNL     1       3.983   6.551  17.490  0.00  0.00    +0.000 NA
ENDBRANCH   1   6
BRANCH   1  14
ATOM     12  C   UNL     1       8.148   8.671  17.880  0.00  0.00    +0.000 C 
ATOM     13  N   UNL     1       7.312   7.744  17.143  0.00  0.00    +0.000 NA
ATOM     14  C   UNL     1       7.074   6.542  17.545  0.00  0.00    +0.000 C 
BRANCH  14  15
ATOM     15  S   UNL     1       7.694   5.860  19.060  0.00  0.00    +0.000 S 
ATOM     16  H   UNL     1       8.979   6.187  18.912  0.00  0.00    +0.000 HD
ENDBRANCH  14  15
ENDBRANCH   1  14
TORSDOF 3
ENDMDL
MODEL 4
REMARK VINA RESULT:      -5.9      2.869      4.448
REMARK  Name = 
REMARK  4 active torsions:
REMARK  status: ('A' for Active; 'I' for Inactive)
REMARK    1  A    between atoms: C_1  and  N_2
REMARK    2  A    between atoms: C_3  and  S_4
REMARK    3  A    between atoms: C_3  and  C_5
REMARK    4  A    between atoms: C_5  and  C_6
REMARK                            x       y       z     vdW  Elec       q    Type
REMARK                         _______ _______ _______ _____ _____    ______ ____
ROOT
ATOM      1  C   UNL     1       3.832   4.671  18.830  0.00  0.00    +0.000 C 
ATOM      2  C   UNL     1       3.180   4.342  17.471  0.00  0.00    +0.000 C 
ATOM      3  C   UNL     1       3.752   2.987  17.139  0.00  0.00    +0.000 C 
ATOM      4  C   UNL     1       3.775   2.333  18.497  0.00  0.00    +0.000 C 
ATOM      5  O   UNL     1       4.005   3.367  19.461  0.00  0.00    +0.000 OA
ENDROOT
BRANCH   1   6
ATOM      6  C   UNL     1       5.209   5.335  18.644  0.00  0.00    +0.000 A 
ATOM      7  C   UNL     1       5.469   6.147  17.537  0.00  0.00    +0.000 A 
ATOM      8  C   UNL     1       6.722   6.737  17.396  0.00  0.00    +0.000 A 
ATOM      9  C   UNL     1       7.690   6.517  18.365  0.00  0.00    +0.000 A 
ATOM     10  C   UNL     1       7.365   5.700  19.432  0.00  0.00    +0.000 A 
ATOM     11  N   UNL     1       6.162   5.104  19.586  0.00  0.00    +0.000 NA
ENDBRANCH   1   6
BRANCH   1  14
ATOM     12  C   UNL     1       1.871   7.647  20.280  0.00  0.00    +0.000 C 
ATOM     13  N   UNL     1       2.731   6.795  19.485  0.00  0.00    +0.000 NA
ATOM     14  C   UNL     1       2.907   5.542  19.737  0.00  0.00    +0.000 C 
BRANCH  14  15
ATOM     15  S   UNL     1       2.102   4.673  21.058  0.00  0.00    +0.000 S 
ATOM     16  H   UNL     1       0.862   5.127  20.866  0.00  0.00    +0.000 HD
ENDBRANCH  14  15
ENDBRANCH   1  14
TORSDOF 3
ENDMDL
MODEL 5
REMARK VINA RESULT:      -5.8      2.768      4.558
REMARK  Name = 
REMARK  4 active torsions:
REMARK  status: ('A' for Active; 'I' for Inactive)
REMARK    1  A    between atoms: C_1  and  N_2
REMARK    2  A    between atoms: C_3  and  S_4
REMARK    3  A    between atoms: C_3  and  C_5
REMARK    4  A    between atoms: C_5  and  C_6
REMARK                            x       y       z     vdW  Elec       q    Type
REMARK                         _______ _______ _______ _____ _____    ______ ____
ROOT
ATOM      1  C   UNL     1       3.814   4.093  18.300  0.00  0.00    +0.000 C 
ATOM      2  C   UNL     1       2.811   3.071  17.726  0.00  0.00    +0.000 C 
ATOM      3  C   UNL     1       3.373   1.748  18.184  0.00  0.00    +0.000 C 
ATOM      4  C   UNL     1       3.867   2.098  19.565  0.00  0.00    +0.000 C 
ATOM      5  O   UNL     1       4.286   3.467  19.531  0.00  0.00    +0.000 OA
ENDROOT
BRANCH   1   6
ATOM      6  C   UNL     1       5.004   4.306  17.347  0.00  0.00    +0.000 A 
ATOM      7  C   UNL     1       6.278   4.596  17.845  0.00  0.00    +0.000 A 
ATOM      8  C   UNL     1       7.336   4.781  16.961  0.00  0.00    +0.000 A 
ATOM      9  C   UNL     1       7.112   4.665  15.597  0.00  0.00    +0.000 A 
ATOM     10  C   UNL     1       5.826   4.379  15.173  0.00  0.00    +0.000 A 
ATOM     11  N   UNL     1       4.778   4.208  16.009  0.00  0.00    +0.000 NA
ENDBRANCH   1   6
BRANCH   1  14
ATOM     12  C   UNL     1       2.627   7.750  18.157  0.00  0.00    +0.000 C 
ATOM     13  N   UNL     1       3.249   6.471  17.882  0.00  0.00    +0.000 NA
ATOM     14  C   UNL     1       3.136   5.451  18.664  0.00  0.00    +0.000 C 
BRANCH  14  15
ATOM     15  S   UNL     1       2.183   5.449  20.159  0.00  0.00    +0.000 S 
ATOM     16  H   UNL     1       3.170   5.692  21.023  0.00  0.00    +0.000 HD
ENDBRANCH  14  15
ENDBRANCH   1  14
TORSDOF 3
ENDMDL
MODEL 6
REMARK VINA RESULT:      -5.8      2.016      3.173
REMARK  Name = 
REMARK  4 active torsions:
REMARK  status: ('A' for Active; 'I' for Inactive)
REMARK    1  A    between atoms: C_1  and  N_2
REMARK    2  A    between atoms: C_3  and  S_4
REMARK    3  A    between atoms: C_3  and  C_5
REMARK    4  A    between atoms: C_5  and  C_6
REMARK                            x       y       z     vdW  Elec       q    Type
REMARK                         _______ _______ _______ _____ _____    ______ ____
ROOT
ATOM      1  C   UNL     1       6.516   5.690  17.449  0.00  0.00    +0.000 C 
ATOM      2  C   UNL     1       7.454   6.914  17.449  0.00  0.00    +0.000 C 
ATOM      3  C   UNL     1       8.021   6.910  18.846  0.00  0.00    +0.000 C 
ATOM      4  C   UNL     1       8.195   5.433  19.092  0.00  0.00    +0.000 C 
ATOM      5  O   UNL     1       7.157   4.758  18.373  0.00  0.00    +0.000 OA
ENDROOT
BRANCH   1   6
ATOM      6  C   UNL     1       5.118   6.055  17.981  0.00  0.00    +0.000 A 
ATOM      7  C   UNL     1       4.345   7.035  17.351  0.00  0.00    +0.000 A 
ATOM      8  C   UNL     1       3.084   7.343  17.851  0.00  0.00    +0.000 A 
ATOM      9  C   UNL     1       2.608   6.664  18.963  0.00  0.00    +0.000 A 
ATOM     10  C   UNL     1       3.427   5.709  19.539  0.00  0.00    +0.000 A 
ATOM     11  N   UNL     1       4.661   5.400  19.082  0.00  0.00    +0.000 NA
ENDBRANCH   1   6
BRANCH   1  14
ATOM     12  C   UNL     1       7.174   4.773  13.771  0.00  0.00    +0.000 C 
ATOM     13  N   UNL     1       7.202   5.379  15.087  0.00  0.00    +0.000 NA
ATOM     14  C   UNL     1       6.423   5.011  16.047  0.00  0.00    +0.000 C 
BRANCH  14  15
ATOM     15  S   UNL     1       5.238   3.697  15.915  0.00  0.00    +0.000 S 
ATOM     16  H   UNL     1       4.406   4.085  16.883  0.00  0.00    +0.000 HD
ENDBRANCH  14  15
ENDBRANCH   1  14
TORSDOF 3
ENDMDL
MODEL 7
REMARK VINA RESULT:      -5.7      2.580      4.684
REMARK  Name = 
REMARK  4 active torsions:
REMARK  status: ('A' for Active; 'I' for Inactive)
REMARK    1  A    between atoms: C_1  and  N_2
REMARK    2  A    between atoms: C_3  and  S_4
REMARK    3  A    between atoms: C_3  and  C_5
REMARK    4  A    between atoms: C_5  and  C_6
REMARK                            x       y       z     vdW  Elec       q    Type
REMARK                         _______ _______ _______ _____ _____    ______ ____
ROOT
ATOM      1  C   UNL     1       3.352   4.418  18.401  0.00  0.00    +0.000 C 
ATOM      2  C   UNL     1       2.303   3.722  17.509  0.00  0.00    +0.000 C 
ATOM      3  C   UNL     1       2.469   2.265  17.863  0.00  0.00    +0.000 C 
ATOM      4  C   UNL     1       2.722   2.346  19.347  0.00  0.00    +0.000 C 
ATOM      5  O   UNL     1       3.414   3.576  19.592  0.00  0.00    +0.000 OA
ENDROOT
BRANCH   1   6
ATOM      6  C   UNL     1       4.734   4.446  17.723  0.00  0.00    +0.000 A 
ATOM      7  C   UNL     1       4.861   4.242  16.346  0.00  0.00    +0.000 A 
ATOM      8  C   UNL     1       6.122   4.276  15.759  0.00  0.00    +0.000 A 
ATOM      9  C   UNL     1       7.234   4.521  16.551  0.00  0.00    +0.000 A 
ATOM     10  C   UNL     1       7.037   4.710  17.907  0.00  0.00    +0.000 A 
ATOM     11  N   UNL     1       5.825   4.669  18.504  0.00  0.00    +0.000 NA
ENDBRANCH   1   6
BRANCH   1  14
ATOM     12  C   UNL     1       1.867   7.349  20.404  0.00  0.00    +0.000 C 
ATOM     13  N   UNL     1       2.285   6.040  19.945  0.00  0.00    +0.000 NA
ATOM     14  C   UNL     1       2.909   5.852  18.831  0.00  0.00    +0.000 C 
BRANCH  14  15
ATOM     15  S   UNL     1       3.376   7.156  17.724  0.00  0.00    +0.000 S 
ATOM     16  H   UNL     1       3.673   8.088  18.631  0.00  0.00    +0.000 HD
ENDBRANCH  14  15
ENDBRANCH   1  14
TORSDOF 3
ENDMDL
MODEL 8
REMARK VINA RESULT:      -5.7      2.787      4.607
REMARK  Name = 
REMARK  4 active torsions:
REMARK  status: ('A' for Active; 'I' for Inactive)
REMARK    1  A    between atoms: C_1  and  N_2
REMARK    2  A    between atoms: C_3  and  S_4
REMARK    3  A    between atoms: C_3  and  C_5
REMARK    4  A    between atoms: C_5  and  C_6
REMARK                            x       y       z     vdW  Elec       q    Type
REMARK                         _______ _______ _______ _____ _____    ______ ____
ROOT
ATOM      1  C   UNL     1       3.680   4.454  18.829  0.00  0.00    +0.000 C 
ATOM      2  C   UNL     1       2.954   3.765  17.655  0.00  0.00    +0.000 C 
ATOM      3  C   UNL     1       3.613   2.411  17.593  0.00  0.00    +0.000 C 
ATOM      4  C   UNL     1       3.802   2.105  19.057  0.00  0.00    +0.000 C 
ATOM      5  O   UNL     1       4.016   3.353  19.727  0.00  0.00    +0.000 OA
ENDROOT
BRANCH   1   6
ATOM      6  C   UNL     1       4.975   5.143  18.360  0.00  0.00    +0.000 A 
ATOM      7  C   UNL     1       6.074   5.262  19.216  0.00  0.00    +0.000 A 
ATOM      8  C   UNL     1       7.233   5.886  18.765  0.00  0.00    +0.000 A 
ATOM      9  C   UNL     1       7.282   6.374  17.467  0.00  0.00    +0.000 A 
ATOM     10  C   UNL     1       6.157   6.225  16.676  0.00  0.00    +0.000 A 
ATOM     11  N   UNL     1       5.015   5.635  17.093  0.00  0.00    +0.000 NA
ENDBRANCH   1   6
BRANCH   1  14
ATOM     12  C   UNL     1       1.955   7.688  19.997  0.00  0.00    +0.000 C 
ATOM     13  N   UNL     1       2.799   6.716  19.333  0.00  0.00    +0.000 NA
ATOM     14  C   UNL     1       2.758   5.454  19.595  0.00  0.00    +0.000 C 
BRANCH  14  15
ATOM     15  S   UNL     1       1.649   4.719  20.768  0.00  0.00    +0.000 S 
ATOM     16  H   UNL     1       0.658   5.609  20.686  0.00  0.00    +0.000 HD
ENDBRANCH  14  15
ENDBRANCH   1  14
TORSDOF 3
ENDMDL
MODEL 9
REMARK VINA RESULT:      -5.6      2.999      4.459
REMARK  Name = 
REMARK  4 active torsions:
REMARK  status: ('A' for Active; 'I' for Inactive)
REMARK    1  A    between atoms: C_1  and  N_2
REMARK    2  A    between atoms: C_3  and  S_4
REMARK    3  A    between atoms: C_3  and  C_5
REMARK    4  A    between atoms: C_5  and  C_6
REMARK                            x       y       z     vdW  Elec       q    Type
REMARK                         _______ _______ _______ _____ _____    ______ ____
ROOT
ATOM      1  C   UNL     1       2.868   5.160  19.187  0.00  0.00    +0.000 C 
ATOM      2  C   UNL     1       2.585   4.544  20.573  0.00  0.00    +0.000 C 
ATOM      3  C   UNL     1       1.172   4.035  20.437  0.00  0.00    +0.000 C 
ATOM      4  C   UNL     1       1.176   3.519  19.020  0.00  0.00    +0.000 C 
ATOM      5  O   UNL     1       2.077   4.343  18.272  0.00  0.00    +0.000 OA
ENDROOT
BRANCH   1   6
ATOM      6  C   UNL     1       2.385   6.620  19.114  0.00  0.00    +0.000 A 
ATOM      7  C   UNL     1       2.407   7.323  17.905  0.00  0.00    +0.000 A 
ATOM      8  C   UNL     1       1.962   8.641  17.867  0.00  0.00    +0.000 A 
ATOM      9  C   UNL     1       1.493   9.234  19.030  0.00  0.00    +0.000 A 
ATOM     10  C   UNL     1       1.502   8.482  20.191  0.00  0.00    +0.000 A 
ATOM     11  N   UNL     1       1.941   7.205  20.259  0.00  0.00    +0.000 NA
ENDBRANCH   1   6
BRANCH   1  14
ATOM     12  C   UNL     1       6.707   5.413  19.237  0.00  0.00    +0.000 C 
ATOM     13  N   UNL     1       5.296   5.508  19.552  0.00  0.00    +0.000 NA
ATOM     14  C   UNL     1       4.371   5.045  18.781  0.00  0.00    +0.000 C 
BRANCH  14  15
ATOM     15  S   UNL     1       4.683   4.201  17.253  0.00  0.00    +0.000 S 
ATOM     16  H   UNL     1       4.029   3.068  17.516  0.00  0.00    +0.000 HD
ENDBRANCH  14  15
ENDBRANCH   1  14
TORSDOF 3
ENDMDL
