MODEL 1
REMARK VINA RESULT:      -8.5      0.000      0.000
REMARK  Name = 
REMARK  8 active torsions:
REMARK  status: ('A' for Active; 'I' for Inactive)
REMARK    1  A    between atoms: C_1  and  C_2
REMARK    2  A    between atoms: C_2  and  C_8
REMARK    3  A    between atoms: N_3  and  O_4
REMARK    4  A    between atoms: O_4  and  C_5
REMARK    5  A    between atoms: C_5  and  C_6
REMARK    6  A    between atoms: C_6  and  N_7
REMARK    7  A    between atoms: C_11  and  N_12
REMARK    8  A    between atoms: N_12  and  C_13
REMARK                            x       y       z     vdW  Elec       q    Type
REMARK                         _______ _______ _______ _____ _____    ______ ____
ROOT
ATOM      1  C   UNL     1       0.036  10.061  19.157  0.00  0.00    +0.000 A 
ATOM      2  C   UNL     1       0.226   9.536  20.442  0.00  0.00    +0.000 A 
ATOM      3  C   UNL     1       1.187   8.535  20.664  0.00  0.00    +0.000 A 
ATOM      4  C   UNL     1       1.976   8.061  19.611  0.00  0.00    +0.000 A 
ATOM      5  C   UNL     1       1.855   8.688  18.362  0.00  0.00    +0.000 A 
ATOM      6  C   UNL     1       0.861   9.637  18.119  0.00  0.00    +0.000 A 
ENDROOT
BRANCH   1   8
ATOM      7  C   UNL     1      -0.717  12.506  19.165  0.00  0.00    +0.000 C 
ATOM      8  C   UNL     1      -1.032  11.060  18.845  0.00  0.00    +0.000 C 
ATOM      9  N   UNL     1      -2.135  10.644  18.300  0.00  0.00    +0.000 NA
BRANCH   9  10
ATOM     10  O   UNL     1      -3.036  11.689  18.062  0.00  0.00    +0.000 OA
BRANCH  10  11
ATOM     11  C   UNL     1      -4.155  11.181  17.333  0.00  0.00    +0.000 C 
BRANCH  11  12
ATOM     12  C   UNL     1      -3.625  10.534  16.052  0.00  0.00    +0.000 C 
BRANCH  12  13
ATOM     13  N   UNL     1      -2.643  11.363  15.353  0.00  0.00    +0.000 NA
ATOM     14  H   UNL     1      -2.964  11.544  14.402  0.00  0.00    +0.000 HD
ATOM     15  H   UNL     1      -1.772  10.841  15.263  0.00  0.00    +0.000 HD
ENDBRANCH  12  13
ENDBRANCH  11  12
ENDBRANCH  10  11
ENDBRANCH   9  10
ENDBRANCH   1   8
BRANCH   4  16
ATOM     16  N   UNL     1       2.823   6.942  19.773  0.00  0.00    +0.000 N 
ATOM     17  H   UNL     1       2.928   6.629  20.734  0.00  0.00    +0.000 HD
BRANCH  16  18
ATOM     18  C   UNL     1       3.027   5.879  18.842  0.00  0.00    +0.000 A 
ATOM     19  C   UNL     1       2.324   4.643  18.994  0.00  0.00    +0.000 A 
ATOM     20  C   UNL     1       1.471   4.359  20.095  0.00  0.00    +0.000 A 
ATOM     21  C   UNL     1       0.783   3.148  20.190  0.00  0.00    +0.000 A 
ATOM     22  C   UNL     1       0.885   2.221  19.164  0.00  0.00    +0.000 A 
ATOM     23  C   UNL     1       1.751   2.471  18.100  0.00  0.00    +0.000 A 
ATOM     24  C   UNL     1       2.515   3.622  18.035  0.00  0.00    +0.000 A 
ATOM     25  N   UNL     1       3.433   3.660  17.066  0.00  0.00    +0.000 NA
ATOM     26  C   UNL     1       4.166   4.777  17.040  0.00  0.00    +0.000 A 
ATOM     27  O   UNL     1       5.278   4.912  16.263  0.00  0.00    +0.000 OA
ATOM     28  C   UNL     1       5.742   6.172  16.451  0.00  0.00    +0.000 A 
ATOM     29  C   UNL     1       4.878   6.883  17.245  0.00  0.00    +0.000 A 
ATOM     30  C   UNL     1       3.973   5.927  17.792  0.00  0.00    +0.000 A 
ENDBRANCH  16  18
ENDBRANCH   4  16
TORSDOF 7
ENDMDL
MODEL 2
REMARK VINA RESULT:      -8.4      1.161      3.129
REMARK  Name = 
REMARK  8 active torsions:
REMARK  status: ('A' for Active; 'I' for Inactive)
REMARK    1  A    between atoms: C_1  and  C_2
REMARK    2  A    between atoms: C_2  and  C_8
REMARK    3  A    between atoms: N_3  and  O_4
REMARK    4  A    between atoms: O_4  and  C_5
REMARK    5  A    between atoms: C_5  and  C_6
REMARK    6  A    between atoms: C_6  and  N_7
REMARK    7  A    between atoms: C_11  and  N_12
REMARK    8  A    between atoms: N_12  and  C_13
REMARK                            x       y       z     vdW  Elec       q    Type
REMARK                         _______ _______ _______ _____ _____    ______ ____
ROOT
ATOM      1  C   UNL     1       0.242   9.743  19.467  0.00  0.00    +0.000 A 
ATOM      2  C   UNL     1       0.449   9.144  20.717  0.00  0.00    +0.000 A 
ATOM      3  C   UNL     1       1.410   8.128  20.865  0.00  0.00    +0.000 A 
ATOM      4  C   UNL     1       2.182   7.714  19.775  0.00  0.00    +0.000 A 
ATOM      5  C   UNL     1       2.044   8.415  18.567  0.00  0.00    +0.000 A 
ATOM      6  C   UNL     1       1.050   9.378  18.394  0.00  0.00    +0.000 A 
ENDROOT
BRANCH   1   8
ATOM      7  C   UNL     1      -0.829  11.964  20.151  0.00  0.00    +0.000 C 
ATOM      8  C   UNL     1      -0.827  10.762  19.231  0.00  0.00    +0.000 C 
ATOM      9  N   UNL     1      -1.657  10.578  18.249  0.00  0.00    +0.000 NA
BRANCH   9  10
ATOM     10  O   UNL     1      -2.595  11.613  18.147  0.00  0.00    +0.000 OA
BRANCH  10  11
ATOM     11  C   UNL     1      -3.828  11.076  17.662  0.00  0.00    +0.000 C 
BRANCH  11  12
ATOM     12  C   UNL     1      -3.892  11.338  16.156  0.00  0.00    +0.000 C 
BRANCH  12  13
ATOM     13  N   UNL     1      -2.587  11.250  15.501  0.00  0.00    +0.000 NA
ATOM     14  H   UNL     1      -2.435  12.082  14.931  0.00  0.00    +0.000 HD
ATOM     15  H   UNL     1      -2.593  10.462  14.853  0.00  0.00    +0.000 HD
ENDBRANCH  12  13
ENDBRANCH  11  12
ENDBRANCH  10  11
ENDBRANCH   9  10
ENDBRANCH   1   8
BRANCH   4  16
ATOM     16  N   UNL     1       3.027   6.586  19.859  0.00  0.00    +0.000 N 
ATOM     17  H   UNL     1       3.287   6.325  20.805  0.00  0.00    +0.000 HD
BRANCH  16  18
ATOM     18  C   UNL     1       3.054   5.468  18.972  0.00  0.00    +0.000 A 
ATOM     19  C   UNL     1       3.941   5.458  17.850  0.00  0.00    +0.000 A 
ATOM     20  C   UNL     1       4.765   6.562  17.496  0.00  0.00    +0.000 A 
ATOM     21  C   UNL     1       5.636   6.499  16.406  0.00  0.00    +0.000 A 
ATOM     22  C   UNL     1       5.746   5.320  15.685  0.00  0.00    +0.000 A 
ATOM     23  C   UNL     1       4.913   4.247  15.997  0.00  0.00    +0.000 A 
ATOM     24  C   UNL     1       3.976   4.321  17.012  0.00  0.00    +0.000 A 
ATOM     25  N   UNL     1       3.121   3.298  17.092  0.00  0.00    +0.000 NA
ATOM     26  C   UNL     1       2.217   3.407  18.071  0.00  0.00    +0.000 A 
ATOM     27  O   UNL     1       1.144   2.573  18.181  0.00  0.00    +0.000 OA
ATOM     28  C   UNL     1       0.470   2.940  19.298  0.00  0.00    +0.000 A 
ATOM     29  C   UNL     1       1.158   3.919  19.968  0.00  0.00    +0.000 A 
ATOM     30  C   UNL     1       2.175   4.364  19.074  0.00  0.00    +0.000 A 
ENDBRANCH  16  18
ENDBRANCH   4  16
TORSDOF 7
ENDMDL
MODEL 3
REMARK VINA RESULT:      -8.3      0.764      1.203
REMARK  Name = 
REMARK  8 active torsions:
REMARK  status: ('A' for Active; 'I' for Inactive)
REMARK    1  A    between atoms: C_1  and  C_2
REMARK    2  A    between atoms: C_2  and  C_8
REMARK    3  A    between atoms: N_3  and  O_4
REMARK    4  A    between atoms: O_4  and  C_5
REMARK    5  A    between atoms: C_5  and  C_6
REMARK    6  A    between atoms: C_6  and  N_7
REMARK    7  A    between atoms: C_11  and  N_12
REMARK    8  A    between atoms: N_12  and  C_13
REMARK                            x       y       z     vdW  Elec       q    Type
REMARK                         _______ _______ _______ _____ _____    ______ ____
ROOT
ATOM      1  C   UNL     1       0.469   9.816  19.143  0.00  0.00    +0.000 A 
ATOM      2  C   UNL     1       1.152   9.340  18.016  0.00  0.00    +0.000 A 
ATOM      3  C   UNL     1       2.071   8.284  18.137  0.00  0.00    +0.000 A 
ATOM      4  C   UNL     1       2.305   7.684  19.379  0.00  0.00    +0.000 A 
ATOM      5  C   UNL     1       1.519   8.093  20.466  0.00  0.00    +0.000 A 
ATOM      6  C   UNL     1       0.652   9.182  20.368  0.00  0.00    +0.000 A 
ENDROOT
BRANCH   1   8
ATOM      7  C   UNL     1       0.179  12.351  19.330  0.00  0.00    +0.000 C 
ATOM      8  C   UNL     1      -0.450  10.995  19.090  0.00  0.00    +0.000 C 
ATOM      9  N   UNL     1      -1.703  10.797  18.814  0.00  0.00    +0.000 NA
BRANCH   9  10
ATOM     10  O   UNL     1      -2.437  11.989  18.793  0.00  0.00    +0.000 OA
BRANCH  10  11
ATOM     11  C   UNL     1      -3.684  11.755  18.137  0.00  0.00    +0.000 C 
BRANCH  11  12
ATOM     12  C   UNL     1      -3.416  10.856  16.928  0.00  0.00    +0.000 C 
BRANCH  12  13
ATOM     13  N   UNL     1      -2.478  11.443  15.972  0.00  0.00    +0.000 NA
ATOM     14  H   UNL     1      -2.054  12.277  16.377  0.00  0.00    +0.000 HD
ATOM     15  H   UNL     1      -2.994  11.759  15.151  0.00  0.00    +0.000 HD
ENDBRANCH  12  13
ENDBRANCH  11  12
ENDBRANCH  10  11
ENDBRANCH   9  10
ENDBRANCH   1   8
BRANCH   4  16
ATOM     16  N   UNL     1       3.342   6.742  19.556  0.00  0.00    +0.000 N 
ATOM     17  H   UNL     1       3.601   6.578  20.525  0.00  0.00    +0.000 HD
BRANCH  16  18
ATOM     18  C   UNL     1       3.623   5.611  18.732  0.00  0.00    +0.000 A 
ATOM     19  C   UNL     1       2.796   4.446  18.800  0.00  0.00    +0.000 A 
ATOM     20  C   UNL     1       1.729   4.298  19.727  0.00  0.00    +0.000 A 
ATOM     21  C   UNL     1       0.930   3.153  19.742  0.00  0.00    +0.000 A 
ATOM     22  C   UNL     1       1.142   2.159  18.798  0.00  0.00    +0.000 A 
ATOM     23  C   UNL     1       2.212   2.274  17.912  0.00  0.00    +0.000 A 
ATOM     24  C   UNL     1       3.073   3.356  17.944  0.00  0.00    +0.000 A 
ATOM     25  N   UNL     1       4.158   3.261  17.171  0.00  0.00    +0.000 NA
ATOM     26  C   UNL     1       4.979   4.314  17.236  0.00  0.00    +0.000 A 
ATOM     27  O   UNL     1       6.226   4.312  16.684  0.00  0.00    +0.000 OA
ATOM     28  C   UNL     1       6.756   5.542  16.900  0.00  0.00    +0.000 A 
ATOM     29  C   UNL     1       5.824   6.366  17.479  0.00  0.00    +0.000 A 
ATOM     30  C   UNL     1       4.750   5.519  17.883  0.00  0.00    +0.000 A 
ENDBRANCH  16  18
ENDBRANCH   4  16
TORSDOF 7
ENDMDL
MODEL 4
REMARK VINA RESULT:      -8.0      1.411      3.385
REMARK  Name = 
REMARK  8 active torsions:
REMARK  status: ('A' for Active; 'I' for Inactive)
REMARK    1  A    between atoms: C_1  and  C_2
REMARK    2  A    between atoms: C_2  and  C_8
REMARK    3  A    between atoms: N_3  and  O_4
REMARK    4  A    between atoms: O_4  and  C_5
REMARK    5  A    between atoms: C_5  and  C_6
REMARK    6  A    between atoms: C_6  and  N_7
REMARK    7  A    between atoms: C_11  and  N_12
REMARK    8  A    between atoms: N_12  and  C_13
REMARK                            x       y       z     vdW  Elec       q    Type
REMARK                         _______ _______ _______ _____ _____    ______ ____
ROOT
ATOM      1  C   UNL     1       0.401   9.965  19.547  0.00  0.00    +0.000 A 
ATOM      2  C   UNL     1       1.050   9.533  18.382  0.00  0.00    +0.000 A 
ATOM      3  C   UNL     1       1.900   8.413  18.419  0.00  0.00    +0.000 A 
ATOM      4  C   UNL     1       2.097   7.708  19.611  0.00  0.00    +0.000 A 
ATOM      5  C   UNL     1       1.341   8.084  20.731  0.00  0.00    +0.000 A 
ATOM      6  C   UNL     1       0.546   9.230  20.720  0.00  0.00    +0.000 A 
ENDROOT
BRANCH   1   8
ATOM      7  C   UNL     1       0.116  12.370  20.371  0.00  0.00    +0.000 C 
ATOM      8  C   UNL     1      -0.440  11.200  19.587  0.00  0.00    +0.000 C 
ATOM      9  N   UNL     1      -1.564  11.212  18.936  0.00  0.00    +0.000 NA
BRANCH   9  10
ATOM     10  O   UNL     1      -2.238  12.433  19.060  0.00  0.00    +0.000 OA
BRANCH  10  11
ATOM     11  C   UNL     1      -3.544  12.191  19.585  0.00  0.00    +0.000 C 
BRANCH  11  12
ATOM     12  C   UNL     1      -4.486  11.948  18.404  0.00  0.00    +0.000 C 
BRANCH  12  13
ATOM     13  N   UNL     1      -3.785  11.827  17.125  0.00  0.00    +0.000 NA
ATOM     14  H   UNL     1      -3.031  12.511  17.083  0.00  0.00    +0.000 HD
ATOM     15  H   UNL     1      -4.427  12.068  16.371  0.00  0.00    +0.000 HD
ENDBRANCH  12  13
ENDBRANCH  11  12
ENDBRANCH  10  11
ENDBRANCH   9  10
ENDBRANCH   1   8
BRANCH   4  16
ATOM     16  N   UNL     1       3.072   6.692  19.710  0.00  0.00    +0.000 N 
ATOM     17  H   UNL     1       3.463   6.573  20.640  0.00  0.00    +0.000 HD
BRANCH  16  18
ATOM     18  C   UNL     1       3.134   5.486  18.949  0.00  0.00    +0.000 A 
ATOM     19  C   UNL     1       3.964   5.407  17.788  0.00  0.00    +0.000 A 
ATOM     20  C   UNL     1       4.691   6.514  17.270  0.00  0.00    +0.000 A 
ATOM     21  C   UNL     1       5.511   6.385  16.147  0.00  0.00    +0.000 A 
ATOM     22  C   UNL     1       5.667   5.142  15.552  0.00  0.00    +0.000 A 
ATOM     23  C   UNL     1       4.926   4.060  16.025  0.00  0.00    +0.000 A 
ATOM     24  C   UNL     1       4.036   4.187  17.076  0.00  0.00    +0.000 A 
ATOM     25  N   UNL     1       3.259   3.128  17.315  0.00  0.00    +0.000 NA
ATOM     26  C   UNL     1       2.398   3.289  18.325  0.00  0.00    +0.000 A 
ATOM     27  O   UNL     1       1.392   2.405  18.583  0.00  0.00    +0.000 OA
ATOM     28  C   UNL     1       0.749   2.852  19.691  0.00  0.00    +0.000 A 
ATOM     29  C   UNL     1       1.399   3.942  20.212  0.00  0.00    +0.000 A 
ATOM     30  C   UNL     1       2.339   4.347  19.219  0.00  0.00    +0.000 A 
ENDBRANCH  16  18
ENDBRANCH   4  16
TORSDOF 7
ENDMDL
MODEL 5
REMARK VINA RESULT:      -8.0      1.766      3.673
REMARK  Name = 
REMARK  8 active torsions:
REMARK  status: ('A' for Active; 'I' for Inactive)
REMARK    1  A    between atoms: C_1  and  C_2
REMARK    2  A    between atoms: C_2  and  C_8
REMARK    3  A    between atoms: N_3  and  O_4
REMARK    4  A    between atoms: O_4  and  C_5
REMARK    5  A    between atoms: C_5  and  C_6
REMARK    6  A    between atoms: C_6  and  N_7
REMARK    7  A    between atoms: C_11  and  N_12
REMARK    8  A    between atoms: N_12  and  C_13
REMARK                            x       y       z     vdW  Elec       q    Type
REMARK                         _______ _______ _______ _____ _____    ______ ____
ROOT
ATOM      1  C   UNL     1       0.275   9.702  19.379  0.00  0.00    +0.000 A 
ATOM      2  C   UNL     1       0.487   9.127  20.639  0.00  0.00    +0.000 A 
ATOM      3  C   UNL     1       1.445   8.111  20.803  0.00  0.00    +0.000 A 
ATOM      4  C   UNL     1       2.210   7.673  19.717  0.00  0.00    +0.000 A 
ATOM      5  C   UNL     1       2.068   8.349  18.496  0.00  0.00    +0.000 A 
ATOM      6  C   UNL     1       1.077   9.313  18.310  0.00  0.00    +0.000 A 
ENDROOT
BRANCH   1   8
ATOM      7  C   UNL     1      -1.560  10.584  17.830  0.00  0.00    +0.000 C 
ATOM      8  C   UNL     1      -0.791  10.719  19.128  0.00  0.00    +0.000 C 
ATOM      9  N   UNL     1      -1.015  11.625  20.031  0.00  0.00    +0.000 NA
BRANCH   9  10
ATOM     10  O   UNL     1      -2.042  12.502  19.661  0.00  0.00    +0.000 OA
BRANCH  10  11
ATOM     11  C   UNL     1      -2.146  13.536  20.641  0.00  0.00    +0.000 C 
BRANCH  11  12
ATOM     12  C   UNL     1      -1.235  14.686  20.206  0.00  0.00    +0.000 C 
BRANCH  12  13
ATOM     13  N   UNL     1      -0.701  14.517  18.855  0.00  0.00    +0.000 NA
ATOM     14  H   UNL     1      -1.107  13.685  18.428  0.00  0.00    +0.000 HD
ATOM     15  H   UNL     1       0.303  14.343  18.913  0.00  0.00    +0.000 HD
ENDBRANCH  12  13
ENDBRANCH  11  12
ENDBRANCH  10  11
ENDBRANCH   9  10
ENDBRANCH   1   8
BRANCH   4  16
ATOM     16  N   UNL     1       3.051   6.544  19.819  0.00  0.00    +0.000 N 
ATOM     17  H   UNL     1       3.300   6.289  20.771  0.00  0.00    +0.000 HD
BRANCH  16  18
ATOM     18  C   UNL     1       3.086   5.418  18.941  0.00  0.00    +0.000 A 
ATOM     19  C   UNL     1       3.983   5.400  17.828  0.00  0.00    +0.000 A 
ATOM     20  C   UNL     1       4.809   6.500  17.472  0.00  0.00    +0.000 A 
ATOM     21  C   UNL     1       5.690   6.430  16.390  0.00  0.00    +0.000 A 
ATOM     22  C   UNL     1       5.806   5.245  15.679  0.00  0.00    +0.000 A 
ATOM     23  C   UNL     1       4.971   4.174  15.993  0.00  0.00    +0.000 A 
ATOM     24  C   UNL     1       4.025   4.256  16.998  0.00  0.00    +0.000 A 
ATOM     25  N   UNL     1       3.169   3.234  17.079  0.00  0.00    +0.000 NA
ATOM     26  C   UNL     1       2.257   3.351  18.049  0.00  0.00    +0.000 A 
ATOM     27  O   UNL     1       1.183   2.517  18.156  0.00  0.00    +0.000 OA
ATOM     28  C   UNL     1       0.499   2.893  19.265  0.00  0.00    +0.000 A 
ATOM     29  C   UNL     1       1.181   3.878  19.934  0.00  0.00    +0.000 A 
ATOM     30  C   UNL     1       2.206   4.316  19.045  0.00  0.00    +0.000 A 
ENDBRANCH  16  18
ENDBRANCH   4  16
TORSDOF 7
ENDMDL
MODEL 6
REMARK VINA RESULT:      -8.0      1.413      1.992
REMARK  Name = 
REMARK  8 active torsions:
REMARK  status: ('A' for Active; 'I' for Inactive)
REMARK    1  A    between atoms: C_1  and  C_2
REMARK    2  A    between atoms: C_2  and  C_8
REMARK    3  A    between atoms: N_3  and  O_4
REMARK    4  A    between atoms: O_4  and  C_5
REMARK    5  A    between atoms: C_5  and  C_6
REMARK    6  A    between atoms: C_6  and  N_7
REMARK    7  A    between atoms: C_11  and  N_12
REMARK    8  A    between atoms: N_12  and  C_13
REMARK                            x       y       z     vdW  Elec       q    Type
REMARK                         _______ _______ _______ _____ _____    ______ ____
ROOT
ATOM      1  C   UNL     1      -0.077   9.989  19.240  0.00  0.00    +0.000 A 
ATOM      2  C   UNL     1       0.162   9.453  20.512  0.00  0.00    +0.000 A 
ATOM      3  C   UNL     1       1.181   8.503  20.701  0.00  0.00    +0.000 A 
ATOM      4  C   UNL     1       1.979   8.092  19.628  0.00  0.00    +0.000 A 
ATOM      5  C   UNL     1       1.803   8.734  18.393  0.00  0.00    +0.000 A 
ATOM      6  C   UNL     1       0.754   9.630  18.182  0.00  0.00    +0.000 A 
ENDROOT
BRANCH   1   8
ATOM      7  C   UNL     1      -1.893  10.783  17.623  0.00  0.00    +0.000 C 
ATOM      8  C   UNL     1      -1.204  10.932  18.963  0.00  0.00    +0.000 C 
ATOM      9  N   UNL     1      -1.541  11.787  19.880  0.00  0.00    +0.000 NA
BRANCH   9  10
ATOM     10  O   UNL     1      -2.612  12.597  19.482  0.00  0.00    +0.000 OA
BRANCH  10  11
ATOM     11  C   UNL     1      -3.413  12.903  20.625  0.00  0.00    +0.000 C 
BRANCH  11  12
ATOM     12  C   UNL     1      -2.897  14.213  21.222  0.00  0.00    +0.000 C 
BRANCH  12  13
ATOM     13  N   UNL     1      -2.051  14.971  20.300  0.00  0.00    +0.000 NA
ATOM     14  H   UNL     1      -1.579  15.720  20.807  0.00  0.00    +0.000 HD
ATOM     15  H   UNL     1      -2.642  15.429  19.606  0.00  0.00    +0.000 HD
ENDBRANCH  12  13
ENDBRANCH  11  12
ENDBRANCH  10  11
ENDBRANCH   9  10
ENDBRANCH   1   8
BRANCH   4  16
ATOM     16  N   UNL     1       2.889   7.021  19.757  0.00  0.00    +0.000 N 
ATOM     17  H   UNL     1       3.083   6.746  20.716  0.00  0.00    +0.000 HD
BRANCH  16  18
ATOM     18  C   UNL     1       3.071   5.936  18.846  0.00  0.00    +0.000 A 
ATOM     19  C   UNL     1       2.351   4.714  19.026  0.00  0.00    +0.000 A 
ATOM     20  C   UNL     1       1.501   4.465  20.137  0.00  0.00    +0.000 A 
ATOM     21  C   UNL     1       0.795   3.266  20.259  0.00  0.00    +0.000 A 
ATOM     22  C   UNL     1       0.878   2.317  19.251  0.00  0.00    +0.000 A 
ATOM     23  C   UNL     1       1.741   2.534  18.178  0.00  0.00    +0.000 A 
ATOM     24  C   UNL     1       2.521   3.672  18.086  0.00  0.00    +0.000 A 
ATOM     25  N   UNL     1       3.434   3.677  17.111  0.00  0.00    +0.000 NA
ATOM     26  C   UNL     1       4.183   4.783  17.060  0.00  0.00    +0.000 A 
ATOM     27  O   UNL     1       5.293   4.886  16.273  0.00  0.00    +0.000 OA
ATOM     28  C   UNL     1       5.776   6.143  16.434  0.00  0.00    +0.000 A 
ATOM     29  C   UNL     1       4.927   6.882  17.219  0.00  0.00    +0.000 A 
ATOM     30  C   UNL     1       4.011   5.950  17.790  0.00  0.00    +0.000 A 
ENDBRANCH  16  18
ENDBRANCH   4  16
TORSDOF 7
ENDMDL
MODEL 7
REMARK VINA RESULT:      -7.9      1.837      3.848
REMARK  Name = 
REMARK  8 active torsions:
REMARK  status: ('A' for Active; 'I' for Inactive)
REMARK    1  A    between atoms: C_1  and  C_2
REMARK    2  A    between atoms: C_2  and  C_8
REMARK    3  A    between atoms: N_3  and  O_4
REMARK    4  A    between atoms: O_4  and  C_5
REMARK    5  A    between atoms: C_5  and  C_6
REMARK    6  A    between atoms: C_6  and  N_7
REMARK    7  A    between atoms: C_11  and  N_12
REMARK    8  A    between atoms: N_12  and  C_13
REMARK                            x       y       z     vdW  Elec       q    Type
REMARK                         _______ _______ _______ _____ _____    ______ ____
ROOT
ATOM      1  C   UNL     1       0.203   9.706  19.442  0.00  0.00    +0.000 A 
ATOM      2  C   UNL     1       0.413   9.102  20.688  0.00  0.00    +0.000 A 
ATOM      3  C   UNL     1       1.388   8.101  20.836  0.00  0.00    +0.000 A 
ATOM      4  C   UNL     1       2.173   7.706  19.747  0.00  0.00    +0.000 A 
ATOM      5  C   UNL     1       2.031   8.412  18.543  0.00  0.00    +0.000 A 
ATOM      6  C   UNL     1       1.023   9.361  18.371  0.00  0.00    +0.000 A 
ENDROOT
BRANCH   1   8
ATOM      7  C   UNL     1      -1.685  10.545  17.934  0.00  0.00    +0.000 C 
ATOM      8  C   UNL     1      -0.880  10.709  19.206  0.00  0.00    +0.000 C 
ATOM      9  N   UNL     1      -1.087  11.627  20.101  0.00  0.00    +0.000 NA
BRANCH   9  10
ATOM     10  O   UNL     1      -2.133  12.488  19.747  0.00  0.00    +0.000 OA
BRANCH  10  11
ATOM     11  C   UNL     1      -2.697  13.046  20.935  0.00  0.00    +0.000 C 
BRANCH  11  12
ATOM     12  C   UNL     1      -2.125  12.281  22.130  0.00  0.00    +0.000 C 
BRANCH  12  13
ATOM     13  N   UNL     1      -1.123  13.043  22.875  0.00  0.00    +0.000 NA
ATOM     14  H   UNL     1      -0.191  12.707  22.635  0.00  0.00    +0.000 HD
ATOM     15  H   UNL     1      -1.241  12.862  23.871  0.00  0.00    +0.000 HD
ENDBRANCH  12  13
ENDBRANCH  11  12
ENDBRANCH  10  11
ENDBRANCH   9  10
ENDBRANCH   1   8
BRANCH   4  16
ATOM     16  N   UNL     1       3.035   6.591  19.829  0.00  0.00    +0.000 N 
ATOM     17  H   UNL     1       3.320   6.347  20.773  0.00  0.00    +0.000 HD
BRANCH  16  18
ATOM     18  C   UNL     1       3.059   5.460  18.957  0.00  0.00    +0.000 A 
ATOM     19  C   UNL     1       3.947   5.432  17.836  0.00  0.00    +0.000 A 
ATOM     20  C   UNL     1       4.774   6.527  17.467  0.00  0.00    +0.000 A 
ATOM     21  C   UNL     1       5.646   6.446  16.379  0.00  0.00    +0.000 A 
ATOM     22  C   UNL     1       5.752   5.257  15.674  0.00  0.00    +0.000 A 
ATOM     23  C   UNL     1       4.915   4.191  16.001  0.00  0.00    +0.000 A 
ATOM     24  C   UNL     1       3.978   4.283  17.014  0.00  0.00    +0.000 A 
ATOM     25  N   UNL     1       3.119   3.264  17.108  0.00  0.00    +0.000 NA
ATOM     26  C   UNL     1       2.215   3.390  18.085  0.00  0.00    +0.000 A 
ATOM     27  O   UNL     1       1.139   2.561  18.205  0.00  0.00    +0.000 OA
ATOM     28  C   UNL     1       0.466   2.946  19.317  0.00  0.00    +0.000 A 
ATOM     29  C   UNL     1       1.157   3.933  19.974  0.00  0.00    +0.000 A 
ATOM     30  C   UNL     1       2.176   4.362  19.074  0.00  0.00    +0.000 A 
ENDBRANCH  16  18
ENDBRANCH   4  16
TORSDOF 7
ENDMDL
MODEL 8
REMARK VINA RESULT:      -7.9      2.156      4.269
REMARK  Name = 
REMARK  8 active torsions:
REMARK  status: ('A' for Active; 'I' for Inactive)
REMARK    1  A    between atoms: C_1  and  C_2
REMARK    2  A    between atoms: C_2  and  C_8
REMARK    3  A    between atoms: N_3  and  O_4
REMARK    4  A    between atoms: O_4  and  C_5
REMARK    5  A    between atoms: C_5  and  C_6
REMARK    6  A    between atoms: C_6  and  N_7
REMARK    7  A    between atoms: C_11  and  N_12
REMARK    8  A    between atoms: N_12  and  C_13
REMARK                            x       y       z     vdW  Elec       q    Type
REMARK                         _______ _______ _______ _____ _____    ______ ____
ROOT
ATOM      1  C   UNL     1       0.522   9.906  19.793  0.00  0.00    +0.000 A 
ATOM      2  C   UNL     1       1.189   9.513  18.624  0.00  0.00    +0.000 A 
ATOM      3  C   UNL     1       1.976   8.349  18.614  0.00  0.00    +0.000 A 
ATOM      4  C   UNL     1       2.092   7.559  19.763  0.00  0.00    +0.000 A 
ATOM      5  C   UNL     1       1.318   7.904  20.880  0.00  0.00    +0.000 A 
ATOM      6  C   UNL     1       0.585   9.090  20.919  0.00  0.00    +0.000 A 
ENDROOT
BRANCH   1   8
ATOM      7  C   UNL     1      -1.559  11.234  19.123  0.00  0.00    +0.000 C 
ATOM      8  C   UNL     1      -0.253  11.181  19.887  0.00  0.00    +0.000 C 
ATOM      9  N   UNL     1       0.211  12.140  20.629  0.00  0.00    +0.000 NA
BRANCH   9  10
ATOM     10  O   UNL     1      -0.622  13.265  20.625  0.00  0.00    +0.000 OA
BRANCH  10  11
ATOM     11  C   UNL     1       0.124  14.394  20.166  0.00  0.00    +0.000 C 
BRANCH  11  12
ATOM     12  C   UNL     1       1.548  14.267  20.709  0.00  0.00    +0.000 C 
BRANCH  12  13
ATOM     13  N   UNL     1       1.647  14.557  22.139  0.00  0.00    +0.000 NA
ATOM     14  H   UNL     1       1.101  13.875  22.665  0.00  0.00    +0.000 HD
ATOM     15  H   UNL     1       1.219  15.464  22.325  0.00  0.00    +0.000 HD
ENDBRANCH  12  13
ENDBRANCH  11  12
ENDBRANCH  10  11
ENDBRANCH   9  10
ENDBRANCH   1   8
BRANCH   4  16
ATOM     16  N   UNL     1       3.008   6.486  19.827  0.00  0.00    +0.000 N 
ATOM     17  H   UNL     1       3.317   6.252  20.766  0.00  0.00    +0.000 HD
BRANCH  16  18
ATOM     18  C   UNL     1       3.073   5.361  18.950  0.00  0.00    +0.000 A 
ATOM     19  C   UNL     1       3.962   5.371  17.829  0.00  0.00    +0.000 A 
ATOM     20  C   UNL     1       4.750   6.498  17.466  0.00  0.00    +0.000 A 
ATOM     21  C   UNL     1       5.624   6.454  16.379  0.00  0.00    +0.000 A 
ATOM     22  C   UNL     1       5.774   5.273  15.667  0.00  0.00    +0.000 A 
ATOM     23  C   UNL     1       4.976   4.176  15.988  0.00  0.00    +0.000 A 
ATOM     24  C   UNL     1       4.035   4.228  17.001  0.00  0.00    +0.000 A 
ATOM     25  N   UNL     1       3.214   3.179  17.089  0.00  0.00    +0.000 NA
ATOM     26  C   UNL     1       2.305   3.267  18.065  0.00  0.00    +0.000 A 
ATOM     27  O   UNL     1       1.260   2.399  18.180  0.00  0.00    +0.000 OA
ATOM     28  C   UNL     1       0.572   2.754  19.294  0.00  0.00    +0.000 A 
ATOM     29  C   UNL     1       1.227   3.761  19.957  0.00  0.00    +0.000 A 
ATOM     30  C   UNL     1       2.231   4.231  19.060  0.00  0.00    +0.000 A 
ENDBRANCH  16  18
ENDBRANCH   4  16
TORSDOF 7
ENDMDL
MODEL 9
REMARK VINA RESULT:      -7.9      2.033      4.144
REMARK  Name = 
REMARK  8 active torsions:
REMARK  status: ('A' for Active; 'I' for Inactive)
REMARK    1  A    between atoms: C_1  and  C_2
REMARK    2  A    between atoms: C_2  and  C_8
REMARK    3  A    between atoms: N_3  and  O_4
REMARK    4  A    between atoms: O_4  and  C_5
REMARK    5  A    between atoms: C_5  and  C_6
REMARK    6  A    between atoms: C_6  and  N_7
REMARK    7  A    between atoms: C_11  and  N_12
REMARK    8  A    between atoms: N_12  and  C_13
REMARK                            x       y       z     vdW  Elec       q    Type
REMARK                         _______ _______ _______ _____ _____    ______ ____
ROOT
ATOM      1  C   UNL     1       0.303  10.020  19.640  0.00  0.00    +0.000 A 
ATOM      2  C   UNL     1       0.980   9.624  18.479  0.00  0.00    +0.000 A 
ATOM      3  C   UNL     1       1.838   8.510  18.504  0.00  0.00    +0.000 A 
ATOM      4  C   UNL     1       2.015   7.775  19.680  0.00  0.00    +0.000 A 
ATOM      5  C   UNL     1       1.232   8.115  20.793  0.00  0.00    +0.000 A 
ATOM      6  C   UNL     1       0.428   9.255  20.796  0.00  0.00    +0.000 A 
ENDROOT
BRANCH   1   8
ATOM      7  C   UNL     1      -1.460  11.490  18.510  0.00  0.00    +0.000 C 
ATOM      8  C   UNL     1      -0.548  11.247  19.695  0.00  0.00    +0.000 C 
ATOM      9  N   UNL     1      -0.484  12.005  20.748  0.00  0.00    +0.000 NA
BRANCH   9  10
ATOM     10  O   UNL     1      -1.339  13.110  20.661  0.00  0.00    +0.000 OA
BRANCH  10  11
ATOM     11  C   UNL     1      -1.395  13.756  21.934  0.00  0.00    +0.000 C 
BRANCH  11  12
ATOM     12  C   UNL     1      -1.232  12.683  23.012  0.00  0.00    +0.000 C 
BRANCH  12  13
ATOM     13  N   UNL     1      -2.426  11.856  23.186  0.00  0.00    +0.000 NA
ATOM     14  H   UNL     1      -3.070  12.318  23.828  0.00  0.00    +0.000 HD
ATOM     15  H   UNL     1      -2.161  10.980  23.634  0.00  0.00    +0.000 HD
ENDBRANCH  12  13
ENDBRANCH  11  12
ENDBRANCH  10  11
ENDBRANCH   9  10
ENDBRANCH   1   8
BRANCH   4  16
ATOM     16  N   UNL     1       2.996   6.763  19.774  0.00  0.00    +0.000 N 
ATOM     17  H   UNL     1       3.389   6.642  20.703  0.00  0.00    +0.000 HD
BRANCH  16  18
ATOM     18  C   UNL     1       3.062   5.560  19.008  0.00  0.00    +0.000 A 
ATOM     19  C   UNL     1       3.898   5.488  17.849  0.00  0.00    +0.000 A 
ATOM     20  C   UNL     1       4.626   6.598  17.340  0.00  0.00    +0.000 A 
ATOM     21  C   UNL     1       5.450   6.475  16.220  0.00  0.00    +0.000 A 
ATOM     22  C   UNL     1       5.610   5.235  15.620  0.00  0.00    +0.000 A 
ATOM     23  C   UNL     1       4.870   4.150  16.085  0.00  0.00    +0.000 A 
ATOM     24  C   UNL     1       3.975   4.272  17.133  0.00  0.00    +0.000 A 
ATOM     25  N   UNL     1       3.198   3.210  17.363  0.00  0.00    +0.000 NA
ATOM     26  C   UNL     1       2.333   3.365  18.370  0.00  0.00    +0.000 A 
ATOM     27  O   UNL     1       1.326   2.479  18.621  0.00  0.00    +0.000 OA
ATOM     28  C   UNL     1       0.678   2.920  19.728  0.00  0.00    +0.000 A 
ATOM     29  C   UNL     1       1.325   4.008  20.256  0.00  0.00    +0.000 A 
ATOM     30  C   UNL     1       2.268   4.420  19.269  0.00  0.00    +0.000 A 
ENDBRANCH  16  18
ENDBRANCH   4  16
TORSDOF 7
ENDMDL
