MODEL 1
REMARK VINA RESULT:      -7.1      0.000      0.000
REMARK  Name = 
REMARK  7 active torsions:
REMARK  status: ('A' for Active; 'I' for Inactive)
REMARK    1  A    between atoms: C_1  and  O_2
REMARK    2  A    between atoms: O_2  and  C_3
REMARK    3  A    between atoms: C_7  and  C_8
REMARK    4  A    between atoms: C_8  and  C_10
REMARK    5  A    between atoms: C_10  and  N_11
REMARK    6  A    between atoms: N_19  and  C_20
REMARK    7  A    between atoms: N_23  and  C_24
REMARK                            x       y       z     vdW  Elec       q    Type
REMARK                         _______ _______ _______ _____ _____    ______ ____
ROOT
ATOM      1  N   UNL     1       2.553   4.896  19.479  0.00  0.00    +0.000 N 
ATOM      2  C   UNL     1       2.066   4.565  20.728  0.00  0.00    +0.000 A 
ATOM      3 BR   UNL     1       2.091   2.886  21.565  0.00  0.00    +0.000 Br
ATOM      4  N   UNL     1       1.537   5.606  21.337  0.00  0.00    +0.000 NA
ATOM      5  C   UNL     1       1.690   6.630  20.464  0.00  0.00    +0.000 A 
ATOM      6  C   UNL     1       2.309   6.242  19.311  0.00  0.00    +0.000 A 
ATOM      7  C   UNL     1       2.582   7.160  18.252  0.00  0.00    +0.000 A 
ATOM      8  O   UNL     1       3.138   6.824  17.210  0.00  0.00    +0.000 OA
ATOM      9  N   UNL     1       2.162   8.466  18.533  0.00  0.00    +0.000 N 
ATOM     10  C   UNL     1       2.407   9.506  17.551  0.00  0.00    +0.000 C 
ATOM     11  C   UNL     1       1.516   8.888  19.714  0.00  0.00    +0.000 A 
ATOM     12  O   UNL     1       1.178  10.065  19.868  0.00  0.00    +0.000 OA
ATOM     13  N   UNL     1       1.283   7.922  20.687  0.00  0.00    +0.000 N 
ATOM     14  C   UNL     1       0.629   8.274  21.934  0.00  0.00    +0.000 C 
ENDROOT
BRANCH   1  15
ATOM     15  C   UNL     1       3.120   3.980  18.503  0.00  0.00    +0.000 C 
BRANCH  15  16
ATOM     16  C   UNL     1       4.628   3.859  18.596  0.00  0.00    +0.000 C 
ATOM     17  O   UNL     1       5.175   3.364  19.582  0.00  0.00    +0.000 OA
BRANCH  16  22
ATOM     18  C   UNL     1       7.053   5.953  16.568  0.00  0.00    +0.000 A 
ATOM     19  C   UNL     1       6.895   5.359  15.309  0.00  0.00    +0.000 A 
ATOM     20  C   UNL     1       6.048   4.269  15.138  0.00  0.00    +0.000 A 
ATOM     21  C   UNL     1       5.334   3.773  16.226  0.00  0.00    +0.000 A 
ATOM     22  C   UNL     1       5.490   4.355  17.495  0.00  0.00    +0.000 A 
ATOM     23  C   UNL     1       6.359   5.440  17.663  0.00  0.00    +0.000 A 
BRANCH  18  25
ATOM     24  C   UNL     1       7.681   8.002  17.610  0.00  0.00    +0.000 C 
ATOM     25  O   UNL     1       7.879   7.043  16.580  0.00  0.00    +0.000 OA
ENDBRANCH  18  25
ENDBRANCH  16  22
ENDBRANCH  15  16
ENDBRANCH   1  15
TORSDOF 4
ENDMDL
MODEL 2
REMARK VINA RESULT:      -7.1      0.776      1.649
REMARK  Name = 
REMARK  7 active torsions:
REMARK  status: ('A' for Active; 'I' for Inactive)
REMARK    1  A    between atoms: C_1  and  O_2
REMARK    2  A    between atoms: O_2  and  C_3
REMARK    3  A    between atoms: C_7  and  C_8
REMARK    4  A    between atoms: C_8  and  C_10
REMARK    5  A    between atoms: C_10  and  N_11
REMARK    6  A    between atoms: N_19  and  C_20
REMARK    7  A    between atoms: N_23  and  C_24
REMARK                            x       y       z     vdW  Elec       q    Type
REMARK                         _______ _______ _______ _____ _____    ______ ____
ROOT
ATOM      1  N   UNL     1       2.512   4.962  19.526  0.00  0.00    +0.000 N 
ATOM      2  C   UNL     1       1.945   4.615  20.737  0.00  0.00    +0.000 A 
ATOM      3 BR   UNL     1       1.932   2.930  21.560  0.00  0.00    +0.000 Br
ATOM      4  N   UNL     1       1.363   5.645  21.315  0.00  0.00    +0.000 NA
ATOM      5  C   UNL     1       1.563   6.678  20.463  0.00  0.00    +0.000 A 
ATOM      6  C   UNL     1       2.265   6.307  19.353  0.00  0.00    +0.000 A 
ATOM      7  C   UNL     1       2.599   7.237  18.322  0.00  0.00    +0.000 A 
ATOM      8  O   UNL     1       3.229   6.916  17.318  0.00  0.00    +0.000 OA
ATOM      9  N   UNL     1       2.145   8.536  18.584  0.00  0.00    +0.000 N 
ATOM     10  C   UNL     1       2.445   9.587  17.629  0.00  0.00    +0.000 C 
ATOM     11  C   UNL     1       1.416   8.940  19.721  0.00  0.00    +0.000 A 
ATOM     12  O   UNL     1       1.054  10.112  19.861  0.00  0.00    +0.000 OA
ATOM     13  N   UNL     1       1.128   7.963  20.668  0.00  0.00    +0.000 N 
ATOM     14  C   UNL     1       0.385   8.297  21.870  0.00  0.00    +0.000 C 
ENDROOT
BRANCH   1  15
ATOM     15  C   UNL     1       3.155   4.061  18.585  0.00  0.00    +0.000 C 
BRANCH  15  16
ATOM     16  C   UNL     1       4.623   3.828  18.880  0.00  0.00    +0.000 C 
ATOM     17  O   UNL     1       4.996   2.910  19.613  0.00  0.00    +0.000 OA
BRANCH  16  22
ATOM     18  C   UNL     1       7.014   5.489  16.450  0.00  0.00    +0.000 A 
ATOM     19  C   UNL     1       7.772   6.260  17.341  0.00  0.00    +0.000 A 
ATOM     20  C   UNL     1       7.477   6.269  18.701  0.00  0.00    +0.000 A 
ATOM     21  C   UNL     1       6.430   5.491  19.186  0.00  0.00    +0.000 A 
ATOM     22  C   UNL     1       5.657   4.721  18.300  0.00  0.00    +0.000 A 
ATOM     23  C   UNL     1       5.947   4.731  16.931  0.00  0.00    +0.000 A 
BRANCH  18  25
ATOM     24  C   UNL     1       6.772   4.712  14.210  0.00  0.00    +0.000 C 
ATOM     25  O   UNL     1       7.443   5.538  15.152  0.00  0.00    +0.000 OA
ENDBRANCH  18  25
ENDBRANCH  16  22
ENDBRANCH  15  16
ENDBRANCH   1  15
TORSDOF 4
ENDMDL
MODEL 3
REMARK VINA RESULT:      -7.0      1.433      1.814
REMARK  Name = 
REMARK  7 active torsions:
REMARK  status: ('A' for Active; 'I' for Inactive)
REMARK    1  A    between atoms: C_1  and  O_2
REMARK    2  A    between atoms: O_2  and  C_3
REMARK    3  A    between atoms: C_7  and  C_8
REMARK    4  A    between atoms: C_8  and  C_10
REMARK    5  A    between atoms: C_10  and  N_11
REMARK    6  A    between atoms: N_19  and  C_20
REMARK    7  A    between atoms: N_23  and  C_24
REMARK                            x       y       z     vdW  Elec       q    Type
REMARK                         _______ _______ _______ _____ _____    ______ ____
ROOT
ATOM      1  N   UNL     1       2.486   5.932  18.875  0.00  0.00    +0.000 N 
ATOM      2  C   UNL     1       2.145   5.343  20.076  0.00  0.00    +0.000 A 
ATOM      3 BR   UNL     1       2.313   3.539  20.562  0.00  0.00    +0.000 Br
ATOM      4  N   UNL     1       1.648   6.220  20.925  0.00  0.00    +0.000 NA
ATOM      5  C   UNL     1       1.675   7.398  20.258  0.00  0.00    +0.000 A 
ATOM      6  C   UNL     1       2.182   7.270  18.998  0.00  0.00    +0.000 A 
ATOM      7  C   UNL     1       2.312   8.387  18.117  0.00  0.00    +0.000 A 
ATOM      8  O   UNL     1       2.766   8.286  16.981  0.00  0.00    +0.000 OA
ATOM      9  N   UNL     1       1.880   9.592  18.688  0.00  0.00    +0.000 N 
ATOM     10  C   UNL     1       1.987  10.811  17.909  0.00  0.00    +0.000 C 
ATOM     11  C   UNL     1       1.349   9.745  19.984  0.00  0.00    +0.000 A 
ATOM     12  O   UNL     1       0.991  10.851  20.398  0.00  0.00    +0.000 OA
ATOM     13  N   UNL     1       1.252   8.600  20.768  0.00  0.00    +0.000 N 
ATOM     14  C   UNL     1       0.721   8.672  22.118  0.00  0.00    +0.000 C 
ENDROOT
BRANCH   1  15
ATOM     15  C   UNL     1       2.977   5.250  17.689  0.00  0.00    +0.000 C 
BRANCH  15  16
ATOM     16  C   UNL     1       4.322   4.582  17.892  0.00  0.00    +0.000 C 
ATOM     17  O   UNL     1       4.454   3.360  17.805  0.00  0.00    +0.000 OA
BRANCH  16  22
ATOM     18  C   UNL     1       7.098   7.161  17.725  0.00  0.00    +0.000 A 
ATOM     19  C   UNL     1       7.915   6.707  18.768  0.00  0.00    +0.000 A 
ATOM     20  C   UNL     1       7.543   5.609  19.537  0.00  0.00    +0.000 A 
ATOM     21  C   UNL     1       6.354   4.941  19.257  0.00  0.00    +0.000 A 
ATOM     22  C   UNL     1       5.522   5.391  18.218  0.00  0.00    +0.000 A 
ATOM     23  C   UNL     1       5.894   6.509  17.461  0.00  0.00    +0.000 A 
BRANCH  18  25
ATOM     24  C   UNL     1       8.185   9.280  17.772  0.00  0.00    +0.000 C 
ATOM     25  O   UNL     1       7.608   8.218  17.024  0.00  0.00    +0.000 OA
ENDBRANCH  18  25
ENDBRANCH  16  22
ENDBRANCH  15  16
ENDBRANCH   1  15
TORSDOF 4
ENDMDL
MODEL 4
REMARK VINA RESULT:      -6.9      2.229      5.981
REMARK  Name = 
REMARK  7 active torsions:
REMARK  status: ('A' for Active; 'I' for Inactive)
REMARK    1  A    between atoms: C_1  and  O_2
REMARK    2  A    between atoms: O_2  and  C_3
REMARK    3  A    between atoms: C_7  and  C_8
REMARK    4  A    between atoms: C_8  and  C_10
REMARK    5  A    between atoms: C_10  and  N_11
REMARK    6  A    between atoms: N_19  and  C_20
REMARK    7  A    between atoms: N_23  and  C_24
REMARK                            x       y       z     vdW  Elec       q    Type
REMARK                         _______ _______ _______ _____ _____    ______ ____
ROOT
ATOM      1  N   UNL     1       3.886   3.998  18.789  0.00  0.00    +0.000 N 
ATOM      2  C   UNL     1       3.325   3.121  17.881  0.00  0.00    +0.000 A 
ATOM      3 BR   UNL     1       1.842   2.000  18.129  0.00  0.00    +0.000 Br
ATOM      4  N   UNL     1       3.969   3.133  16.732  0.00  0.00    +0.000 NA
ATOM      5  C   UNL     1       4.960   4.039  16.901  0.00  0.00    +0.000 A 
ATOM      6  C   UNL     1       4.948   4.596  18.146  0.00  0.00    +0.000 A 
ATOM      7  C   UNL     1       5.900   5.585  18.544  0.00  0.00    +0.000 A 
ATOM      8  O   UNL     1       5.900   6.093  19.661  0.00  0.00    +0.000 OA
ATOM      9  N   UNL     1       6.811   5.910  17.530  0.00  0.00    +0.000 N 
ATOM     10  C   UNL     1       7.814   6.926  17.793  0.00  0.00    +0.000 C 
ATOM     11  C   UNL     1       6.844   5.345  16.240  0.00  0.00    +0.000 A 
ATOM     12  O   UNL     1       7.692   5.695  15.413  0.00  0.00    +0.000 OA
ATOM     13  N   UNL     1       5.884   4.383  15.945  0.00  0.00    +0.000 N 
ATOM     14  C   UNL     1       5.846   3.754  14.637  0.00  0.00    +0.000 C 
ENDROOT
BRANCH   1  15
ATOM     15  C   UNL     1       3.488   4.176  20.176  0.00  0.00    +0.000 C 
BRANCH  15  16
ATOM     16  C   UNL     1       2.180   4.925  20.335  0.00  0.00    +0.000 C 
ATOM     17  O   UNL     1       1.176   4.378  20.795  0.00  0.00    +0.000 OA
BRANCH  16  22
ATOM     18  C   UNL     1       1.384   8.632  20.312  0.00  0.00    +0.000 A 
ATOM     19  C   UNL     1       1.690   8.939  18.980  0.00  0.00    +0.000 A 
ATOM     20  C   UNL     1       2.188   7.964  18.121  0.00  0.00    +0.000 A 
ATOM     21  C   UNL     1       2.368   6.664  18.585  0.00  0.00    +0.000 A 
ATOM     22  C   UNL     1       2.073   6.345  19.921  0.00  0.00    +0.000 A 
ATOM     23  C   UNL     1       1.590   7.337  20.784  0.00  0.00    +0.000 A 
BRANCH  18  25
ATOM     24  C   UNL     1      -0.210  10.398  20.436  0.00  0.00    +0.000 C 
ATOM     25  O   UNL     1       0.860   9.674  21.027  0.00  0.00    +0.000 OA
ENDBRANCH  18  25
ENDBRANCH  16  22
ENDBRANCH  15  16
ENDBRANCH   1  15
TORSDOF 4
ENDMDL
MODEL 5
REMARK VINA RESULT:      -6.8      1.237      1.985
REMARK  Name = 
REMARK  7 active torsions:
REMARK  status: ('A' for Active; 'I' for Inactive)
REMARK    1  A    between atoms: C_1  and  O_2
REMARK    2  A    between atoms: O_2  and  C_3
REMARK    3  A    between atoms: C_7  and  C_8
REMARK    4  A    between atoms: C_8  and  C_10
REMARK    5  A    between atoms: C_10  and  N_11
REMARK    6  A    between atoms: N_19  and  C_20
REMARK    7  A    between atoms: N_23  and  C_24
REMARK                            x       y       z     vdW  Elec       q    Type
REMARK                         _______ _______ _______ _____ _____    ______ ____
ROOT
ATOM      1  N   UNL     1       2.623   5.081  19.372  0.00  0.00    +0.000 N 
ATOM      2  C   UNL     1       2.171   4.682  20.614  0.00  0.00    +0.000 A 
ATOM      3 BR   UNL     1       2.273   2.974  21.382  0.00  0.00    +0.000 Br
ATOM      4  N   UNL     1       1.613   5.678  21.272  0.00  0.00    +0.000 NA
ATOM      5  C   UNL     1       1.712   6.741  20.439  0.00  0.00    +0.000 A 
ATOM      6  C   UNL     1       2.326   6.423  19.262  0.00  0.00    +0.000 A 
ATOM      7  C   UNL     1       2.546   7.392  18.237  0.00  0.00    +0.000 A 
ATOM      8  O   UNL     1       3.096   7.119  17.174  0.00  0.00    +0.000 OA
ATOM      9  N   UNL     1       2.082   8.669  18.577  0.00  0.00    +0.000 N 
ATOM     10  C   UNL     1       2.271   9.756  17.634  0.00  0.00    +0.000 C 
ATOM     11  C   UNL     1       1.442   9.019  19.784  0.00  0.00    +0.000 A 
ATOM     12  O   UNL     1       1.063  10.175  19.991  0.00  0.00    +0.000 OA
ATOM     13  N   UNL     1       1.262   8.006  20.721  0.00  0.00    +0.000 N 
ATOM     14  C   UNL     1       0.616   8.283  21.991  0.00  0.00    +0.000 C 
ENDROOT
BRANCH   1  15
ATOM     15  C   UNL     1       3.207   4.227  18.351  0.00  0.00    +0.000 C 
BRANCH  15  16
ATOM     16  C   UNL     1       4.722   4.245  18.345  0.00  0.00    +0.000 C 
ATOM     17  O   UNL     1       5.373   4.071  19.377  0.00  0.00    +0.000 OA
BRANCH  16  22
ATOM     18  C   UNL     1       5.767   4.217  14.700  0.00  0.00    +0.000 A 
ATOM     19  C   UNL     1       7.040   4.791  14.806  0.00  0.00    +0.000 A 
ATOM     20  C   UNL     1       7.527   5.219  16.038  0.00  0.00    +0.000 A 
ATOM     21  C   UNL     1       6.748   5.058  17.181  0.00  0.00    +0.000 A 
ATOM     22  C   UNL     1       5.466   4.491  17.086  0.00  0.00    +0.000 A 
ATOM     23  C   UNL     1       4.976   4.081  15.840  0.00  0.00    +0.000 A 
BRANCH  18  25
ATOM     24  C   UNL     1       6.491   3.688  12.492  0.00  0.00    +0.000 C 
ATOM     25  O   UNL     1       5.438   3.800  13.440  0.00  0.00    +0.000 OA
ENDBRANCH  18  25
ENDBRANCH  16  22
ENDBRANCH  15  16
ENDBRANCH   1  15
TORSDOF 4
ENDMDL
MODEL 6
REMARK VINA RESULT:      -6.7      1.685      2.283
REMARK  Name = 
REMARK  7 active torsions:
REMARK  status: ('A' for Active; 'I' for Inactive)
REMARK    1  A    between atoms: C_1  and  O_2
REMARK    2  A    between atoms: O_2  and  C_3
REMARK    3  A    between atoms: C_7  and  C_8
REMARK    4  A    between atoms: C_8  and  C_10
REMARK    5  A    between atoms: C_10  and  N_11
REMARK    6  A    between atoms: N_19  and  C_20
REMARK    7  A    between atoms: N_23  and  C_24
REMARK                            x       y       z     vdW  Elec       q    Type
REMARK                         _______ _______ _______ _____ _____    ______ ____
ROOT
ATOM      1  N   UNL     1       2.312   6.335  19.326  0.00  0.00    +0.000 N 
ATOM      2  C   UNL     1       1.857   5.800  20.516  0.00  0.00    +0.000 A 
ATOM      3 BR   UNL     1       1.997   4.026  21.108  0.00  0.00    +0.000 Br
ATOM      4  N   UNL     1       1.265   6.709  21.263  0.00  0.00    +0.000 NA
ATOM      5  C   UNL     1       1.344   7.853  20.543  0.00  0.00    +0.000 A 
ATOM      6  C   UNL     1       1.980   7.672  19.349  0.00  0.00    +0.000 A 
ATOM      7  C   UNL     1       2.185   8.746  18.430  0.00  0.00    +0.000 A 
ATOM      8  O   UNL     1       2.755   8.597  17.353  0.00  0.00    +0.000 OA
ATOM      9  N   UNL     1       1.682   9.969  18.891  0.00  0.00    +0.000 N 
ATOM     10  C   UNL     1       1.852  11.150  18.066  0.00  0.00    +0.000 C 
ATOM     11  C   UNL     1       1.019  10.178  20.118  0.00  0.00    +0.000 A 
ATOM     12  O   UNL     1       0.605  11.296  20.436  0.00  0.00    +0.000 OA
ATOM     13  N   UNL     1       0.856   9.071  20.945  0.00  0.00    +0.000 N 
ATOM     14  C   UNL     1       0.188   9.201  22.228  0.00  0.00    +0.000 C 
ENDROOT
BRANCH   1  15
ATOM     15  C   UNL     1       2.931   5.604  18.233  0.00  0.00    +0.000 C 
BRANCH  15  16
ATOM     16  C   UNL     1       4.419   5.385  18.421  0.00  0.00    +0.000 C 
ATOM     17  O   UNL     1       4.943   5.445  19.535  0.00  0.00    +0.000 OA
BRANCH  16  22
ATOM     18  C   UNL     1       5.618   4.470  14.942  0.00  0.00    +0.000 A 
ATOM     19  C   UNL     1       6.994   4.362  15.178  0.00  0.00    +0.000 A 
ATOM     20  C   UNL     1       7.522   4.628  16.439  0.00  0.00    +0.000 A 
ATOM     21  C   UNL     1       6.673   4.986  17.481  0.00  0.00    +0.000 A 
ATOM     22  C   UNL     1       5.291   5.106  17.254  0.00  0.00    +0.000 A 
ATOM     23  C   UNL     1       4.770   4.856  15.979  0.00  0.00    +0.000 A 
BRANCH  18  25
ATOM     24  C   UNL     1       6.229   3.608  12.807  0.00  0.00    +0.000 C 
ATOM     25  O   UNL     1       5.234   4.135  13.673  0.00  0.00    +0.000 OA
ENDBRANCH  18  25
ENDBRANCH  16  22
ENDBRANCH  15  16
ENDBRANCH   1  15
TORSDOF 4
ENDMDL
MODEL 7
REMARK VINA RESULT:      -6.7      2.202      5.801
REMARK  Name = 
REMARK  7 active torsions:
REMARK  status: ('A' for Active; 'I' for Inactive)
REMARK    1  A    between atoms: C_1  and  O_2
REMARK    2  A    between atoms: O_2  and  C_3
REMARK    3  A    between atoms: C_7  and  C_8
REMARK    4  A    between atoms: C_8  and  C_10
REMARK    5  A    between atoms: C_10  and  N_11
REMARK    6  A    between atoms: N_19  and  C_20
REMARK    7  A    between atoms: N_23  and  C_24
REMARK                            x       y       z     vdW  Elec       q    Type
REMARK                         _______ _______ _______ _____ _____    ______ ____
ROOT
ATOM      1  N   UNL     1       4.015   3.811  18.770  0.00  0.00    +0.000 N 
ATOM      2  C   UNL     1       3.419   3.044  17.789  0.00  0.00    +0.000 A 
ATOM      3 BR   UNL     1       1.951   1.890  17.965  0.00  0.00    +0.000 Br
ATOM      4  N   UNL     1       4.012   3.197  16.623  0.00  0.00    +0.000 NA
ATOM      5  C   UNL     1       5.008   4.084  16.856  0.00  0.00    +0.000 A 
ATOM      6  C   UNL     1       5.047   4.490  18.158  0.00  0.00    +0.000 A 
ATOM      7  C   UNL     1       6.012   5.432  18.629  0.00  0.00    +0.000 A 
ATOM      8  O   UNL     1       6.059   5.805  19.798  0.00  0.00    +0.000 OA
ATOM      9  N   UNL     1       6.878   5.882  17.624  0.00  0.00    +0.000 N 
ATOM     10  C   UNL     1       7.889   6.867  17.963  0.00  0.00    +0.000 C 
ATOM     11  C   UNL     1       6.858   5.474  16.275  0.00  0.00    +0.000 A 
ATOM     12  O   UNL     1       7.668   5.926  15.461  0.00  0.00    +0.000 OA
ATOM     13  N   UNL     1       5.888   4.546  15.910  0.00  0.00    +0.000 N 
ATOM     14  C   UNL     1       5.796   4.076  14.539  0.00  0.00    +0.000 C 
ENDROOT
BRANCH   1  15
ATOM     15  C   UNL     1       3.676   3.821  20.183  0.00  0.00    +0.000 C 
BRANCH  15  16
ATOM     16  C   UNL     1       2.293   4.369  20.467  0.00  0.00    +0.000 C 
ATOM     17  O   UNL     1       1.387   3.648  20.888  0.00  0.00    +0.000 OA
BRANCH  16  22
ATOM     18  C   UNL     1       2.211   7.842  18.944  0.00  0.00    +0.000 A 
ATOM     19  C   UNL     1       1.571   8.544  19.973  0.00  0.00    +0.000 A 
ATOM     20  C   UNL     1       1.136   7.887  21.121  0.00  0.00    +0.000 A 
ATOM     21  C   UNL     1       1.354   6.519  21.256  0.00  0.00    +0.000 A 
ATOM     22  C   UNL     1       1.988   5.802  20.227  0.00  0.00    +0.000 A 
ATOM     23  C   UNL     1       2.406   6.467  19.068  0.00  0.00    +0.000 A 
BRANCH  18  25
ATOM     24  C   UNL     1       2.034   9.906  17.768  0.00  0.00    +0.000 C 
ATOM     25  O   UNL     1       2.626   8.621  17.900  0.00  0.00    +0.000 OA
ENDBRANCH  18  25
ENDBRANCH  16  22
ENDBRANCH  15  16
ENDBRANCH   1  15
TORSDOF 4
ENDMDL
MODEL 8
REMARK VINA RESULT:      -6.7      2.587      5.384
REMARK  Name = 
REMARK  7 active torsions:
REMARK  status: ('A' for Active; 'I' for Inactive)
REMARK    1  A    between atoms: C_1  and  O_2
REMARK    2  A    between atoms: O_2  and  C_3
REMARK    3  A    between atoms: C_7  and  C_8
REMARK    4  A    between atoms: C_8  and  C_10
REMARK    5  A    between atoms: C_10  and  N_11
REMARK    6  A    between atoms: N_19  and  C_20
REMARK    7  A    between atoms: N_23  and  C_24
REMARK                            x       y       z     vdW  Elec       q    Type
REMARK                         _______ _______ _______ _____ _____    ______ ____
ROOT
ATOM      1  N   UNL     1       4.130   3.076  18.265  0.00  0.00    +0.000 N 
ATOM      2  C   UNL     1       4.639   3.099  19.549  0.00  0.00    +0.000 A 
ATOM      3 BR   UNL     1       3.994   2.194  21.060  0.00  0.00    +0.000 Br
ATOM      4  N   UNL     1       5.702   3.873  19.638  0.00  0.00    +0.000 NA
ATOM      5  C   UNL     1       5.884   4.354  18.385  0.00  0.00    +0.000 A 
ATOM      6  C   UNL     1       4.945   3.892  17.510  0.00  0.00    +0.000 A 
ATOM      7  C   UNL     1       4.948   4.263  16.130  0.00  0.00    +0.000 A 
ATOM      8  O   UNL     1       4.109   3.854  15.333  0.00  0.00    +0.000 OA
ATOM      9  N   UNL     1       6.002   5.121  15.793  0.00  0.00    +0.000 N 
ATOM     10  C   UNL     1       6.139   5.551  14.414  0.00  0.00    +0.000 C 
ATOM     11  C   UNL     1       6.979   5.614  16.681  0.00  0.00    +0.000 A 
ATOM     12  O   UNL     1       7.871   6.373  16.289  0.00  0.00    +0.000 OA
ATOM     13  N   UNL     1       6.892   5.206  18.008  0.00  0.00    +0.000 N 
ATOM     14  C   UNL     1       7.862   5.664  18.987  0.00  0.00    +0.000 C 
ENDROOT
BRANCH   1  15
ATOM     15  C   UNL     1       2.919   2.401  17.830  0.00  0.00    +0.000 C 
BRANCH  15  16
ATOM     16  C   UNL     1       1.649   3.102  18.267  0.00  0.00    +0.000 C 
ATOM     17  O   UNL     1       0.551   2.547  18.200  0.00  0.00    +0.000 OA
BRANCH  16  22
ATOM     18  C   UNL     1       2.218   6.843  18.517  0.00  0.00    +0.000 A 
ATOM     19  C   UNL     1       1.981   7.036  19.884  0.00  0.00    +0.000 A 
ATOM     20  C   UNL     1       1.599   5.972  20.697  0.00  0.00    +0.000 A 
ATOM     21  C   UNL     1       1.469   4.698  20.149  0.00  0.00    +0.000 A 
ATOM     22  C   UNL     1       1.696   4.494  18.778  0.00  0.00    +0.000 A 
ATOM     23  C   UNL     1       2.061   5.573  17.964  0.00  0.00    +0.000 A 
BRANCH  18  25
ATOM     24  C   UNL     1       1.833   9.133  17.981  0.00  0.00    +0.000 C 
ATOM     25  O   UNL     1       2.631   7.964  17.851  0.00  0.00    +0.000 OA
ENDBRANCH  18  25
ENDBRANCH  16  22
ENDBRANCH  15  16
ENDBRANCH   1  15
TORSDOF 4
ENDMDL
MODEL 9
REMARK VINA RESULT:      -6.5      1.793      2.634
REMARK  Name = 
REMARK  7 active torsions:
REMARK  status: ('A' for Active; 'I' for Inactive)
REMARK    1  A    between atoms: C_1  and  O_2
REMARK    2  A    between atoms: O_2  and  C_3
REMARK    3  A    between atoms: C_7  and  C_8
REMARK    4  A    between atoms: C_8  and  C_10
REMARK    5  A    between atoms: C_10  and  N_11
REMARK    6  A    between atoms: N_19  and  C_20
REMARK    7  A    between atoms: N_23  and  C_24
REMARK                            x       y       z     vdW  Elec       q    Type
REMARK                         _______ _______ _______ _____ _____    ______ ____
ROOT
ATOM      1  N   UNL     1       3.856   4.638  17.275  0.00  0.00    +0.000 N 
ATOM      2  C   UNL     1       3.592   3.625  18.176  0.00  0.00    +0.000 A 
ATOM      3 BR   UNL     1       4.067   1.816  18.044  0.00  0.00    +0.000 Br
ATOM      4  N   UNL     1       2.921   4.065  19.221  0.00  0.00    +0.000 NA
ATOM      5  C   UNL     1       2.754   5.389  18.992  0.00  0.00    +0.000 A 
ATOM      6  C   UNL     1       3.313   5.786  17.812  0.00  0.00    +0.000 A 
ATOM      7  C   UNL     1       3.265   7.143  17.370  0.00  0.00    +0.000 A 
ATOM      8  O   UNL     1       3.762   7.514  16.311  0.00  0.00    +0.000 OA
ATOM      9  N   UNL     1       2.607   7.992  18.270  0.00  0.00    +0.000 N 
ATOM     10  C   UNL     1       2.515   9.406  17.956  0.00  0.00    +0.000 C 
ATOM     11  C   UNL     1       2.020   7.603  19.491  0.00  0.00    +0.000 A 
ATOM     12  O   UNL     1       1.457   8.427  20.217  0.00  0.00    +0.000 OA
ATOM     13  N   UNL     1       2.108   6.258  19.835  0.00  0.00    +0.000 N 
ATOM     14  C   UNL     1       1.534   5.775  21.078  0.00  0.00    +0.000 C 
ENDROOT
BRANCH   1  15
ATOM     15  C   UNL     1       4.496   4.495  15.978  0.00  0.00    +0.000 C 
BRANCH  15  16
ATOM     16  C   UNL     1       6.009   4.530  16.046  0.00  0.00    +0.000 C 
ATOM     17  O   UNL     1       6.704   3.827  15.311  0.00  0.00    +0.000 OA
BRANCH  16  22
ATOM     18  C   UNL     1       7.615   7.550  17.684  0.00  0.00    +0.000 A 
ATOM     19  C   UNL     1       8.205   6.939  18.798  0.00  0.00    +0.000 A 
ATOM     20  C   UNL     1       8.042   5.577  19.032  0.00  0.00    +0.000 A 
ATOM     21  C   UNL     1       7.300   4.808  18.139  0.00  0.00    +0.000 A 
ATOM     22  C   UNL     1       6.697   5.411  17.022  0.00  0.00    +0.000 A 
ATOM     23  C   UNL     1       6.850   6.785  16.805  0.00  0.00    +0.000 A 
BRANCH  18  25
ATOM     24  C   UNL     1       8.708   9.479  18.556  0.00  0.00    +0.000 C 
ATOM     25  O   UNL     1       7.896   8.882  17.554  0.00  0.00    +0.000 OA
ENDBRANCH  18  25
ENDBRANCH  16  22
ENDBRANCH  15  16
ENDBRANCH   1  15
TORSDOF 4
ENDMDL
