MODEL 1
REMARK VINA RESULT:      -7.2      0.000      0.000
REMARK  Name = 
REMARK  6 active torsions:
REMARK  status: ('A' for Active; 'I' for Inactive)
REMARK    1  A    between atoms: C_1  and  C_2
REMARK    2  A    between atoms: C_2  and  S_3
REMARK    3  A    between atoms: S_3  and  C_4
REMARK    4  A    between atoms: N_13  and  C_14
REMARK    5  A    between atoms: C_17  and  O_18
REMARK    6  A    between atoms: O_18  and  C_19
REMARK                            x       y       z     vdW  Elec       q    Type
REMARK                         _______ _______ _______ _____ _____    ______ ____
ROOT
ATOM      1  C   UNL     1       2.278   5.814  20.244  0.00  0.00    +0.000 A 
ATOM      2  N   UNL     1       1.469   6.406  21.074  0.00  0.00    +0.000 NA
ATOM      3  C   UNL     1       1.150   7.680  20.760  0.00  0.00    +0.000 A 
ATOM      4  S   UNL     1       0.148   8.624  21.770  0.00  0.00    +0.000 S 
ATOM      5  C   UNL     1       0.299   9.982  20.755  0.00  0.00    +0.000 A 
ATOM      6  C   UNL     1       1.064   9.723  19.633  0.00  0.00    +0.000 A 
ATOM      7  C   UNL     1       1.586   8.391  19.667  0.00  0.00    +0.000 A 
ATOM      8  C   UNL     1       2.481   7.730  18.735  0.00  0.00    +0.000 A 
ATOM      9  O   UNL     1       2.890   8.320  17.737  0.00  0.00    +0.000 OA
ATOM     10  N   UNL     1       2.788   6.400  19.069  0.00  0.00    +0.000 N 
ATOM     11  C   UNL     1       1.313  10.767  18.582  0.00  0.00    +0.000 C 
ATOM     12  C   UNL     1       0.338  11.947  18.710  0.00  0.00    +0.000 C 
ATOM     13  C   UNL     1       0.200  12.404  20.168  0.00  0.00    +0.000 C 
ATOM     14  C   UNL     1      -0.368  11.288  21.061  0.00  0.00    +0.000 C 
ENDROOT
BRANCH  10  15
ATOM     15  C   UNL     1       3.619   5.688  18.151  0.00  0.00    +0.000 A 
ATOM     16  C   UNL     1       4.939   6.102  17.928  0.00  0.00    +0.000 A 
ATOM     17  C   UNL     1       5.764   5.377  17.067  0.00  0.00    +0.000 A 
ATOM     18  C   UNL     1       5.280   4.242  16.417  0.00  0.00    +0.000 A 
ATOM     19  C   UNL     1       3.944   3.878  16.571  0.00  0.00    +0.000 A 
ATOM     20  C   UNL     1       3.115   4.598  17.435  0.00  0.00    +0.000 A 
BRANCH  18  21
ATOM     21  O   UNL     1       6.172   3.584  15.615  0.00  0.00    +0.000 OA
ATOM     22  C   UNL     1       6.165   4.008  14.255  0.00  0.00    +0.000 C 
ENDBRANCH  18  21
ENDBRANCH  10  15
BRANCH   1  23
ATOM     23  S   UNL     1       2.869   4.212  20.717  0.00  0.00    +0.000 S 
BRANCH  23  25
ATOM     24  C   UNL     1       0.752   2.864  19.614  0.00  0.00    +0.000 C 
ATOM     25  C   UNL     1       1.318   3.302  20.959  0.00  0.00    +0.000 C 
ENDBRANCH  23  25
ENDBRANCH   1  23
TORSDOF 4
ENDMDL
MODEL 2
REMARK VINA RESULT:      -7.2      0.454      1.033
REMARK  Name = 
REMARK  6 active torsions:
REMARK  status: ('A' for Active; 'I' for Inactive)
REMARK    1  A    between atoms: C_1  and  C_2
REMARK    2  A    between atoms: C_2  and  S_3
REMARK    3  A    between atoms: S_3  and  C_4
REMARK    4  A    between atoms: N_13  and  C_14
REMARK    5  A    between atoms: C_17  and  O_18
REMARK    6  A    between atoms: O_18  and  C_19
REMARK                            x       y       z     vdW  Elec       q    Type
REMARK                         _______ _______ _______ _____ _____    ______ ____
ROOT
ATOM      1  C   UNL     1       2.000   5.872  20.483  0.00  0.00    +0.000 A 
ATOM      2  N   UNL     1       1.163   6.529  21.232  0.00  0.00    +0.000 NA
ATOM      3  C   UNL     1       0.936   7.807  20.862  0.00  0.00    +0.000 A 
ATOM      4  S   UNL     1      -0.089   8.830  21.767  0.00  0.00    +0.000 S 
ATOM      5  C   UNL     1       0.211  10.149  20.732  0.00  0.00    +0.000 A 
ATOM      6  C   UNL     1       1.044   9.818  19.680  0.00  0.00    +0.000 A 
ATOM      7  C   UNL     1       1.491   8.462  19.789  0.00  0.00    +0.000 A 
ATOM      8  C   UNL     1       2.418   7.731  18.945  0.00  0.00    +0.000 A 
ATOM      9  O   UNL     1       2.933   8.269  17.968  0.00  0.00    +0.000 OA
ATOM     10  N   UNL     1       2.629   6.397  19.337  0.00  0.00    +0.000 N 
ATOM     11  C   UNL     1       1.428  10.816  18.626  0.00  0.00    +0.000 C 
ATOM     12  C   UNL     1       0.508  12.048  18.647  0.00  0.00    +0.000 C 
ATOM     13  C   UNL     1       0.285  12.554  20.078  0.00  0.00    +0.000 C 
ATOM     14  C   UNL     1      -0.408  11.495  20.952  0.00  0.00    +0.000 C 
ENDROOT
BRANCH  10  15
ATOM     15  C   UNL     1       3.488   5.617  18.504  0.00  0.00    +0.000 A 
ATOM     16  C   UNL     1       2.946   4.781  17.519  0.00  0.00    +0.000 A 
ATOM     17  C   UNL     1       3.789   4.057  16.674  0.00  0.00    +0.000 A 
ATOM     18  C   UNL     1       5.173   4.155  16.807  0.00  0.00    +0.000 A 
ATOM     19  C   UNL     1       5.713   4.920  17.839  0.00  0.00    +0.000 A 
ATOM     20  C   UNL     1       4.875   5.649  18.685  0.00  0.00    +0.000 A 
BRANCH  18  21
ATOM     21  O   UNL     1       5.915   3.429  15.915  0.00  0.00    +0.000 OA
ATOM     22  C   UNL     1       6.081   4.051  14.644  0.00  0.00    +0.000 C 
ENDBRANCH  18  21
ENDBRANCH  10  15
BRANCH   1  23
ATOM     23  S   UNL     1       2.468   4.257  21.041  0.00  0.00    +0.000 S 
BRANCH  23  25
ATOM     24  C   UNL     1       1.623   2.147  19.509  0.00  0.00    +0.000 C 
ATOM     25  C   UNL     1       1.096   3.242  20.428  0.00  0.00    +0.000 C 
ENDBRANCH  23  25
ENDBRANCH   1  23
TORSDOF 4
ENDMDL
MODEL 3
REMARK VINA RESULT:      -7.1      1.569      2.189
REMARK  Name = 
REMARK  6 active torsions:
REMARK  status: ('A' for Active; 'I' for Inactive)
REMARK    1  A    between atoms: C_1  and  C_2
REMARK    2  A    between atoms: C_2  and  S_3
REMARK    3  A    between atoms: S_3  and  C_4
REMARK    4  A    between atoms: N_13  and  C_14
REMARK    5  A    between atoms: C_17  and  O_18
REMARK    6  A    between atoms: O_18  and  C_19
REMARK                            x       y       z     vdW  Elec       q    Type
REMARK                         _______ _______ _______ _____ _____    ______ ____
ROOT
ATOM      1  C   UNL     1       3.847   4.915  19.081  0.00  0.00    +0.000 A 
ATOM      2  N   UNL     1       3.036   5.223  20.052  0.00  0.00    +0.000 NA
ATOM      3  C   UNL     1       2.437   6.428  19.943  0.00  0.00    +0.000 A 
ATOM      4  S   UNL     1       1.390   7.017  21.157  0.00  0.00    +0.000 S 
ATOM      5  C   UNL     1       1.152   8.484  20.326  0.00  0.00    +0.000 A 
ATOM      6  C   UNL     1       1.821   8.523  19.117  0.00  0.00    +0.000 A 
ATOM      7  C   UNL     1       2.597   7.336  18.923  0.00  0.00    +0.000 A 
ATOM      8  C   UNL     1       3.493   6.991  17.835  0.00  0.00    +0.000 A 
ATOM      9  O   UNL     1       3.661   7.765  16.894  0.00  0.00    +0.000 OA
ATOM     10  N   UNL     1       4.094   5.726  17.957  0.00  0.00    +0.000 N 
ATOM     11  C   UNL     1       1.737   9.710  18.200  0.00  0.00    +0.000 C 
ATOM     12  C   UNL     1       0.567  10.635  18.572  0.00  0.00    +0.000 C 
ATOM     13  C   UNL     1       0.509  10.882  20.086  0.00  0.00    +0.000 C 
ATOM     14  C   UNL     1       0.279   9.576  20.865  0.00  0.00    +0.000 C 
ENDROOT
BRANCH  10  15
ATOM     15  C   UNL     1       4.939   5.317  16.881  0.00  0.00    +0.000 A 
ATOM     16  C   UNL     1       4.449   4.457  15.889  0.00  0.00    +0.000 A 
ATOM     17  C   UNL     1       5.261   4.096  14.811  0.00  0.00    +0.000 A 
ATOM     18  C   UNL     1       6.564   4.583  14.719  0.00  0.00    +0.000 A 
ATOM     19  C   UNL     1       7.081   5.369  15.746  0.00  0.00    +0.000 A 
ATOM     20  C   UNL     1       6.272   5.736  16.824  0.00  0.00    +0.000 A 
BRANCH  18  21
ATOM     21  O   UNL     1       7.272   4.195  13.613  0.00  0.00    +0.000 OA
ATOM     22  C   UNL     1       6.476   3.631  12.574  0.00  0.00    +0.000 C 
ENDBRANCH  18  21
ENDBRANCH  10  15
BRANCH   1  23
ATOM     23  S   UNL     1       4.794   3.430  19.278  0.00  0.00    +0.000 S 
BRANCH  23  25
ATOM     24  C   UNL     1       2.737   2.131  18.013  0.00  0.00    +0.000 C 
ATOM     25  C   UNL     1       3.493   2.167  19.336  0.00  0.00    +0.000 C 
ENDBRANCH  23  25
ENDBRANCH   1  23
TORSDOF 4
ENDMDL
MODEL 4
REMARK VINA RESULT:      -6.9      2.082      7.191
REMARK  Name = 
REMARK  6 active torsions:
REMARK  status: ('A' for Active; 'I' for Inactive)
REMARK    1  A    between atoms: C_1  and  C_2
REMARK    2  A    between atoms: C_2  and  S_3
REMARK    3  A    between atoms: S_3  and  C_4
REMARK    4  A    between atoms: N_13  and  C_14
REMARK    5  A    between atoms: C_17  and  O_18
REMARK    6  A    between atoms: O_18  and  C_19
REMARK                            x       y       z     vdW  Elec       q    Type
REMARK                         _______ _______ _______ _____ _____    ______ ____
ROOT
ATOM      1  C   UNL     1       1.014   7.963  20.388  0.00  0.00    +0.000 A 
ATOM      2  N   UNL     1       1.581   6.816  20.626  0.00  0.00    +0.000 NA
ATOM      3  C   UNL     1       2.492   6.422  19.711  0.00  0.00    +0.000 A 
ATOM      4  S   UNL     1       3.289   4.917  19.836  0.00  0.00    +0.000 S 
ATOM      5  C   UNL     1       4.136   5.174  18.382  0.00  0.00    +0.000 A 
ATOM      6  C   UNL     1       3.860   6.406  17.818  0.00  0.00    +0.000 A 
ATOM      7  C   UNL     1       2.871   7.107  18.581  0.00  0.00    +0.000 A 
ATOM      8  C   UNL     1       2.248   8.391  18.318  0.00  0.00    +0.000 A 
ATOM      9  O   UNL     1       2.561   9.047  17.327  0.00  0.00    +0.000 OA
ATOM     10  N   UNL     1       1.314   8.792  19.289  0.00  0.00    +0.000 N 
ATOM     11  C   UNL     1       4.512   6.862  16.545  0.00  0.00    +0.000 C 
ATOM     12  C   UNL     1       5.742   6.009  16.198  0.00  0.00    +0.000 C 
ATOM     13  C   UNL     1       5.450   4.511  16.369  0.00  0.00    +0.000 C 
ATOM     14  C   UNL     1       5.093   4.166  17.824  0.00  0.00    +0.000 C 
ENDROOT
BRANCH  10  15
ATOM     15  C   UNL     1       0.716  10.076  19.105  0.00  0.00    +0.000 A 
ATOM     16  C   UNL     1       1.354  11.226  19.589  0.00  0.00    +0.000 A 
ATOM     17  C   UNL     1       0.793  12.485  19.366  0.00  0.00    +0.000 A 
ATOM     18  C   UNL     1      -0.408  12.606  18.668  0.00  0.00    +0.000 A 
ATOM     19  C   UNL     1      -1.086  11.460  18.260  0.00  0.00    +0.000 A 
ATOM     20  C   UNL     1      -0.527  10.198  18.477  0.00  0.00    +0.000 A 
BRANCH  18  21
ATOM     21  O   UNL     1      -0.864  13.882  18.476  0.00  0.00    +0.000 OA
ATOM     22  C   UNL     1      -0.084  14.888  19.117  0.00  0.00    +0.000 C 
ENDBRANCH  18  21
ENDBRANCH  10  15
BRANCH   1  23
ATOM     23  S   UNL     1      -0.320   8.427  21.459  0.00  0.00    +0.000 S 
BRANCH  23  25
ATOM     24  C   UNL     1      -0.482  10.586  23.142  0.00  0.00    +0.000 C 
ATOM     25  C   UNL     1       0.509   9.555  22.613  0.00  0.00    +0.000 C 
ENDBRANCH  23  25
ENDBRANCH   1  23
TORSDOF 4
ENDMDL
MODEL 5
REMARK VINA RESULT:      -6.1      6.871      8.868
REMARK  Name = 
REMARK  6 active torsions:
REMARK  status: ('A' for Active; 'I' for Inactive)
REMARK    1  A    between atoms: C_1  and  C_2
REMARK    2  A    between atoms: C_2  and  S_3
REMARK    3  A    between atoms: S_3  and  C_4
REMARK    4  A    between atoms: N_13  and  C_14
REMARK    5  A    between atoms: C_17  and  O_18
REMARK    6  A    between atoms: O_18  and  C_19
REMARK                            x       y       z     vdW  Elec       q    Type
REMARK                         _______ _______ _______ _____ _____    ______ ____
ROOT
ATOM      1  C   UNL     1      -3.159  11.777  18.615  0.00  0.00    +0.000 A 
ATOM      2  N   UNL     1      -4.441  11.555  18.652  0.00  0.00    +0.000 NA
ATOM      3  C   UNL     1      -5.070  11.984  19.767  0.00  0.00    +0.000 A 
ATOM      4  S   UNL     1      -6.740  11.722  20.007  0.00  0.00    +0.000 S 
ATOM      5  C   UNL     1      -6.698  12.457  21.542  0.00  0.00    +0.000 A 
ATOM      6  C   UNL     1      -5.443  12.941  21.864  0.00  0.00    +0.000 A 
ATOM      7  C   UNL     1      -4.495  12.625  20.839  0.00  0.00    +0.000 A 
ATOM      8  C   UNL     1      -3.068  12.882  20.797  0.00  0.00    +0.000 A 
ATOM      9  O   UNL     1      -2.509  13.461  21.727  0.00  0.00    +0.000 OA
ATOM     10  N   UNL     1      -2.433  12.443  19.622  0.00  0.00    +0.000 N 
ATOM     11  C   UNL     1      -5.174  13.651  23.160  0.00  0.00    +0.000 C 
ATOM     12  C   UNL     1      -6.475  14.095  23.846  0.00  0.00    +0.000 C 
ATOM     13  C   UNL     1      -7.523  12.974  23.838  0.00  0.00    +0.000 C 
ATOM     14  C   UNL     1      -7.917  12.577  22.405  0.00  0.00    +0.000 C 
ENDROOT
BRANCH  10  15
ATOM     15  C   UNL     1      -1.038  12.726  19.508  0.00  0.00    +0.000 A 
ATOM     16  C   UNL     1      -0.092  11.808  19.981  0.00  0.00    +0.000 A 
ATOM     17  C   UNL     1       1.272  12.064  19.825  0.00  0.00    +0.000 A 
ATOM     18  C   UNL     1       1.701  13.237  19.205  0.00  0.00    +0.000 A 
ATOM     19  C   UNL     1       0.764  14.190  18.810  0.00  0.00    +0.000 A 
ATOM     20  C   UNL     1      -0.601  13.936  18.961  0.00  0.00    +0.000 A 
BRANCH  18  21
ATOM     21  O   UNL     1       3.055  13.385  19.074  0.00  0.00    +0.000 OA
ATOM     22  C   UNL     1       3.450  14.437  18.198  0.00  0.00    +0.000 C 
ENDBRANCH  18  21
ENDBRANCH  10  15
BRANCH   1  23
ATOM     23  S   UNL     1      -2.268  11.063  17.260  0.00  0.00    +0.000 S 
BRANCH  23  25
ATOM     24  C   UNL     1      -3.040  10.092  14.815  0.00  0.00    +0.000 C 
ATOM     25  C   UNL     1      -3.587  10.816  16.039  0.00  0.00    +0.000 C 
ENDBRANCH  23  25
ENDBRANCH   1  23
TORSDOF 4
ENDMDL
MODEL 6
REMARK VINA RESULT:      -6.1      6.665      8.718
REMARK  Name = 
REMARK  6 active torsions:
REMARK  status: ('A' for Active; 'I' for Inactive)
REMARK    1  A    between atoms: C_1  and  C_2
REMARK    2  A    between atoms: C_2  and  S_3
REMARK    3  A    between atoms: S_3  and  C_4
REMARK    4  A    between atoms: N_13  and  C_14
REMARK    5  A    between atoms: C_17  and  O_18
REMARK    6  A    between atoms: O_18  and  C_19
REMARK                            x       y       z     vdW  Elec       q    Type
REMARK                         _______ _______ _______ _____ _____    ______ ____
ROOT
ATOM      1  C   UNL     1      -3.143  11.605  18.183  0.00  0.00    +0.000 A 
ATOM      2  N   UNL     1      -4.430  11.413  18.196  0.00  0.00    +0.000 NA
ATOM      3  C   UNL     1      -5.059  11.794  19.328  0.00  0.00    +0.000 A 
ATOM      4  S   UNL     1      -6.737  11.560  19.539  0.00  0.00    +0.000 S 
ATOM      5  C   UNL     1      -6.692  12.204  21.114  0.00  0.00    +0.000 A 
ATOM      6  C   UNL     1      -5.430  12.638  21.474  0.00  0.00    +0.000 A 
ATOM      7  C   UNL     1      -4.480  12.357  20.441  0.00  0.00    +0.000 A 
ATOM      8  C   UNL     1      -3.046  12.582  20.426  0.00  0.00    +0.000 A 
ATOM      9  O   UNL     1      -2.483  13.092  21.392  0.00  0.00    +0.000 OA
ATOM     10  N   UNL     1      -2.411  12.194  19.233  0.00  0.00    +0.000 N 
ATOM     11  C   UNL     1      -5.156  13.266  22.810  0.00  0.00    +0.000 C 
ATOM     12  C   UNL     1      -6.452  13.702  23.510  0.00  0.00    +0.000 C 
ATOM     13  C   UNL     1      -7.528  12.610  23.429  0.00  0.00    +0.000 C 
ATOM     14  C   UNL     1      -7.916  12.305  21.972  0.00  0.00    +0.000 C 
ENDROOT
BRANCH  10  15
ATOM     15  C   UNL     1      -1.008  12.449  19.147  0.00  0.00    +0.000 A 
ATOM     16  C   UNL     1      -0.544  13.666  18.629  0.00  0.00    +0.000 A 
ATOM     17  C   UNL     1       0.826  13.933  18.591  0.00  0.00    +0.000 A 
ATOM     18  C   UNL     1       1.740  12.990  19.061  0.00  0.00    +0.000 A 
ATOM     19  C   UNL     1       1.286  11.748  19.497  0.00  0.00    +0.000 A 
ATOM     20  C   UNL     1      -0.084  11.477  19.541  0.00  0.00    +0.000 A 
BRANCH  18  21
ATOM     21  O   UNL     1       3.058  13.355  19.007  0.00  0.00    +0.000 OA
ATOM     22  C   UNL     1       3.455  14.279  20.016  0.00  0.00    +0.000 C 
ENDBRANCH  18  21
ENDBRANCH  10  15
BRANCH   1  23
ATOM     23  S   UNL     1      -2.255  10.949  16.797  0.00  0.00    +0.000 S 
BRANCH  23  25
ATOM     24  C   UNL     1      -3.160  10.094  14.354  0.00  0.00    +0.000 C 
ATOM     25  C   UNL     1      -3.595  10.229  15.808  0.00  0.00    +0.000 C 
ENDBRANCH  23  25
ENDBRANCH   1  23
TORSDOF 4
ENDMDL
MODEL 7
REMARK VINA RESULT:      -6.1      4.024      9.465
REMARK  Name = 
REMARK  6 active torsions:
REMARK  status: ('A' for Active; 'I' for Inactive)
REMARK    1  A    between atoms: C_1  and  C_2
REMARK    2  A    between atoms: C_2  and  S_3
REMARK    3  A    between atoms: S_3  and  C_4
REMARK    4  A    between atoms: N_13  and  C_14
REMARK    5  A    between atoms: C_17  and  O_18
REMARK    6  A    between atoms: O_18  and  C_19
REMARK                            x       y       z     vdW  Elec       q    Type
REMARK                         _______ _______ _______ _____ _____    ______ ____
ROOT
ATOM      1  C   UNL     1      -0.053  12.338  19.532  0.00  0.00    +0.000 A 
ATOM      2  N   UNL     1       0.599  11.723  18.588  0.00  0.00    +0.000 NA
ATOM      3  C   UNL     1       0.988  10.463  18.881  0.00  0.00    +0.000 A 
ATOM      4  S   UNL     1       1.903   9.533  17.779  0.00  0.00    +0.000 S 
ATOM      5  C   UNL     1       2.001   8.228  18.868  0.00  0.00    +0.000 A 
ATOM      6  C   UNL     1       1.313   8.464  20.044  0.00  0.00    +0.000 A 
ATOM      7  C   UNL     1       0.760   9.785  20.055  0.00  0.00    +0.000 A 
ATOM      8  C   UNL     1       0.026  10.465  21.106  0.00  0.00    +0.000 A 
ATOM      9  O   UNL     1      -0.213   9.897  22.170  0.00  0.00    +0.000 OA
ATOM     10  N   UNL     1      -0.385  11.768  20.777  0.00  0.00    +0.000 N 
ATOM     11  C   UNL     1       1.239   7.443  21.141  0.00  0.00    +0.000 C 
ATOM     12  C   UNL     1       1.656   6.048  20.649  0.00  0.00    +0.000 C 
ATOM     13  C   UNL     1       2.935   6.112  19.802  0.00  0.00    +0.000 C 
ATOM     14  C   UNL     1       2.734   6.964  18.538  0.00  0.00    +0.000 C 
ENDROOT
BRANCH  10  15
ATOM     15  C   UNL     1      -1.162  12.457  21.757  0.00  0.00    +0.000 A 
ATOM     16  C   UNL     1      -2.549  12.265  21.819  0.00  0.00    +0.000 A 
ATOM     17  C   UNL     1      -3.300  12.901  22.809  0.00  0.00    +0.000 A 
ATOM     18  C   UNL     1      -2.679  13.736  23.736  0.00  0.00    +0.000 A 
ATOM     19  C   UNL     1      -1.315  13.996  23.625  0.00  0.00    +0.000 A 
ATOM     20  C   UNL     1      -0.557  13.358  22.639  0.00  0.00    +0.000 A 
BRANCH  18  21
ATOM     21  O   UNL     1      -3.495  14.293  24.684  0.00  0.00    +0.000 OA
ATOM     22  C   UNL     1      -2.821  15.117  25.630  0.00  0.00    +0.000 C 
ENDBRANCH  18  21
ENDBRANCH  10  15
BRANCH   1  23
ATOM     23  S   UNL     1      -0.415  14.051  19.261  0.00  0.00    +0.000 S 
BRANCH  23  25
ATOM     24  C   UNL     1       2.035  14.731  20.287  0.00  0.00    +0.000 C 
ATOM     25  C   UNL     1       1.241  14.740  18.987  0.00  0.00    +0.000 C 
ENDBRANCH  23  25
ENDBRANCH   1  23
TORSDOF 4
ENDMDL
MODEL 8
REMARK VINA RESULT:      -6.0      8.678     11.064
REMARK  Name = 
REMARK  6 active torsions:
REMARK  status: ('A' for Active; 'I' for Inactive)
REMARK    1  A    between atoms: C_1  and  C_2
REMARK    2  A    between atoms: C_2  and  S_3
REMARK    3  A    between atoms: S_3  and  C_4
REMARK    4  A    between atoms: N_13  and  C_14
REMARK    5  A    between atoms: C_17  and  O_18
REMARK    6  A    between atoms: O_18  and  C_19
REMARK                            x       y       z     vdW  Elec       q    Type
REMARK                         _______ _______ _______ _____ _____    ______ ____
ROOT
ATOM      1  C   UNL     1       7.144  14.638  21.763  0.00  0.00    +0.000 A 
ATOM      2  N   UNL     1       7.383  15.203  20.616  0.00  0.00    +0.000 NA
ATOM      3  C   UNL     1       8.355  14.625  19.878  0.00  0.00    +0.000 A 
ATOM      4  S   UNL     1       8.838  15.272  18.373  0.00  0.00    +0.000 S 
ATOM      5  C   UNL     1      10.036  14.079  18.175  0.00  0.00    +0.000 A 
ATOM      6  C   UNL     1      10.052  13.166  19.212  0.00  0.00    +0.000 A 
ATOM      7  C   UNL     1       9.094  13.517  20.217  0.00  0.00    +0.000 A 
ATOM      8  C   UNL     1       8.824  12.878  21.492  0.00  0.00    +0.000 A 
ATOM      9  O   UNL     1       9.450  11.878  21.835  0.00  0.00    +0.000 OA
ATOM     10  N   UNL     1       7.798  13.484  22.238  0.00  0.00    +0.000 N 
ATOM     11  C   UNL     1      11.009  12.009  19.239  0.00  0.00    +0.000 C 
ATOM     12  C   UNL     1      11.643  11.764  17.861  0.00  0.00    +0.000 C 
ATOM     13  C   UNL     1      12.109  13.077  17.217  0.00  0.00    +0.000 C 
ATOM     14  C   UNL     1      10.933  14.039  16.976  0.00  0.00    +0.000 C 
ENDROOT
BRANCH  10  15
ATOM     15  C   UNL     1       7.454  12.856  23.474  0.00  0.00    +0.000 A 
ATOM     16  C   UNL     1       8.195  13.129  24.632  0.00  0.00    +0.000 A 
ATOM     17  C   UNL     1       7.828  12.552  25.849  0.00  0.00    +0.000 A 
ATOM     18  C   UNL     1       6.729  11.697  25.920  0.00  0.00    +0.000 A 
ATOM     19  C   UNL     1       6.044  11.358  24.756  0.00  0.00    +0.000 A 
ATOM     20  C   UNL     1       6.404  11.935  23.536  0.00  0.00    +0.000 A 
BRANCH  18  21
ATOM     21  O   UNL     1       6.432  11.203  27.162  0.00  0.00    +0.000 OA
ATOM     22  C   UNL     1       5.164  10.560  27.252  0.00  0.00    +0.000 C 
ENDBRANCH  18  21
ENDBRANCH  10  15
BRANCH   1  23
ATOM     23  S   UNL     1       6.012  15.473  22.840  0.00  0.00    +0.000 S 
BRANCH  23  25
ATOM     24  C   UNL     1       3.964  14.170  21.564  0.00  0.00    +0.000 C 
ATOM     25  C   UNL     1       4.521  15.567  21.809  0.00  0.00    +0.000 C 
ENDBRANCH  23  25
ENDBRANCH   1  23
TORSDOF 4
ENDMDL
MODEL 9
REMARK VINA RESULT:      -6.0      5.808      7.507
REMARK  Name = 
REMARK  6 active torsions:
REMARK  status: ('A' for Active; 'I' for Inactive)
REMARK    1  A    between atoms: C_1  and  C_2
REMARK    2  A    between atoms: C_2  and  S_3
REMARK    3  A    between atoms: S_3  and  C_4
REMARK    4  A    between atoms: N_13  and  C_14
REMARK    5  A    between atoms: C_17  and  O_18
REMARK    6  A    between atoms: O_18  and  C_19
REMARK                            x       y       z     vdW  Elec       q    Type
REMARK                         _______ _______ _______ _____ _____    ______ ____
ROOT
ATOM      1  C   UNL     1       0.275  12.738  20.910  0.00  0.00    +0.000 A 
ATOM      2  N   UNL     1       1.000  13.487  21.689  0.00  0.00    +0.000 NA
ATOM      3  C   UNL     1       2.108  14.009  21.121  0.00  0.00    +0.000 A 
ATOM      4  S   UNL     1       3.204  14.966  22.014  0.00  0.00    +0.000 S 
ATOM      5  C   UNL     1       4.241  15.138  20.675  0.00  0.00    +0.000 A 
ATOM      6  C   UNL     1       3.752  14.518  19.541  0.00  0.00    +0.000 A 
ATOM      7  C   UNL     1       2.528  13.830  19.824  0.00  0.00    +0.000 A 
ATOM      8  C   UNL     1       1.717  13.003  18.950  0.00  0.00    +0.000 A 
ATOM      9  O   UNL     1       2.044  12.821  17.779  0.00  0.00    +0.000 OA
ATOM     10  N   UNL     1       0.559  12.482  19.554  0.00  0.00    +0.000 N 
ATOM     11  C   UNL     1       4.486  14.559  18.233  0.00  0.00    +0.000 C 
ATOM     12  C   UNL     1       5.569  15.648  18.222  0.00  0.00    +0.000 C 
ATOM     13  C   UNL     1       6.394  15.630  19.517  0.00  0.00    +0.000 C 
ATOM     14  C   UNL     1       5.520  15.916  20.749  0.00  0.00    +0.000 C 
ENDROOT
BRANCH  10  15
ATOM     15  C   UNL     1      -0.303  11.710  18.718  0.00  0.00    +0.000 A 
ATOM     16  C   UNL     1      -1.424  12.303  18.122  0.00  0.00    +0.000 A 
ATOM     17  C   UNL     1      -2.238  11.559  17.266  0.00  0.00    +0.000 A 
ATOM     18  C   UNL     1      -1.947  10.221  17.004  0.00  0.00    +0.000 A 
ATOM     19  C   UNL     1      -0.884   9.606  17.661  0.00  0.00    +0.000 A 
ATOM     20  C   UNL     1      -0.063  10.347  18.515  0.00  0.00    +0.000 A 
BRANCH  18  21
ATOM     21  O   UNL     1      -2.787   9.584  16.131  0.00  0.00    +0.000 OA
ATOM     22  C   UNL     1      -3.174  10.370  15.007  0.00  0.00    +0.000 C 
ENDBRANCH  18  21
ENDBRANCH  10  15
BRANCH   1  23
ATOM     23  S   UNL     1      -1.081  11.885  21.667  0.00  0.00    +0.000 S 
BRANCH  23  25
ATOM     24  C   UNL     1      -0.371   9.250  21.933  0.00  0.00    +0.000 C 
ATOM     25  C   UNL     1      -0.224  10.601  22.621  0.00  0.00    +0.000 C 
ENDBRANCH  23  25
ENDBRANCH   1  23
TORSDOF 4
ENDMDL
