MODEL 1
REMARK VINA RESULT:      -7.6      0.000      0.000
REMARK  Name = 
REMARK  8 active torsions:
REMARK  status: ('A' for Active; 'I' for Inactive)
REMARK    1  A    between atoms: C_1  and  C_2
REMARK    2  A    between atoms: C_2  and  C_3
REMARK    3  A    between atoms: C_3  and  C_4
REMARK    4  A    between atoms: C_4  and  N_5
REMARK    5  A    between atoms: C_15  and  C_16
REMARK    6  A    between atoms: C_19  and  O_20
REMARK    7  A    between atoms: C_21  and  O_22
REMARK    8  A    between atoms: O_22  and  C_23
REMARK                            x       y       z     vdW  Elec       q    Type
REMARK                         _______ _______ _______ _____ _____    ______ ____
ROOT
ATOM      1  N   UNL     1       5.917   4.666  17.658  0.00  0.00    +0.000 N 
ATOM      2  C   UNL     1       5.347   4.318  18.879  0.00  0.00    +0.000 C 
ATOM      3  O   UNL     1       5.963   4.332  19.945  0.00  0.00    +0.000 OA
ATOM      4  C   UNL     1       3.949   3.835  18.879  0.00  0.00    +0.000 A 
ATOM      5  C   UNL     1       3.359   3.363  20.062  0.00  0.00    +0.000 A 
ATOM      6  C   UNL     1       2.080   2.810  20.029  0.00  0.00    +0.000 A 
ATOM      7  C   UNL     1       1.395   2.732  18.819  0.00  0.00    +0.000 A 
ATOM      8  C   UNL     1       1.992   3.204  17.645  0.00  0.00    +0.000 A 
ATOM      9  C   UNL     1       3.273   3.768  17.663  0.00  0.00    +0.000 A 
ATOM     10  N   UNL     1       3.899   4.112  16.484  0.00  0.00    +0.000 N 
ATOM     11  C   UNL     1       5.077   4.955  16.496  0.00  0.00    +0.000 C 
ATOM     12  H   UNL     1       3.343   4.151  15.639  0.00  0.00    +0.000 HD
ENDROOT
BRANCH  11  13
ATOM     13  C   UNL     1       5.774   4.697  15.165  0.00  0.00    +0.000 A 
ATOM     14  C   UNL     1       6.956   5.381  14.845  0.00  0.00    +0.000 A 
ATOM     15  C   UNL     1       7.576   5.192  13.617  0.00  0.00    +0.000 A 
ATOM     16  C   UNL     1       7.022   4.316  12.679  0.00  0.00    +0.000 A 
ATOM     17  C   UNL     1       5.857   3.600  12.974  0.00  0.00    +0.000 A 
ATOM     18  C   UNL     1       5.254   3.782  14.233  0.00  0.00    +0.000 A 
BRANCH  16  19
ATOM     19  O   UNL     1       7.655   4.188  11.473  0.00  0.00    +0.000 OA
ATOM     20  H   UNL     1       7.270   3.434  10.995  0.00  0.00    +0.000 HD
ENDBRANCH  16  19
BRANCH  17  21
ATOM     21  O   UNL     1       5.172   2.717  12.184  0.00  0.00    +0.000 OA
ATOM     22  C   UNL     1       4.182   3.236  11.307  0.00  0.00    +0.000 C 
ENDBRANCH  17  21
ENDBRANCH  11  13
BRANCH   1  23
ATOM     23  C   UNL     1       7.342   5.016  17.644  0.00  0.00    +0.000 C 
BRANCH  23  24
ATOM     24  C   UNL     1       7.705   6.303  18.389  0.00  0.00    +0.000 C 
BRANCH  24  26
ATOM     25  C   UNL     1       8.236   8.741  18.021  0.00  0.00    +0.000 C 
ATOM     26  C   UNL     1       7.493   7.526  17.493  0.00  0.00    +0.000 C 
ENDBRANCH  24  26
ENDBRANCH  23  24
ENDBRANCH   1  23
TORSDOF 6
ENDMDL
MODEL 2
REMARK VINA RESULT:      -7.6      2.344      6.276
REMARK  Name = 
REMARK  8 active torsions:
REMARK  status: ('A' for Active; 'I' for Inactive)
REMARK    1  A    between atoms: C_1  and  C_2
REMARK    2  A    between atoms: C_2  and  C_3
REMARK    3  A    between atoms: C_3  and  C_4
REMARK    4  A    between atoms: C_4  and  N_5
REMARK    5  A    between atoms: C_15  and  C_16
REMARK    6  A    between atoms: C_19  and  O_20
REMARK    7  A    between atoms: C_21  and  O_22
REMARK    8  A    between atoms: O_22  and  C_23
REMARK                            x       y       z     vdW  Elec       q    Type
REMARK                         _______ _______ _______ _____ _____    ______ ____
ROOT
ATOM      1  N   UNL     1       5.974   4.974  17.115  0.00  0.00    +0.000 N 
ATOM      2  C   UNL     1       6.863   5.520  16.193  0.00  0.00    +0.000 C 
ATOM      3  O   UNL     1       7.580   6.491  16.433  0.00  0.00    +0.000 OA
ATOM      4  C   UNL     1       6.890   4.945  14.831  0.00  0.00    +0.000 A 
ATOM      5  C   UNL     1       7.681   5.525  13.828  0.00  0.00    +0.000 A 
ATOM      6  C   UNL     1       7.616   5.042  12.522  0.00  0.00    +0.000 A 
ATOM      7  C   UNL     1       6.763   3.982  12.224  0.00  0.00    +0.000 A 
ATOM      8  C   UNL     1       5.977   3.410  13.230  0.00  0.00    +0.000 A 
ATOM      9  C   UNL     1       6.036   3.880  14.547  0.00  0.00    +0.000 A 
ATOM     10  N   UNL     1       5.167   3.395  15.499  0.00  0.00    +0.000 N 
ATOM     11  C   UNL     1       5.404   3.644  16.906  0.00  0.00    +0.000 C 
ATOM     12  H   UNL     1       4.642   2.556  15.287  0.00  0.00    +0.000 HD
ENDROOT
BRANCH  11  13
ATOM     13  C   UNL     1       4.054   3.450  17.586  0.00  0.00    +0.000 A 
ATOM     14  C   UNL     1       2.873   3.817  16.923  0.00  0.00    +0.000 A 
ATOM     15  C   UNL     1       1.639   3.690  17.549  0.00  0.00    +0.000 A 
ATOM     16  C   UNL     1       1.562   3.198  18.855  0.00  0.00    +0.000 A 
ATOM     17  C   UNL     1       2.717   2.800  19.536  0.00  0.00    +0.000 A 
ATOM     18  C   UNL     1       3.958   2.910  18.880  0.00  0.00    +0.000 A 
BRANCH  16  19
ATOM     19  O   UNL     1       0.325   3.121  19.436  0.00  0.00    +0.000 OA
ATOM     20  H   UNL     1      -0.318   3.577  18.867  0.00  0.00    +0.000 HD
ENDBRANCH  16  19
BRANCH  17  21
ATOM     21  O   UNL     1       2.834   2.310  20.808  0.00  0.00    +0.000 OA
ATOM     22  C   UNL     1       2.316   3.094  21.874  0.00  0.00    +0.000 C 
ENDBRANCH  17  21
ENDBRANCH  11  13
BRANCH   1  23
ATOM     23  C   UNL     1       5.856   5.633  18.421  0.00  0.00    +0.000 C 
BRANCH  23  24
ATOM     24  C   UNL     1       4.525   6.343  18.676  0.00  0.00    +0.000 C 
BRANCH  24  26
ATOM     25  C   UNL     1       2.799   7.900  17.698  0.00  0.00    +0.000 C 
ATOM     26  C   UNL     1       4.119   7.187  17.465  0.00  0.00    +0.000 C 
ENDBRANCH  24  26
ENDBRANCH  23  24
ENDBRANCH   1  23
TORSDOF 6
ENDMDL
MODEL 3
REMARK VINA RESULT:      -7.5      2.910      4.152
REMARK  Name = 
REMARK  8 active torsions:
REMARK  status: ('A' for Active; 'I' for Inactive)
REMARK    1  A    between atoms: C_1  and  C_2
REMARK    2  A    between atoms: C_2  and  C_3
REMARK    3  A    between atoms: C_3  and  C_4
REMARK    4  A    between atoms: C_4  and  N_5
REMARK    5  A    between atoms: C_15  and  C_16
REMARK    6  A    between atoms: C_19  and  O_20
REMARK    7  A    between atoms: C_21  and  O_22
REMARK    8  A    between atoms: O_22  and  C_23
REMARK                            x       y       z     vdW  Elec       q    Type
REMARK                         _______ _______ _______ _____ _____    ______ ____
ROOT
ATOM      1  N   UNL     1       3.221   6.097  18.364  0.00  0.00    +0.000 N 
ATOM      2  C   UNL     1       2.550   5.935  19.573  0.00  0.00    +0.000 C 
ATOM      3  O   UNL     1       2.036   6.866  20.194  0.00  0.00    +0.000 OA
ATOM      4  C   UNL     1       2.519   4.585  20.173  0.00  0.00    +0.000 A 
ATOM      5  C   UNL     1       1.956   4.382  21.443  0.00  0.00    +0.000 A 
ATOM      6  C   UNL     1       2.030   3.127  22.045  0.00  0.00    +0.000 A 
ATOM      7  C   UNL     1       2.662   2.080  21.378  0.00  0.00    +0.000 A 
ATOM      8  C   UNL     1       3.221   2.292  20.113  0.00  0.00    +0.000 A 
ATOM      9  C   UNL     1       3.149   3.545  19.493  0.00  0.00    +0.000 A 
ATOM     10  N   UNL     1       3.812   3.773  18.307  0.00  0.00    +0.000 N 
ATOM     11  C   UNL     1       3.513   4.946  17.511  0.00  0.00    +0.000 C 
ATOM     12  H   UNL     1       4.164   2.975  17.792  0.00  0.00    +0.000 HD
ENDROOT
BRANCH  11  13
ATOM     13  C   UNL     1       4.729   5.149  16.615  0.00  0.00    +0.000 A 
ATOM     14  C   UNL     1       4.834   4.450  15.402  0.00  0.00    +0.000 A 
ATOM     15  C   UNL     1       5.958   4.589  14.598  0.00  0.00    +0.000 A 
ATOM     16  C   UNL     1       7.005   5.426  14.994  0.00  0.00    +0.000 A 
ATOM     17  C   UNL     1       6.923   6.155  16.184  0.00  0.00    +0.000 A 
ATOM     18  C   UNL     1       5.766   6.025  16.977  0.00  0.00    +0.000 A 
BRANCH  16  19
ATOM     19  O   UNL     1       8.102   5.505  14.180  0.00  0.00    +0.000 OA
ATOM     20  H   UNL     1       8.480   6.398  14.247  0.00  0.00    +0.000 HD
ENDBRANCH  16  19
BRANCH  17  21
ATOM     21  O   UNL     1       7.844   7.006  16.732  0.00  0.00    +0.000 OA
ATOM     22  C   UNL     1       7.867   7.144  18.146  0.00  0.00    +0.000 C 
ENDBRANCH  17  21
ENDBRANCH  11  13
BRANCH   1  23
ATOM     23  C   UNL     1       3.364   7.461  17.840  0.00  0.00    +0.000 C 
BRANCH  23  24
ATOM     24  C   UNL     1       2.054   8.159  17.470  0.00  0.00    +0.000 C 
BRANCH  24  26
ATOM     25  C   UNL     1       0.838   9.958  18.752  0.00  0.00    +0.000 C 
ATOM     26  C   UNL     1       2.068   9.619  17.929  0.00  0.00    +0.000 C 
ENDBRANCH  24  26
ENDBRANCH  23  24
ENDBRANCH   1  23
TORSDOF 6
ENDMDL
MODEL 4
REMARK VINA RESULT:      -7.5      2.128      6.160
REMARK  Name = 
REMARK  8 active torsions:
REMARK  status: ('A' for Active; 'I' for Inactive)
REMARK    1  A    between atoms: C_1  and  C_2
REMARK    2  A    between atoms: C_2  and  C_3
REMARK    3  A    between atoms: C_3  and  C_4
REMARK    4  A    between atoms: C_4  and  N_5
REMARK    5  A    between atoms: C_15  and  C_16
REMARK    6  A    between atoms: C_19  and  O_20
REMARK    7  A    between atoms: C_21  and  O_22
REMARK    8  A    between atoms: O_22  and  C_23
REMARK                            x       y       z     vdW  Elec       q    Type
REMARK                         _______ _______ _______ _____ _____    ______ ____
ROOT
ATOM      1  N   UNL     1       5.978   5.120  16.940  0.00  0.00    +0.000 N 
ATOM      2  C   UNL     1       6.846   5.563  15.946  0.00  0.00    +0.000 C 
ATOM      3  O   UNL     1       7.589   6.536  16.077  0.00  0.00    +0.000 OA
ATOM      4  C   UNL     1       6.815   4.871  14.639  0.00  0.00    +0.000 A 
ATOM      5  C   UNL     1       7.583   5.344  13.564  0.00  0.00    +0.000 A 
ATOM      6  C   UNL     1       7.464   4.750  12.309  0.00  0.00    +0.000 A 
ATOM      7  C   UNL     1       6.581   3.688  12.132  0.00  0.00    +0.000 A 
ATOM      8  C   UNL     1       5.819   3.223  13.209  0.00  0.00    +0.000 A 
ATOM      9  C   UNL     1       5.932   3.805  14.477  0.00  0.00    +0.000 A 
ATOM     10  N   UNL     1       5.086   3.424  15.496  0.00  0.00    +0.000 N 
ATOM     11  C   UNL     1       5.376   3.789  16.867  0.00  0.00    +0.000 C 
ATOM     12  H   UNL     1       4.538   2.581  15.375  0.00  0.00    +0.000 HD
ENDROOT
BRANCH  11  13
ATOM     13  C   UNL     1       4.046   3.685  17.605  0.00  0.00    +0.000 A 
ATOM     14  C   UNL     1       2.889   4.256  17.053  0.00  0.00    +0.000 A 
ATOM     15  C   UNL     1       1.680   4.210  17.736  0.00  0.00    +0.000 A 
ATOM     16  C   UNL     1       1.605   3.596  18.989  0.00  0.00    +0.000 A 
ATOM     17  C   UNL     1       2.733   2.996  19.558  0.00  0.00    +0.000 A 
ATOM     18  C   UNL     1       3.946   3.027  18.842  0.00  0.00    +0.000 A 
BRANCH  16  19
ATOM     19  O   UNL     1       0.398   3.605  19.633  0.00  0.00    +0.000 OA
ATOM     20  H   UNL     1       0.552   3.706  20.587  0.00  0.00    +0.000 HD
ENDBRANCH  16  19
BRANCH  17  21
ATOM     21  O   UNL     1       2.850   2.365  20.766  0.00  0.00    +0.000 OA
ATOM     22  C   UNL     1       2.289   3.001  21.906  0.00  0.00    +0.000 C 
ENDBRANCH  17  21
ENDBRANCH  11  13
BRANCH   1  23
ATOM     23  C   UNL     1       5.917   5.892  18.186  0.00  0.00    +0.000 C 
BRANCH  23  24
ATOM     24  C   UNL     1       6.691   5.294  19.364  0.00  0.00    +0.000 C 
BRANCH  24  26
ATOM     25  C   UNL     1       8.255   7.211  18.874  0.00  0.00    +0.000 C 
ATOM     26  C   UNL     1       8.144   5.776  19.359  0.00  0.00    +0.000 C 
ENDBRANCH  24  26
ENDBRANCH  23  24
ENDBRANCH   1  23
TORSDOF 6
ENDMDL
MODEL 5
REMARK VINA RESULT:      -7.4      4.318      7.747
REMARK  Name = 
REMARK  8 active torsions:
REMARK  status: ('A' for Active; 'I' for Inactive)
REMARK    1  A    between atoms: C_1  and  C_2
REMARK    2  A    between atoms: C_2  and  C_3
REMARK    3  A    between atoms: C_3  and  C_4
REMARK    4  A    between atoms: C_4  and  N_5
REMARK    5  A    between atoms: C_15  and  C_16
REMARK    6  A    between atoms: C_19  and  O_20
REMARK    7  A    between atoms: C_21  and  O_22
REMARK    8  A    between atoms: O_22  and  C_23
REMARK                            x       y       z     vdW  Elec       q    Type
REMARK                         _______ _______ _______ _____ _____    ______ ____
ROOT
ATOM      1  N   UNL     1       3.079   5.579  19.341  0.00  0.00    +0.000 N 
ATOM      2  C   UNL     1       4.165   4.724  19.178  0.00  0.00    +0.000 C 
ATOM      3  O   UNL     1       4.332   3.703  19.844  0.00  0.00    +0.000 OA
ATOM      4  C   UNL     1       5.209   5.108  18.203  0.00  0.00    +0.000 A 
ATOM      5  C   UNL     1       6.381   4.346  18.078  0.00  0.00    +0.000 A 
ATOM      6  C   UNL     1       7.405   4.776  17.235  0.00  0.00    +0.000 A 
ATOM      7  C   UNL     1       7.255   5.963  16.522  0.00  0.00    +0.000 A 
ATOM      8  C   UNL     1       6.084   6.717  16.654  0.00  0.00    +0.000 A 
ATOM      9  C   UNL     1       5.044   6.294  17.491  0.00  0.00    +0.000 A 
ATOM     10  N   UNL     1       3.953   7.106  17.710  0.00  0.00    +0.000 N 
ATOM     11  C   UNL     1       2.752   6.575  18.322  0.00  0.00    +0.000 C 
ATOM     12  H   UNL     1       3.816   7.902  17.099  0.00  0.00    +0.000 HD
ENDROOT
BRANCH  11  13
ATOM     13  C   UNL     1       2.009   7.786  18.874  0.00  0.00    +0.000 A 
ATOM     14  C   UNL     1       1.540   8.782  18.003  0.00  0.00    +0.000 A 
ATOM     15  C   UNL     1       0.903   9.914  18.496  0.00  0.00    +0.000 A 
ATOM     16  C   UNL     1       0.726  10.075  19.873  0.00  0.00    +0.000 A 
ATOM     17  C   UNL     1       1.159   9.091  20.767  0.00  0.00    +0.000 A 
ATOM     18  C   UNL     1       1.780   7.937  20.252  0.00  0.00    +0.000 A 
BRANCH  16  19
ATOM     19  O   UNL     1       0.119  11.222  20.308  0.00  0.00    +0.000 OA
ATOM     20  H   UNL     1      -0.034  11.152  21.265  0.00  0.00    +0.000 HD
ENDBRANCH  16  19
BRANCH  17  21
ATOM     21  O   UNL     1       1.081   9.083  22.133  0.00  0.00    +0.000 OA
ATOM     22  C   UNL     1      -0.206   9.174  22.728  0.00  0.00    +0.000 C 
ENDBRANCH  17  21
ENDBRANCH  11  13
BRANCH   1  23
ATOM     23  C   UNL     1       2.115   5.264  20.402  0.00  0.00    +0.000 C 
BRANCH  23  24
ATOM     24  C   UNL     1       0.935   4.390  19.973  0.00  0.00    +0.000 C 
BRANCH  24  26
ATOM     25  C   UNL     1       1.815   2.935  21.835  0.00  0.00    +0.000 C 
ATOM     26  C   UNL     1       1.099   2.960  20.496  0.00  0.00    +0.000 C 
ENDBRANCH  24  26
ENDBRANCH  23  24
ENDBRANCH   1  23
TORSDOF 6
ENDMDL
MODEL 6
REMARK VINA RESULT:      -7.3      4.478      7.691
REMARK  Name = 
REMARK  8 active torsions:
REMARK  status: ('A' for Active; 'I' for Inactive)
REMARK    1  A    between atoms: C_1  and  C_2
REMARK    2  A    between atoms: C_2  and  C_3
REMARK    3  A    between atoms: C_3  and  C_4
REMARK    4  A    between atoms: C_4  and  N_5
REMARK    5  A    between atoms: C_15  and  C_16
REMARK    6  A    between atoms: C_19  and  O_20
REMARK    7  A    between atoms: C_21  and  O_22
REMARK    8  A    between atoms: O_22  and  C_23
REMARK                            x       y       z     vdW  Elec       q    Type
REMARK                         _______ _______ _______ _____ _____    ______ ____
ROOT
ATOM      1  N   UNL     1       3.054   5.465  19.526  0.00  0.00    +0.000 N 
ATOM      2  C   UNL     1       4.126   4.629  19.227  0.00  0.00    +0.000 C 
ATOM      3  O   UNL     1       4.314   3.543  19.775  0.00  0.00    +0.000 OA
ATOM      4  C   UNL     1       5.129   5.109  18.252  0.00  0.00    +0.000 A 
ATOM      5  C   UNL     1       6.288   4.361  17.996  0.00  0.00    +0.000 A 
ATOM      6  C   UNL     1       7.277   4.874  17.158  0.00  0.00    +0.000 A 
ATOM      7  C   UNL     1       7.104   6.129  16.579  0.00  0.00    +0.000 A 
ATOM      8  C   UNL     1       5.945   6.868  16.841  0.00  0.00    +0.000 A 
ATOM      9  C   UNL     1       4.941   6.363  17.675  0.00  0.00    +0.000 A 
ATOM     10  N   UNL     1       3.866   7.151  18.025  0.00  0.00    +0.000 N 
ATOM     11  C   UNL     1       2.689   6.562  18.631  0.00  0.00    +0.000 C 
ATOM     12  H   UNL     1       3.708   8.006  17.507  0.00  0.00    +0.000 HD
ENDROOT
BRANCH  11  13
ATOM     13  C   UNL     1       1.979   7.711  19.339  0.00  0.00    +0.000 A 
ATOM     14  C   UNL     1       1.871   7.716  20.738  0.00  0.00    +0.000 A 
ATOM     15  C   UNL     1       1.185   8.732  21.393  0.00  0.00    +0.000 A 
ATOM     16  C   UNL     1       0.589   9.761  20.660  0.00  0.00    +0.000 A 
ATOM     17  C   UNL     1       0.698   9.800  19.266  0.00  0.00    +0.000 A 
ATOM     18  C   UNL     1       1.418   8.778  18.617  0.00  0.00    +0.000 A 
BRANCH  16  19
ATOM     19  O   UNL     1      -0.100  10.721  21.351  0.00  0.00    +0.000 OA
ATOM     20  H   UNL     1      -0.320  10.375  22.232  0.00  0.00    +0.000 HD
ENDBRANCH  16  19
BRANCH  17  21
ATOM     21  O   UNL     1       0.176  10.714  18.392  0.00  0.00    +0.000 OA
ATOM     22  C   UNL     1      -1.193  10.587  18.033  0.00  0.00    +0.000 C 
ENDBRANCH  17  21
ENDBRANCH  11  13
BRANCH   1  23
ATOM     23  C   UNL     1       2.136   5.043  20.591  0.00  0.00    +0.000 C 
BRANCH  23  24
ATOM     24  C   UNL     1       0.909   4.257  20.121  0.00  0.00    +0.000 C 
BRANCH  24  26
ATOM     25  C   UNL     1       1.668   2.549  21.814  0.00  0.00    +0.000 C 
ATOM     26  C   UNL     1       1.065   2.767  20.438  0.00  0.00    +0.000 C 
ENDBRANCH  24  26
ENDBRANCH  23  24
ENDBRANCH   1  23
TORSDOF 6
ENDMDL
MODEL 7
REMARK VINA RESULT:      -7.2      4.340      7.524
REMARK  Name = 
REMARK  8 active torsions:
REMARK  status: ('A' for Active; 'I' for Inactive)
REMARK    1  A    between atoms: C_1  and  C_2
REMARK    2  A    between atoms: C_2  and  C_3
REMARK    3  A    between atoms: C_3  and  C_4
REMARK    4  A    between atoms: C_4  and  N_5
REMARK    5  A    between atoms: C_15  and  C_16
REMARK    6  A    between atoms: C_19  and  O_20
REMARK    7  A    between atoms: C_21  and  O_22
REMARK    8  A    between atoms: O_22  and  C_23
REMARK                            x       y       z     vdW  Elec       q    Type
REMARK                         _______ _______ _______ _____ _____    ______ ____
ROOT
ATOM      1  N   UNL     1       2.712   5.513  17.765  0.00  0.00    +0.000 N 
ATOM      2  C   UNL     1       3.681   4.599  17.362  0.00  0.00    +0.000 C 
ATOM      3  O   UNL     1       3.460   3.398  17.209  0.00  0.00    +0.000 OA
ATOM      4  C   UNL     1       5.064   5.089  17.181  0.00  0.00    +0.000 A 
ATOM      5  C   UNL     1       6.104   4.195  16.887  0.00  0.00    +0.000 A 
ATOM      6  C   UNL     1       7.420   4.651  16.826  0.00  0.00    +0.000 A 
ATOM      7  C   UNL     1       7.691   5.998  17.057  0.00  0.00    +0.000 A 
ATOM      8  C   UNL     1       6.648   6.883  17.351  0.00  0.00    +0.000 A 
ATOM      9  C   UNL     1       5.321   6.440  17.409  0.00  0.00    +0.000 A 
ATOM     10  N   UNL     1       4.321   7.292  17.823  0.00  0.00    +0.000 N 
ATOM     11  C   UNL     1       2.929   6.951  17.609  0.00  0.00    +0.000 C 
ATOM     12  H   UNL     1       4.524   8.282  17.875  0.00  0.00    +0.000 HD
ENDROOT
BRANCH  11  13
ATOM     13  C   UNL     1       2.146   7.794  18.609  0.00  0.00    +0.000 A 
ATOM     14  C   UNL     1       2.134   7.445  19.968  0.00  0.00    +0.000 A 
ATOM     15  C   UNL     1       1.387   8.176  20.882  0.00  0.00    +0.000 A 
ATOM     16  C   UNL     1       0.631   9.271  20.455  0.00  0.00    +0.000 A 
ATOM     17  C   UNL     1       0.639   9.661  19.112  0.00  0.00    +0.000 A 
ATOM     18  C   UNL     1       1.422   8.927  18.200  0.00  0.00    +0.000 A 
BRANCH  16  19
ATOM     19  O   UNL     1      -0.111   9.939  21.390  0.00  0.00    +0.000 OA
ATOM     20  H   UNL     1       0.302   9.819  22.262  0.00  0.00    +0.000 HD
ENDBRANCH  16  19
BRANCH  17  21
ATOM     21  O   UNL     1      -0.040  10.689  18.515  0.00  0.00    +0.000 OA
ATOM     22  C   UNL     1      -1.339  10.421  18.005  0.00  0.00    +0.000 C 
ENDBRANCH  17  21
ENDBRANCH  11  13
BRANCH   1  23
ATOM     23  C   UNL     1       1.372   4.997  18.072  0.00  0.00    +0.000 C 
BRANCH  23  24
ATOM     24  C   UNL     1       1.339   3.761  18.974  0.00  0.00    +0.000 C 
BRANCH  24  26
ATOM     25  C   UNL     1       2.134   3.892  21.364  0.00  0.00    +0.000 C 
ATOM     26  C   UNL     1       0.980   4.148  20.411  0.00  0.00    +0.000 C 
ENDBRANCH  24  26
ENDBRANCH  23  24
ENDBRANCH   1  23
TORSDOF 6
ENDMDL
MODEL 8
REMARK VINA RESULT:      -7.0      1.895      6.050
REMARK  Name = 
REMARK  8 active torsions:
REMARK  status: ('A' for Active; 'I' for Inactive)
REMARK    1  A    between atoms: C_1  and  C_2
REMARK    2  A    between atoms: C_2  and  C_3
REMARK    3  A    between atoms: C_3  and  C_4
REMARK    4  A    between atoms: C_4  and  N_5
REMARK    5  A    between atoms: C_15  and  C_16
REMARK    6  A    between atoms: C_19  and  O_20
REMARK    7  A    between atoms: C_21  and  O_22
REMARK    8  A    between atoms: O_22  and  C_23
REMARK                            x       y       z     vdW  Elec       q    Type
REMARK                         _______ _______ _______ _____ _____    ______ ____
ROOT
ATOM      1  N   UNL     1       6.511   5.102  16.525  0.00  0.00    +0.000 N 
ATOM      2  C   UNL     1       7.230   5.143  15.334  0.00  0.00    +0.000 C 
ATOM      3  O   UNL     1       8.291   5.753  15.202  0.00  0.00    +0.000 OA
ATOM      4  C   UNL     1       6.646   4.480  14.148  0.00  0.00    +0.000 A 
ATOM      5  C   UNL     1       7.268   4.585  12.895  0.00  0.00    +0.000 A 
ATOM      6  C   UNL     1       6.653   4.048  11.765  0.00  0.00    +0.000 A 
ATOM      7  C   UNL     1       5.422   3.408  11.891  0.00  0.00    +0.000 A 
ATOM      8  C   UNL     1       4.809   3.310  13.144  0.00  0.00    +0.000 A 
ATOM      9  C   UNL     1       5.417   3.838  14.289  0.00  0.00    +0.000 A 
ATOM     10  N   UNL     1       4.747   3.847  15.492  0.00  0.00    +0.000 N 
ATOM     11  C   UNL     1       5.456   4.110  16.728  0.00  0.00    +0.000 C 
ATOM     12  H   UNL     1       3.912   3.281  15.581  0.00  0.00    +0.000 HD
ENDROOT
BRANCH  11  13
ATOM     13  C   UNL     1       4.389   4.554  17.722  0.00  0.00    +0.000 A 
ATOM     14  C   UNL     1       3.701   5.761  17.524  0.00  0.00    +0.000 A 
ATOM     15  C   UNL     1       2.761   6.201  18.446  0.00  0.00    +0.000 A 
ATOM     16  C   UNL     1       2.492   5.445  19.590  0.00  0.00    +0.000 A 
ATOM     17  C   UNL     1       3.142   4.225  19.807  0.00  0.00    +0.000 A 
ATOM     18  C   UNL     1       4.074   3.779  18.850  0.00  0.00    +0.000 A 
BRANCH  16  19
ATOM     19  O   UNL     1       1.579   5.938  20.482  0.00  0.00    +0.000 OA
ATOM     20  H   UNL     1       0.922   6.467  19.998  0.00  0.00    +0.000 HD
ENDBRANCH  16  19
BRANCH  17  21
ATOM     21  O   UNL     1       3.015   3.364  20.863  0.00  0.00    +0.000 OA
ATOM     22  C   UNL     1       1.743   2.775  21.093  0.00  0.00    +0.000 C 
ENDBRANCH  17  21
ENDBRANCH  11  13
BRANCH   1  23
ATOM     23  C   UNL     1       7.028   5.873  17.662  0.00  0.00    +0.000 C 
BRANCH  23  24
ATOM     24  C   UNL     1       7.003   7.394  17.485  0.00  0.00    +0.000 C 
BRANCH  24  26
ATOM     25  C   UNL     1       8.250   9.538  17.938  0.00  0.00    +0.000 C 
ATOM     26  C   UNL     1       8.197   8.042  18.191  0.00  0.00    +0.000 C 
ENDBRANCH  24  26
ENDBRANCH  23  24
ENDBRANCH   1  23
TORSDOF 6
ENDMDL
MODEL 9
REMARK VINA RESULT:      -7.0      0.775      1.806
REMARK  Name = 
REMARK  8 active torsions:
REMARK  status: ('A' for Active; 'I' for Inactive)
REMARK    1  A    between atoms: C_1  and  C_2
REMARK    2  A    between atoms: C_2  and  C_3
REMARK    3  A    between atoms: C_3  and  C_4
REMARK    4  A    between atoms: C_4  and  N_5
REMARK    5  A    between atoms: C_15  and  C_16
REMARK    6  A    between atoms: C_19  and  O_20
REMARK    7  A    between atoms: C_21  and  O_22
REMARK    8  A    between atoms: O_22  and  C_23
REMARK                            x       y       z     vdW  Elec       q    Type
REMARK                         _______ _______ _______ _____ _____    ______ ____
ROOT
ATOM      1  N   UNL     1       5.741   4.671  17.810  0.00  0.00    +0.000 N 
ATOM      2  C   UNL     1       5.192   4.380  19.056  0.00  0.00    +0.000 C 
ATOM      3  O   UNL     1       5.847   4.352  20.097  0.00  0.00    +0.000 OA
ATOM      4  C   UNL     1       3.760   4.014  19.114  0.00  0.00    +0.000 A 
ATOM      5  C   UNL     1       3.180   3.600  20.323  0.00  0.00    +0.000 A 
ATOM      6  C   UNL     1       1.859   3.154  20.344  0.00  0.00    +0.000 A 
ATOM      7  C   UNL     1       1.125   3.123  19.161  0.00  0.00    +0.000 A 
ATOM      8  C   UNL     1       1.712   3.535  17.961  0.00  0.00    +0.000 A 
ATOM      9  C   UNL     1       3.035   3.992  17.924  0.00  0.00    +0.000 A 
ATOM     10  N   UNL     1       3.641   4.275  16.720  0.00  0.00    +0.000 N 
ATOM     11  C   UNL     1       4.883   5.019  16.678  0.00  0.00    +0.000 C 
ATOM     12  H   UNL     1       3.058   4.353  15.896  0.00  0.00    +0.000 HD
ENDROOT
BRANCH  11  13
ATOM     13  C   UNL     1       5.505   4.695  15.325  0.00  0.00    +0.000 A 
ATOM     14  C   UNL     1       4.887   3.770  14.469  0.00  0.00    +0.000 A 
ATOM     15  C   UNL     1       5.467   3.430  13.254  0.00  0.00    +0.000 A 
ATOM     16  C   UNL     1       6.682   4.004  12.871  0.00  0.00    +0.000 A 
ATOM     17  C   UNL     1       7.313   4.947  13.689  0.00  0.00    +0.000 A 
ATOM     18  C   UNL     1       6.701   5.302  14.906  0.00  0.00    +0.000 A 
BRANCH  16  19
ATOM     19  O   UNL     1       7.225   3.613  11.678  0.00  0.00    +0.000 OA
ATOM     20  H   UNL     1       6.661   2.925  11.286  0.00  0.00    +0.000 HD
ENDBRANCH  16  19
BRANCH  17  21
ATOM     21  O   UNL     1       8.499   5.599  13.485  0.00  0.00    +0.000 OA
ATOM     22  C   UNL     1       8.670   6.305  12.263  0.00  0.00    +0.000 C 
ENDBRANCH  17  21
ENDBRANCH  11  13
BRANCH   1  23
ATOM     23  C   UNL     1       7.188   4.903  17.740  0.00  0.00    +0.000 C 
BRANCH  23  24
ATOM     24  C   UNL     1       7.677   6.187  18.414  0.00  0.00    +0.000 C 
BRANCH  24  26
ATOM     25  C   UNL     1       8.218   8.617  18.006  0.00  0.00    +0.000 C 
ATOM     26  C   UNL     1       7.480   7.393  17.491  0.00  0.00    +0.000 C 
ENDBRANCH  24  26
ENDBRANCH  23  24
ENDBRANCH   1  23
TORSDOF 6
ENDMDL
