MODEL 1
REMARK VINA RESULT:      -8.0      0.000      0.000
REMARK  Name = 
REMARK  3 active torsions:
REMARK  status: ('A' for Active; 'I' for Inactive)
REMARK    1  A    between atoms: C_2  and  C_3
REMARK    2  A    between atoms: C_3  and  C_4
REMARK    3  A    between atoms: C_17  and  C_18
REMARK                            x       y       z     vdW  Elec       q    Type
REMARK                         _______ _______ _______ _____ _____    ______ ____
ROOT
ATOM      1  O   UNL     1       2.822   8.675  17.426  0.00  0.00    +0.000 OA
ATOM      2  C   UNL     1       2.886   7.641  18.085  0.00  0.00    +0.000 C 
ATOM      3  N   UNL     1       2.298   7.414  19.313  0.00  0.00    +0.000 N 
ATOM      4  C   UNL     1       1.492   8.295  19.997  0.00  0.00    +0.000 A 
ATOM      5  N   UNL     1       1.228   8.131  21.270  0.00  0.00    +0.000 NA
ATOM      6  C   UNL     1       0.425   9.173  21.714  0.00  0.00    +0.000 A 
ATOM      7  C   UNL     1      -0.007   9.388  23.038  0.00  0.00    +0.000 A 
ATOM      8  C   UNL     1      -0.815  10.494  23.343  0.00  0.00    +0.000 A 
ATOM      9  C   UNL     1      -1.217  11.390  22.344  0.00  0.00    +0.000 A 
ATOM     10  C   UNL     1      -0.798  11.181  21.017  0.00  0.00    +0.000 A 
ATOM     11  C   UNL     1       0.029  10.080  20.732  0.00  0.00    +0.000 A 
ATOM     12  S   UNL     1       0.720   9.604  19.232  0.00  0.00    +0.000 S 
ATOM     13  H   UNL     1       2.572   6.612  19.865  0.00  0.00    +0.000 HD
ENDROOT
BRANCH   9  14
ATOM     14  C   UNL     1      -2.090  12.581  22.665  0.00  0.00    +0.000 C 
ATOM     15  F   UNL     1      -3.168  12.274  23.439  0.00  0.00    +0.000 F 
ATOM     16  F   UNL     1      -1.413  13.552  23.338  0.00  0.00    +0.000 F 
ATOM     17  F   UNL     1      -2.588  13.177  21.548  0.00  0.00    +0.000 F 
ENDBRANCH   9  14
BRANCH   2  18
ATOM     18  C   UNL     1       3.692   6.455  17.570  0.00  0.00    +0.000 C 
BRANCH  18  19
ATOM     19  C   UNL     1       3.187   5.125  18.078  0.00  0.00    +0.000 A 
ATOM     20  C   UNL     1       1.907   4.664  17.727  0.00  0.00    +0.000 A 
ATOM     21  C   UNL     1       1.445   3.426  18.179  0.00  0.00    +0.000 A 
ATOM     22  C   UNL     1       2.259   2.628  18.981  0.00  0.00    +0.000 A 
ATOM     23  C   UNL     1       3.536   3.068  19.320  0.00  0.00    +0.000 A 
ATOM     24 CL   UNL     1       4.549   2.078  20.296  0.00  0.00    +0.000 Cl
ATOM     25  C   UNL     1       4.003   4.306  18.871  0.00  0.00    +0.000 A 
ENDBRANCH  18  19
ENDBRANCH   2  18
TORSDOF 3
ENDMDL
MODEL 2
REMARK VINA RESULT:      -7.9      7.994      9.213
REMARK  Name = 
REMARK  3 active torsions:
REMARK  status: ('A' for Active; 'I' for Inactive)
REMARK    1  A    between atoms: C_2  and  C_3
REMARK    2  A    between atoms: C_3  and  C_4
REMARK    3  A    between atoms: C_17  and  C_18
REMARK                            x       y       z     vdW  Elec       q    Type
REMARK                         _______ _______ _______ _____ _____    ______ ____
ROOT
ATOM      1  O   UNL     1       7.736   8.091  17.038  0.00  0.00    +0.000 OA
ATOM      2  C   UNL     1       8.083   7.752  18.167  0.00  0.00    +0.000 C 
ATOM      3  N   UNL     1       8.740   8.536  19.092  0.00  0.00    +0.000 N 
ATOM      4  C   UNL     1       9.083   9.859  18.931  0.00  0.00    +0.000 A 
ATOM      5  N   UNL     1       9.960  10.438  19.714  0.00  0.00    +0.000 NA
ATOM      6  C   UNL     1      10.142  11.754  19.313  0.00  0.00    +0.000 A 
ATOM      7  C   UNL     1      11.058  12.675  19.859  0.00  0.00    +0.000 A 
ATOM      8  C   UNL     1      11.137  13.978  19.345  0.00  0.00    +0.000 A 
ATOM      9  C   UNL     1      10.303  14.391  18.298  0.00  0.00    +0.000 A 
ATOM     10  C   UNL     1       9.379  13.483  17.749  0.00  0.00    +0.000 A 
ATOM     11  C   UNL     1       9.327  12.174  18.261  0.00  0.00    +0.000 A 
ATOM     12  S   UNL     1       8.342  10.856  17.767  0.00  0.00    +0.000 S 
ATOM     13  H   UNL     1       9.159   8.112  19.909  0.00  0.00    +0.000 HD
ENDROOT
BRANCH   9  14
ATOM     14  C   UNL     1      10.381  15.794  17.742  0.00  0.00    +0.000 C 
ATOM     15  F   UNL     1      10.902  16.699  18.617  0.00  0.00    +0.000 F 
ATOM     16  F   UNL     1      11.155  15.867  16.624  0.00  0.00    +0.000 F 
ATOM     17  F   UNL     1       9.161  16.280  17.385  0.00  0.00    +0.000 F 
ENDBRANCH   9  14
BRANCH   2  18
ATOM     18  C   UNL     1       7.811   6.334  18.656  0.00  0.00    +0.000 C 
BRANCH  18  19
ATOM     19  C   UNL     1       6.768   5.611  17.838  0.00  0.00    +0.000 A 
ATOM     20  C   UNL     1       7.147   4.762  16.784  0.00  0.00    +0.000 A 
ATOM     21  C   UNL     1       6.186   4.076  16.039  0.00  0.00    +0.000 A 
ATOM     22  C   UNL     1       4.833   4.223  16.341  0.00  0.00    +0.000 A 
ATOM     23  C   UNL     1       4.448   5.049  17.394  0.00  0.00    +0.000 A 
ATOM     24 CL   UNL     1       2.780   5.219  17.779  0.00  0.00    +0.000 Cl
ATOM     25  C   UNL     1       5.405   5.738  18.143  0.00  0.00    +0.000 A 
ENDBRANCH  18  19
ENDBRANCH   2  18
TORSDOF 3
ENDMDL
MODEL 3
REMARK VINA RESULT:      -7.9      4.011      4.966
REMARK  Name = 
REMARK  3 active torsions:
REMARK  status: ('A' for Active; 'I' for Inactive)
REMARK    1  A    between atoms: C_2  and  C_3
REMARK    2  A    between atoms: C_3  and  C_4
REMARK    3  A    between atoms: C_17  and  C_18
REMARK                            x       y       z     vdW  Elec       q    Type
REMARK                         _______ _______ _______ _____ _____    ______ ____
ROOT
ATOM      1  O   UNL     1       5.665   6.804  16.102  0.00  0.00    +0.000 OA
ATOM      2  C   UNL     1       5.510   5.713  16.645  0.00  0.00    +0.000 C 
ATOM      3  N   UNL     1       4.624   5.423  17.662  0.00  0.00    +0.000 N 
ATOM      4  C   UNL     1       3.718   6.298  18.218  0.00  0.00    +0.000 A 
ATOM      5  N   UNL     1       3.138   6.041  19.365  0.00  0.00    +0.000 NA
ATOM      6  C   UNL     1       2.303   7.096  19.708  0.00  0.00    +0.000 A 
ATOM      7  C   UNL     1       1.567   7.225  20.902  0.00  0.00    +0.000 A 
ATOM      8  C   UNL     1       0.765   8.356  21.115  0.00  0.00    +0.000 A 
ATOM      9  C   UNL     1       0.671   9.365  20.148  0.00  0.00    +0.000 A 
ATOM     10  C   UNL     1       1.396   9.245  18.948  0.00  0.00    +0.000 A 
ATOM     11  C   UNL     1       2.211   8.114  18.759  0.00  0.00    +0.000 A 
ATOM     12  S   UNL     1       3.228   7.724  17.431  0.00  0.00    +0.000 S 
ATOM     13  H   UNL     1       4.710   4.557  18.177  0.00  0.00    +0.000 HD
ENDROOT
BRANCH   9  14
ATOM     14  C   UNL     1      -0.193  10.585  20.371  0.00  0.00    +0.000 C 
ATOM     15  F   UNL     1      -0.656  10.700  21.647  0.00  0.00    +0.000 F 
ATOM     16  F   UNL     1       0.470  11.745  20.110  0.00  0.00    +0.000 F 
ATOM     17  F   UNL     1      -1.294  10.596  19.571  0.00  0.00    +0.000 F 
ENDBRANCH   9  14
BRANCH   2  18
ATOM     18  C   UNL     1       6.357   4.521  16.219  0.00  0.00    +0.000 C 
BRANCH  18  19
ATOM     19  C   UNL     1       6.596   4.462  14.729  0.00  0.00    +0.000 A 
ATOM     20  C   UNL     1       7.654   5.178  14.144  0.00  0.00    +0.000 A 
ATOM     21  C   UNL     1       7.890   5.109  12.770  0.00  0.00    +0.000 A 
ATOM     22  C   UNL     1       7.077   4.317  11.961  0.00  0.00    +0.000 A 
ATOM     23  C   UNL     1       6.036   3.590  12.533  0.00  0.00    +0.000 A 
ATOM     24 CL   UNL     1       5.042   2.598  11.540  0.00  0.00    +0.000 Cl
ATOM     25  C   UNL     1       5.795   3.654  13.908  0.00  0.00    +0.000 A 
ENDBRANCH  18  19
ENDBRANCH   2  18
TORSDOF 3
ENDMDL
MODEL 4
REMARK VINA RESULT:      -7.8      0.950      1.374
REMARK  Name = 
REMARK  3 active torsions:
REMARK  status: ('A' for Active; 'I' for Inactive)
REMARK    1  A    between atoms: C_2  and  C_3
REMARK    2  A    between atoms: C_3  and  C_4
REMARK    3  A    between atoms: C_17  and  C_18
REMARK                            x       y       z     vdW  Elec       q    Type
REMARK                         _______ _______ _______ _____ _____    ______ ____
ROOT
ATOM      1  O   UNL     1       2.790   8.706  17.291  0.00  0.00    +0.000 OA
ATOM      2  C   UNL     1       2.911   7.666  17.934  0.00  0.00    +0.000 C 
ATOM      3  N   UNL     1       2.377   7.406  19.180  0.00  0.00    +0.000 N 
ATOM      4  C   UNL     1       1.570   8.253  19.905  0.00  0.00    +0.000 A 
ATOM      5  N   UNL     1       1.359   8.065  21.185  0.00  0.00    +0.000 NA
ATOM      6  C   UNL     1       0.542   9.075  21.672  0.00  0.00    +0.000 A 
ATOM      7  C   UNL     1       0.153   9.261  23.014  0.00  0.00    +0.000 A 
ATOM      8  C   UNL     1      -0.677  10.337  23.363  0.00  0.00    +0.000 A 
ATOM      9  C   UNL     1      -1.144  11.231  22.392  0.00  0.00    +0.000 A 
ATOM     10  C   UNL     1      -0.769  11.052  21.048  0.00  0.00    +0.000 A 
ATOM     11  C   UNL     1       0.081   9.981  20.718  0.00  0.00    +0.000 A 
ATOM     12  S   UNL     1       0.729   9.546  19.187  0.00  0.00    +0.000 S 
ATOM     13  H   UNL     1       2.696   6.607  19.710  0.00  0.00    +0.000 HD
ENDROOT
BRANCH   9  14
ATOM     14  C   UNL     1      -2.041  12.390  22.762  0.00  0.00    +0.000 C 
ATOM     15  F   UNL     1      -3.125  12.026  23.501  0.00  0.00    +0.000 F 
ATOM     16  F   UNL     1      -1.390  13.336  23.495  0.00  0.00    +0.000 F 
ATOM     17  F   UNL     1      -2.532  13.037  21.670  0.00  0.00    +0.000 F 
ENDBRANCH   9  14
BRANCH   2  18
ATOM     18  C   UNL     1       3.733   6.512  17.373  0.00  0.00    +0.000 C 
BRANCH  18  19
ATOM     19  C   UNL     1       3.529   5.216  18.121  0.00  0.00    +0.000 A 
ATOM     20  C   UNL     1       4.555   4.679  18.915  0.00  0.00    +0.000 A 
ATOM     21  C   UNL     1       4.362   3.491  19.624  0.00  0.00    +0.000 A 
ATOM     22  C   UNL     1       3.138   2.828  19.555  0.00  0.00    +0.000 A 
ATOM     23  C   UNL     1       2.109   3.361  18.783  0.00  0.00    +0.000 A 
ATOM     24 CL   UNL     1       0.592   2.553  18.709  0.00  0.00    +0.000 Cl
ATOM     25  C   UNL     1       2.296   4.549  18.072  0.00  0.00    +0.000 A 
ENDBRANCH  18  19
ENDBRANCH   2  18
TORSDOF 3
ENDMDL
MODEL 5
REMARK VINA RESULT:      -7.7      1.129      1.189
REMARK  Name = 
REMARK  3 active torsions:
REMARK  status: ('A' for Active; 'I' for Inactive)
REMARK    1  A    between atoms: C_2  and  C_3
REMARK    2  A    between atoms: C_3  and  C_4
REMARK    3  A    between atoms: C_17  and  C_18
REMARK                            x       y       z     vdW  Elec       q    Type
REMARK                         _______ _______ _______ _____ _____    ______ ____
ROOT
ATOM      1  O   UNL     1       2.483   8.709  17.727  0.00  0.00    +0.000 OA
ATOM      2  C   UNL     1       2.518   7.812  18.565  0.00  0.00    +0.000 C 
ATOM      3  N   UNL     1       1.876   7.806  19.786  0.00  0.00    +0.000 N 
ATOM      4  C   UNL     1       1.039   8.789  20.263  0.00  0.00    +0.000 A 
ATOM      5  N   UNL     1       0.718   8.856  21.532  0.00  0.00    +0.000 NA
ATOM      6  C   UNL     1      -0.104   9.954  21.744  0.00  0.00    +0.000 A 
ATOM      7  C   UNL     1      -0.595  10.402  22.987  0.00  0.00    +0.000 A 
ATOM      8  C   UNL     1      -1.416  11.537  23.050  0.00  0.00    +0.000 A 
ATOM      9  C   UNL     1      -1.774  12.234  21.889  0.00  0.00    +0.000 A 
ATOM     10  C   UNL     1      -1.296  11.792  20.642  0.00  0.00    +0.000 A 
ATOM     11  C   UNL     1      -0.456  10.665  20.597  0.00  0.00    +0.000 A 
ATOM     12  S   UNL     1       0.301   9.932  19.241  0.00  0.00    +0.000 S 
ATOM     13  H   UNL     1       2.125   7.120  20.485  0.00  0.00    +0.000 HD
ENDROOT
BRANCH   9  14
ATOM     14  C   UNL     1      -2.661  13.456  21.951  0.00  0.00    +0.000 C 
ATOM     15  F   UNL     1      -3.304  13.603  23.142  0.00  0.00    +0.000 F 
ATOM     16  F   UNL     1      -1.966  14.611  21.757  0.00  0.00    +0.000 F 
ATOM     17  F   UNL     1      -3.634  13.441  21.000  0.00  0.00    +0.000 F 
ENDBRANCH   9  14
BRANCH   2  18
ATOM     18  C   UNL     1       3.346   6.559  18.308  0.00  0.00    +0.000 C 
BRANCH  18  19
ATOM     19  C   UNL     1       2.634   5.284  18.694  0.00  0.00    +0.000 A 
ATOM     20  C   UNL     1       1.802   4.623  17.776  0.00  0.00    +0.000 A 
ATOM     21  C   UNL     1       1.158   3.433  18.123  0.00  0.00    +0.000 A 
ATOM     22  C   UNL     1       1.343   2.884  19.390  0.00  0.00    +0.000 A 
ATOM     23  C   UNL     1       2.180   3.523  20.302  0.00  0.00    +0.000 A 
ATOM     24 CL   UNL     1       2.423   2.838  21.862  0.00  0.00    +0.000 Cl
ATOM     25  C   UNL     1       2.826   4.713  19.961  0.00  0.00    +0.000 A 
ENDBRANCH  18  19
ENDBRANCH   2  18
TORSDOF 3
ENDMDL
MODEL 6
REMARK VINA RESULT:      -7.7      8.045      9.250
REMARK  Name = 
REMARK  3 active torsions:
REMARK  status: ('A' for Active; 'I' for Inactive)
REMARK    1  A    between atoms: C_2  and  C_3
REMARK    2  A    between atoms: C_3  and  C_4
REMARK    3  A    between atoms: C_17  and  C_18
REMARK                            x       y       z     vdW  Elec       q    Type
REMARK                         _______ _______ _______ _____ _____    ______ ____
ROOT
ATOM      1  O   UNL     1       7.687   8.205  17.036  0.00  0.00    +0.000 OA
ATOM      2  C   UNL     1       8.074   7.837  18.143  0.00  0.00    +0.000 C 
ATOM      3  N   UNL     1       8.763   8.598  19.065  0.00  0.00    +0.000 N 
ATOM      4  C   UNL     1       9.097   9.926  18.926  0.00  0.00    +0.000 A 
ATOM      5  N   UNL     1      10.000  10.486  19.693  0.00  0.00    +0.000 NA
ATOM      6  C   UNL     1      10.166  11.813  19.321  0.00  0.00    +0.000 A 
ATOM      7  C   UNL     1      11.100  12.721  19.859  0.00  0.00    +0.000 A 
ATOM      8  C   UNL     1      11.158  14.037  19.377  0.00  0.00    +0.000 A 
ATOM      9  C   UNL     1      10.287  14.476  18.372  0.00  0.00    +0.000 A 
ATOM     10  C   UNL     1       9.345  13.581  17.832  0.00  0.00    +0.000 A 
ATOM     11  C   UNL     1       9.314  12.259  18.311  0.00  0.00    +0.000 A 
ATOM     12  S   UNL     1       8.314  10.951  17.817  0.00  0.00    +0.000 S 
ATOM     13  H   UNL     1       9.211   8.154  19.854  0.00  0.00    +0.000 HD
ENDROOT
BRANCH   9  14
ATOM     14  C   UNL     1      10.343  15.894  17.851  0.00  0.00    +0.000 C 
ATOM     15  F   UNL     1      11.348  16.108  16.957  0.00  0.00    +0.000 F 
ATOM     16  F   UNL     1       9.195  16.258  17.215  0.00  0.00    +0.000 F 
ATOM     17  F   UNL     1      10.525  16.806  18.845  0.00  0.00    +0.000 F 
ENDBRANCH   9  14
BRANCH   2  18
ATOM     18  C   UNL     1       7.822   6.407  18.603  0.00  0.00    +0.000 C 
BRANCH  18  19
ATOM     19  C   UNL     1       6.721   5.717  17.833  0.00  0.00    +0.000 A 
ATOM     20  C   UNL     1       5.405   5.703  18.324  0.00  0.00    +0.000 A 
ATOM     21  C   UNL     1       4.381   5.084  17.603  0.00  0.00    +0.000 A 
ATOM     22  C   UNL     1       4.657   4.478  16.379  0.00  0.00    +0.000 A 
ATOM     23  C   UNL     1       5.955   4.502  15.875  0.00  0.00    +0.000 A 
ATOM     24 CL   UNL     1       6.295   3.769  14.356  0.00  0.00    +0.000 Cl
ATOM     25  C   UNL     1       6.984   5.119  16.591  0.00  0.00    +0.000 A 
ENDBRANCH  18  19
ENDBRANCH   2  18
TORSDOF 3
ENDMDL
MODEL 7
REMARK VINA RESULT:      -7.6      2.528      3.449
REMARK  Name = 
REMARK  3 active torsions:
REMARK  status: ('A' for Active; 'I' for Inactive)
REMARK    1  A    between atoms: C_2  and  C_3
REMARK    2  A    between atoms: C_3  and  C_4
REMARK    3  A    between atoms: C_17  and  C_18
REMARK                            x       y       z     vdW  Elec       q    Type
REMARK                         _______ _______ _______ _____ _____    ______ ____
ROOT
ATOM      1  O   UNL     1       2.103   4.337  19.712  0.00  0.00    +0.000 OA
ATOM      2  C   UNL     1       2.692   4.684  18.692  0.00  0.00    +0.000 C 
ATOM      3  N   UNL     1       2.763   5.964  18.181  0.00  0.00    +0.000 N 
ATOM      4  C   UNL     1       2.224   7.092  18.755  0.00  0.00    +0.000 A 
ATOM      5  N   UNL     1       2.071   8.199  18.071  0.00  0.00    +0.000 NA
ATOM      6  C   UNL     1       1.478   9.163  18.875  0.00  0.00    +0.000 A 
ATOM      7  C   UNL     1       1.085  10.456  18.477  0.00  0.00    +0.000 A 
ATOM      8  C   UNL     1       0.489  11.326  19.403  0.00  0.00    +0.000 A 
ATOM      9  C   UNL     1       0.289  10.935  20.733  0.00  0.00    +0.000 A 
ATOM     10  C   UNL     1       0.685   9.649  21.144  0.00  0.00    +0.000 A 
ATOM     11  C   UNL     1       1.261   8.782  20.199  0.00  0.00    +0.000 A 
ATOM     12  S   UNL     1       1.795   7.161  20.400  0.00  0.00    +0.000 S 
ATOM     13  H   UNL     1       3.096   6.115  17.239  0.00  0.00    +0.000 HD
ENDROOT
BRANCH   9  14
ATOM     14  C   UNL     1      -0.350  11.869  21.736  0.00  0.00    +0.000 C 
ATOM     15  F   UNL     1      -0.473  11.331  22.981  0.00  0.00    +0.000 F 
ATOM     16  F   UNL     1       0.359  13.021  21.896  0.00  0.00    +0.000 F 
ATOM     17  F   UNL     1      -1.604  12.249  21.367  0.00  0.00    +0.000 F 
ENDBRANCH   9  14
BRANCH   2  18
ATOM     18  C   UNL     1       3.423   3.650  17.843  0.00  0.00    +0.000 C 
BRANCH  18  19
ATOM     19  C   UNL     1       4.824   4.070  17.469  0.00  0.00    +0.000 A 
ATOM     20  C   UNL     1       5.256   4.011  16.133  0.00  0.00    +0.000 A 
ATOM     21  C   UNL     1       6.545   4.418  15.781  0.00  0.00    +0.000 A 
ATOM     22  C   UNL     1       7.417   4.897  16.757  0.00  0.00    +0.000 A 
ATOM     23  C   UNL     1       6.992   4.976  18.081  0.00  0.00    +0.000 A 
ATOM     24 CL   UNL     1       8.061   5.582  19.285  0.00  0.00    +0.000 Cl
ATOM     25  C   UNL     1       5.704   4.570  18.440  0.00  0.00    +0.000 A 
ENDBRANCH  18  19
ENDBRANCH   2  18
TORSDOF 3
ENDMDL
MODEL 8
REMARK VINA RESULT:      -7.6      1.442      1.969
REMARK  Name = 
REMARK  3 active torsions:
REMARK  status: ('A' for Active; 'I' for Inactive)
REMARK    1  A    between atoms: C_2  and  C_3
REMARK    2  A    between atoms: C_3  and  C_4
REMARK    3  A    between atoms: C_17  and  C_18
REMARK                            x       y       z     vdW  Elec       q    Type
REMARK                         _______ _______ _______ _____ _____    ______ ____
ROOT
ATOM      1  O   UNL     1       1.990   6.159  20.255  0.00  0.00    +0.000 OA
ATOM      2  C   UNL     1       2.442   6.746  19.274  0.00  0.00    +0.000 C 
ATOM      3  N   UNL     1       2.162   8.043  18.894  0.00  0.00    +0.000 N 
ATOM      4  C   UNL     1       1.360   8.928  19.577  0.00  0.00    +0.000 A 
ATOM      5  N   UNL     1       0.905  10.016  19.006  0.00  0.00    +0.000 NA
ATOM      6  C   UNL     1       0.101  10.708  19.902  0.00  0.00    +0.000 A 
ATOM      7  C   UNL     1      -0.629  11.884  19.634  0.00  0.00    +0.000 A 
ATOM      8  C   UNL     1      -1.408  12.472  20.641  0.00  0.00    +0.000 A 
ATOM      9  C   UNL     1      -1.465  11.915  21.926  0.00  0.00    +0.000 A 
ATOM     10  C   UNL     1      -0.736  10.746  22.207  0.00  0.00    +0.000 A 
ATOM     11  C   UNL     1       0.024  10.157  21.181  0.00  0.00    +0.000 A 
ATOM     12  S   UNL     1       0.970   8.723  21.220  0.00  0.00    +0.000 S 
ATOM     13  H   UNL     1       2.420   8.367  17.972  0.00  0.00    +0.000 HD
ENDROOT
BRANCH   9  14
ATOM     14  C   UNL     1      -2.301  12.547  23.016  0.00  0.00    +0.000 C 
ATOM     15  F   UNL     1      -3.308  13.334  22.544  0.00  0.00    +0.000 F 
ATOM     16  F   UNL     1      -2.897  11.619  23.815  0.00  0.00    +0.000 F 
ATOM     17  F   UNL     1      -1.565  13.336  23.844  0.00  0.00    +0.000 F 
ENDBRANCH   9  14
BRANCH   2  18
ATOM     18  C   UNL     1       3.397   6.029  18.328  0.00  0.00    +0.000 C 
BRANCH  18  19
ATOM     19  C   UNL     1       3.320   4.524  18.431  0.00  0.00    +0.000 A 
ATOM     20  C   UNL     1       2.497   3.788  17.563  0.00  0.00    +0.000 A 
ATOM     21  C   UNL     1       2.440   2.395  17.642  0.00  0.00    +0.000 A 
ATOM     22  C   UNL     1       3.209   1.718  18.587  0.00  0.00    +0.000 A 
ATOM     23  C   UNL     1       4.041   2.437  19.441  0.00  0.00    +0.000 A 
ATOM     24 CL   UNL     1       5.005   1.602  20.596  0.00  0.00    +0.000 Cl
ATOM     25  C   UNL     1       4.103   3.831  19.366  0.00  0.00    +0.000 A 
ENDBRANCH  18  19
ENDBRANCH   2  18
TORSDOF 3
ENDMDL
MODEL 9
REMARK VINA RESULT:      -7.6      2.740      3.774
REMARK  Name = 
REMARK  3 active torsions:
REMARK  status: ('A' for Active; 'I' for Inactive)
REMARK    1  A    between atoms: C_2  and  C_3
REMARK    2  A    between atoms: C_3  and  C_4
REMARK    3  A    between atoms: C_17  and  C_18
REMARK                            x       y       z     vdW  Elec       q    Type
REMARK                         _______ _______ _______ _____ _____    ______ ____
ROOT
ATOM      1  O   UNL     1       2.120   4.405  19.651  0.00  0.00    +0.000 OA
ATOM      2  C   UNL     1       2.678   4.751  18.613  0.00  0.00    +0.000 C 
ATOM      3  N   UNL     1       2.726   6.030  18.096  0.00  0.00    +0.000 N 
ATOM      4  C   UNL     1       2.196   7.157  18.680  0.00  0.00    +0.000 A 
ATOM      5  N   UNL     1       2.016   8.261  17.996  0.00  0.00    +0.000 NA
ATOM      6  C   UNL     1       1.441   9.224  18.813  0.00  0.00    +0.000 A 
ATOM      7  C   UNL     1       1.027  10.513  18.422  0.00  0.00    +0.000 A 
ATOM      8  C   UNL     1       0.452  11.382  19.361  0.00  0.00    +0.000 A 
ATOM      9  C   UNL     1       0.293  10.996  20.698  0.00  0.00    +0.000 A 
ATOM     10  C   UNL     1       0.709   9.714  21.102  0.00  0.00    +0.000 A 
ATOM     11  C   UNL     1       1.264   8.847  20.145  0.00  0.00    +0.000 A 
ATOM     12  S   UNL     1       1.814   7.231  20.337  0.00  0.00    +0.000 S 
ATOM     13  H   UNL     1       3.031   6.179  17.144  0.00  0.00    +0.000 HD
ENDROOT
BRANCH   9  14
ATOM     14  C   UNL     1      -0.323  11.929  21.715  0.00  0.00    +0.000 C 
ATOM     15  F   UNL     1       0.390  13.075  21.905  0.00  0.00    +0.000 F 
ATOM     16  F   UNL     1      -1.577  12.325  21.362  0.00  0.00    +0.000 F 
ATOM     17  F   UNL     1      -0.442  11.355  22.943  0.00  0.00    +0.000 F 
ENDBRANCH   9  14
BRANCH   2  18
ATOM     18  C   UNL     1       3.390   3.719  17.748  0.00  0.00    +0.000 C 
BRANCH  18  19
ATOM     19  C   UNL     1       4.787   4.135  17.353  0.00  0.00    +0.000 A 
ATOM     20  C   UNL     1       5.759   4.400  18.333  0.00  0.00    +0.000 A 
ATOM     21  C   UNL     1       7.058   4.765  17.970  0.00  0.00    +0.000 A 
ATOM     22  C   UNL     1       7.405   4.863  16.624  0.00  0.00    +0.000 A 
ATOM     23  C   UNL     1       6.454   4.586  15.646  0.00  0.00    +0.000 A 
ATOM     24 CL   UNL     1       6.885   4.691  13.983  0.00  0.00    +0.000 Cl
ATOM     25  C   UNL     1       5.153   4.221  16.002  0.00  0.00    +0.000 A 
ENDBRANCH  18  19
ENDBRANCH   2  18
TORSDOF 3
ENDMDL
