MODEL 1
REMARK VINA RESULT:      -7.6      0.000      0.000
REMARK  Name = 
REMARK  5 active torsions:
REMARK  status: ('A' for Active; 'I' for Inactive)
REMARK    1  A    between atoms: C_4  and  N_5
REMARK    2  A    between atoms: N_5  and  S_6
REMARK    3  A    between atoms: S_6  and  N_9
REMARK    4  A    between atoms: N_16  and  C_17
REMARK    5  A    between atoms: C_17  and  C_18
REMARK                            x       y       z     vdW  Elec       q    Type
REMARK                         _______ _______ _______ _____ _____    ______ ____
ROOT
ATOM      1  O   UNL     1       5.095   6.898  15.009  0.00  0.00    +0.000 OA
ATOM      2  C   UNL     1       5.582   5.986  15.655  0.00  0.00    +0.000 C 
ATOM      3  C   UNL     1       5.506   5.833  17.144  0.00  0.00    +0.000 C 
ATOM      4  C   UNL     1       5.886   4.372  17.375  0.00  0.00    +0.000 C 
ATOM      5  C   UNL     1       6.872   4.115  16.226  0.00  0.00    +0.000 C 
ATOM      6  N   UNL     1       6.404   4.980  15.169  0.00  0.00    +0.000 N 
ENDROOT
BRANCH   4   7
ATOM      7  N   UNL     1       4.712   3.422  17.303  0.00  0.00    +0.000 NA
ATOM      8  H   UNL     1       4.995   2.562  16.824  0.00  0.00    +0.000 HD
BRANCH   7   9
ATOM      9  S   UNL     1       4.121   2.945  18.804  0.00  0.00    +0.000 S 
ATOM     10  O   UNL     1       3.486   1.665  18.594  0.00  0.00    +0.000 OA
ATOM     11  O   UNL     1       5.148   3.124  19.796  0.00  0.00    +0.000 OA
BRANCH   9  12
ATOM     12  N   UNL     1       2.919   4.089  19.068  0.00  0.00    +0.000 NA
ATOM     13  C   UNL     1       2.595   4.441  20.491  0.00  0.00    +0.000 C 
ATOM     14  C   UNL     1       1.712   3.386  21.177  0.00  0.00    +0.000 C 
ATOM     15  O   UNL     1       0.532   3.086  20.415  0.00  0.00    +0.000 OA
ATOM     16  C   UNL     1       0.870   2.648  19.092  0.00  0.00    +0.000 C 
ATOM     17  C   UNL     1       1.636   3.752  18.352  0.00  0.00    +0.000 C 
ENDBRANCH   9  12
ENDBRANCH   7   9
ENDBRANCH   4   7
BRANCH   6  18
ATOM     18  C   UNL     1       7.043   5.060  13.872  0.00  0.00    +0.000 C 
BRANCH  18  19
ATOM     19  C   UNL     1       6.493   4.078  12.868  0.00  0.00    +0.000 A 
ATOM     20  C   UNL     1       7.355   3.232  12.158  0.00  0.00    +0.000 A 
ATOM     21  C   UNL     1       6.842   2.248  11.312  0.00  0.00    +0.000 A 
ATOM     22  C   UNL     1       5.463   2.099  11.174  0.00  0.00    +0.000 A 
ATOM     23  C   UNL     1       4.597   2.941  11.869  0.00  0.00    +0.000 A 
ATOM     24  C   UNL     1       5.108   3.929  12.714  0.00  0.00    +0.000 A 
ENDBRANCH  18  19
ENDBRANCH   6  18
TORSDOF 5
ENDMDL
MODEL 2
REMARK VINA RESULT:      -7.5      1.736      2.485
REMARK  Name = 
REMARK  5 active torsions:
REMARK  status: ('A' for Active; 'I' for Inactive)
REMARK    1  A    between atoms: C_4  and  N_5
REMARK    2  A    between atoms: N_5  and  S_6
REMARK    3  A    between atoms: S_6  and  N_9
REMARK    4  A    between atoms: N_16  and  C_17
REMARK    5  A    between atoms: C_17  and  C_18
REMARK                            x       y       z     vdW  Elec       q    Type
REMARK                         _______ _______ _______ _____ _____    ______ ____
ROOT
ATOM      1  O   UNL     1       4.991   7.043  15.138  0.00  0.00    +0.000 OA
ATOM      2  C   UNL     1       5.076   6.424  16.185  0.00  0.00    +0.000 C 
ATOM      3  C   UNL     1       4.201   6.615  17.387  0.00  0.00    +0.000 C 
ATOM      4  C   UNL     1       4.446   5.354  18.214  0.00  0.00    +0.000 C 
ATOM      5  C   UNL     1       5.910   5.033  17.876  0.00  0.00    +0.000 C 
ATOM      6  N   UNL     1       6.067   5.514  16.525  0.00  0.00    +0.000 N 
ENDROOT
BRANCH   4   7
ATOM      7  N   UNL     1       3.540   4.202  17.843  0.00  0.00    +0.000 NA
ATOM      8  H   UNL     1       3.906   3.334  18.246  0.00  0.00    +0.000 HD
BRANCH   7   9
ATOM      9  S   UNL     1       1.966   4.354  18.417  0.00  0.00    +0.000 S 
ATOM     10  O   UNL     1       2.015   5.356  19.455  0.00  0.00    +0.000 OA
ATOM     11  O   UNL     1       1.065   4.467  17.300  0.00  0.00    +0.000 OA
BRANCH   9  12
ATOM     12  N   UNL     1       1.730   2.858  19.144  0.00  0.00    +0.000 NA
ATOM     13  C   UNL     1       1.062   2.836  20.488  0.00  0.00    +0.000 C 
ATOM     14  C   UNL     1       2.016   3.219  21.631  0.00  0.00    +0.000 C 
ATOM     15  O   UNL     1       3.221   2.438  21.618  0.00  0.00    +0.000 OA
ATOM     16  C   UNL     1       3.900   2.560  20.360  0.00  0.00    +0.000 C 
ATOM     17  C   UNL     1       3.001   2.052  19.226  0.00  0.00    +0.000 C 
ENDBRANCH   9  12
ENDBRANCH   7   9
ENDBRANCH   4   7
BRANCH   6  18
ATOM     18  C   UNL     1       7.310   5.410  15.787  0.00  0.00    +0.000 C 
BRANCH  18  19
ATOM     19  C   UNL     1       7.142   4.828  14.406  0.00  0.00    +0.000 A 
ATOM     20  C   UNL     1       6.264   3.758  14.189  0.00  0.00    +0.000 A 
ATOM     21  C   UNL     1       6.024   3.291  12.896  0.00  0.00    +0.000 A 
ATOM     22  C   UNL     1       6.657   3.893  11.810  0.00  0.00    +0.000 A 
ATOM     23  C   UNL     1       7.538   4.952  12.016  0.00  0.00    +0.000 A 
ATOM     24  C   UNL     1       7.783   5.419  13.309  0.00  0.00    +0.000 A 
ENDBRANCH  18  19
ENDBRANCH   6  18
TORSDOF 5
ENDMDL
MODEL 3
REMARK VINA RESULT:      -7.4      1.263      1.984
REMARK  Name = 
REMARK  5 active torsions:
REMARK  status: ('A' for Active; 'I' for Inactive)
REMARK    1  A    between atoms: C_4  and  N_5
REMARK    2  A    between atoms: N_5  and  S_6
REMARK    3  A    between atoms: S_6  and  N_9
REMARK    4  A    between atoms: N_16  and  C_17
REMARK    5  A    between atoms: C_17  and  C_18
REMARK                            x       y       z     vdW  Elec       q    Type
REMARK                         _______ _______ _______ _____ _____    ______ ____
ROOT
ATOM      1  O   UNL     1       4.722   7.043  16.267  0.00  0.00    +0.000 OA
ATOM      2  C   UNL     1       5.009   6.158  17.055  0.00  0.00    +0.000 C 
ATOM      3  C   UNL     1       4.396   5.960  18.409  0.00  0.00    +0.000 C 
ATOM      4  C   UNL     1       4.788   4.530  18.775  0.00  0.00    +0.000 C 
ATOM      5  C   UNL     1       6.150   4.387  18.080  0.00  0.00    +0.000 C 
ATOM      6  N   UNL     1       6.038   5.238  16.919  0.00  0.00    +0.000 N 
ENDROOT
BRANCH   4   7
ATOM      7  N   UNL     1       3.814   3.488  18.274  0.00  0.00    +0.000 NA
ATOM      8  H   UNL     1       4.081   3.193  17.330  0.00  0.00    +0.000 HD
BRANCH   7   9
ATOM      9  S   UNL     1       3.770   2.086  19.204  0.00  0.00    +0.000 S 
ATOM     10  O   UNL     1       3.901   0.988  18.275  0.00  0.00    +0.000 OA
ATOM     11  O   UNL     1       4.656   2.236  20.327  0.00  0.00    +0.000 OA
BRANCH   9  12
ATOM     12  N   UNL     1       2.186   2.109  19.766  0.00  0.00    +0.000 NA
ATOM     13  C   UNL     1       1.175   2.874  18.962  0.00  0.00    +0.000 C 
ATOM     14  C   UNL     1       1.257   4.391  19.194  0.00  0.00    +0.000 C 
ATOM     15  O   UNL     1       1.205   4.732  20.588  0.00  0.00    +0.000 OA
ATOM     16  C   UNL     1       2.249   4.074  21.319  0.00  0.00    +0.000 C 
ATOM     17  C   UNL     1       2.093   2.553  21.203  0.00  0.00    +0.000 C 
ENDBRANCH   9  12
ENDBRANCH   7   9
ENDBRANCH   4   7
BRANCH   6  18
ATOM     18  C   UNL     1       7.106   5.405  15.955  0.00  0.00    +0.000 C 
BRANCH  18  19
ATOM     19  C   UNL     1       6.777   4.853  14.591  0.00  0.00    +0.000 A 
ATOM     20  C   UNL     1       7.631   5.091  13.505  0.00  0.00    +0.000 A 
ATOM     21  C   UNL     1       7.387   4.490  12.269  0.00  0.00    +0.000 A 
ATOM     22  C   UNL     1       6.291   3.644  12.111  0.00  0.00    +0.000 A 
ATOM     23  C   UNL     1       5.431   3.408  13.182  0.00  0.00    +0.000 A 
ATOM     24  C   UNL     1       5.671   4.011  14.419  0.00  0.00    +0.000 A 
ENDBRANCH  18  19
ENDBRANCH   6  18
TORSDOF 5
ENDMDL
MODEL 4
REMARK VINA RESULT:      -7.4      0.402      1.083
REMARK  Name = 
REMARK  5 active torsions:
REMARK  status: ('A' for Active; 'I' for Inactive)
REMARK    1  A    between atoms: C_4  and  N_5
REMARK    2  A    between atoms: N_5  and  S_6
REMARK    3  A    between atoms: S_6  and  N_9
REMARK    4  A    between atoms: N_16  and  C_17
REMARK    5  A    between atoms: C_17  and  C_18
REMARK                            x       y       z     vdW  Elec       q    Type
REMARK                         _______ _______ _______ _____ _____    ______ ____
ROOT
ATOM      1  O   UNL     1       5.096   6.869  14.780  0.00  0.00    +0.000 OA
ATOM      2  C   UNL     1       5.572   5.949  15.422  0.00  0.00    +0.000 C 
ATOM      3  C   UNL     1       5.544   5.819  16.915  0.00  0.00    +0.000 C 
ATOM      4  C   UNL     1       5.879   4.348  17.154  0.00  0.00    +0.000 C 
ATOM      5  C   UNL     1       6.812   4.039  15.974  0.00  0.00    +0.000 C 
ATOM      6  N   UNL     1       6.339   4.906  14.922  0.00  0.00    +0.000 N 
ENDROOT
BRANCH   4   7
ATOM      7  N   UNL     1       4.668   3.442  17.138  0.00  0.00    +0.000 NA
ATOM      8  H   UNL     1       4.913   2.549  16.699  0.00  0.00    +0.000 HD
BRANCH   7   9
ATOM      9  S   UNL     1       4.075   3.061  18.665  0.00  0.00    +0.000 S 
ATOM     10  O   UNL     1       3.430   1.776  18.534  0.00  0.00    +0.000 OA
ATOM     11  O   UNL     1       5.104   3.293  19.644  0.00  0.00    +0.000 OA
BRANCH   9  12
ATOM     12  N   UNL     1       2.881   4.228  18.859  0.00  0.00    +0.000 NA
ATOM     13  C   UNL     1       2.822   4.950  20.175  0.00  0.00    +0.000 C 
ATOM     14  C   UNL     1       2.157   4.115  21.280  0.00  0.00    +0.000 C 
ATOM     15  O   UNL     1       0.870   3.614  20.884  0.00  0.00    +0.000 OA
ATOM     16  C   UNL     1       0.967   2.836  19.683  0.00  0.00    +0.000 C 
ATOM     17  C   UNL     1       1.505   3.703  18.537  0.00  0.00    +0.000 C 
ENDBRANCH   9  12
ENDBRANCH   7   9
ENDBRANCH   4   7
BRANCH   6  18
ATOM     18  C   UNL     1       6.933   4.945  13.601  0.00  0.00    +0.000 C 
BRANCH  18  19
ATOM     19  C   UNL     1       6.487   3.814  12.708  0.00  0.00    +0.000 A 
ATOM     20  C   UNL     1       5.125   3.618  12.439  0.00  0.00    +0.000 A 
ATOM     21  C   UNL     1       4.718   2.644  11.527  0.00  0.00    +0.000 A 
ATOM     22  C   UNL     1       5.668   1.861  10.873  0.00  0.00    +0.000 A 
ATOM     23  C   UNL     1       7.024   2.043  11.139  0.00  0.00    +0.000 A 
ATOM     24  C   UNL     1       7.434   3.015  12.055  0.00  0.00    +0.000 A 
ENDBRANCH  18  19
ENDBRANCH   6  18
TORSDOF 5
ENDMDL
MODEL 5
REMARK VINA RESULT:      -7.2      0.773      1.063
REMARK  Name = 
REMARK  5 active torsions:
REMARK  status: ('A' for Active; 'I' for Inactive)
REMARK    1  A    between atoms: C_4  and  N_5
REMARK    2  A    between atoms: N_5  and  S_6
REMARK    3  A    between atoms: S_6  and  N_9
REMARK    4  A    between atoms: N_16  and  C_17
REMARK    5  A    between atoms: C_17  and  C_18
REMARK                            x       y       z     vdW  Elec       q    Type
REMARK                         _______ _______ _______ _____ _____    ______ ____
ROOT
ATOM      1  O   UNL     1       5.237   6.887  15.052  0.00  0.00    +0.000 OA
ATOM      2  C   UNL     1       5.803   6.080  15.769  0.00  0.00    +0.000 C 
ATOM      3  C   UNL     1       5.767   6.067  17.268  0.00  0.00    +0.000 C 
ATOM      4  C   UNL     1       6.260   4.666  17.626  0.00  0.00    +0.000 C 
ATOM      5  C   UNL     1       7.239   4.371  16.481  0.00  0.00    +0.000 C 
ATOM      6  N   UNL     1       6.688   5.093  15.360  0.00  0.00    +0.000 N 
ENDROOT
BRANCH   4   7
ATOM      7  N   UNL     1       5.158   3.631  17.676  0.00  0.00    +0.000 NA
ATOM      8  H   UNL     1       5.547   2.705  17.476  0.00  0.00    +0.000 HD
BRANCH   7   9
ATOM      9  S   UNL     1       4.402   3.504  19.174  0.00  0.00    +0.000 S 
ATOM     10  O   UNL     1       4.910   2.294  19.775  0.00  0.00    +0.000 OA
ATOM     11  O   UNL     1       4.476   4.772  19.850  0.00  0.00    +0.000 OA
BRANCH   9  12
ATOM     12  N   UNL     1       2.806   3.234  18.720  0.00  0.00    +0.000 NA
ATOM     13  C   UNL     1       1.871   4.408  18.739  0.00  0.00    +0.000 C 
ATOM     14  C   UNL     1       1.387   4.758  20.155  0.00  0.00    +0.000 C 
ATOM     15  O   UNL     1       0.837   3.620  20.839  0.00  0.00    +0.000 OA
ATOM     16  C   UNL     1       1.787   2.549  20.904  0.00  0.00    +0.000 C 
ATOM     17  C   UNL     1       2.174   2.102  19.488  0.00  0.00    +0.000 C 
ENDBRANCH   9  12
ENDBRANCH   7   9
ENDBRANCH   4   7
BRANCH   6  18
ATOM     18  C   UNL     1       7.294   5.093  14.044  0.00  0.00    +0.000 C 
BRANCH  18  19
ATOM     19  C   UNL     1       6.605   4.177  13.065  0.00  0.00    +0.000 A 
ATOM     20  C   UNL     1       7.356   3.386  12.184  0.00  0.00    +0.000 A 
ATOM     21  C   UNL     1       6.726   2.457  11.355  0.00  0.00    +0.000 A 
ATOM     22  C   UNL     1       5.341   2.308  11.403  0.00  0.00    +0.000 A 
ATOM     23  C   UNL     1       4.584   3.095  12.268  0.00  0.00    +0.000 A 
ATOM     24  C   UNL     1       5.212   4.028  13.097  0.00  0.00    +0.000 A 
ENDBRANCH  18  19
ENDBRANCH   6  18
TORSDOF 5
ENDMDL
MODEL 6
REMARK VINA RESULT:      -7.2      1.304      2.216
REMARK  Name = 
REMARK  5 active torsions:
REMARK  status: ('A' for Active; 'I' for Inactive)
REMARK    1  A    between atoms: C_4  and  N_5
REMARK    2  A    between atoms: N_5  and  S_6
REMARK    3  A    between atoms: S_6  and  N_9
REMARK    4  A    between atoms: N_16  and  C_17
REMARK    5  A    between atoms: C_17  and  C_18
REMARK                            x       y       z     vdW  Elec       q    Type
REMARK                         _______ _______ _______ _____ _____    ______ ____
ROOT
ATOM      1  O   UNL     1       4.428   7.153  16.523  0.00  0.00    +0.000 OA
ATOM      2  C   UNL     1       4.804   6.236  17.233  0.00  0.00    +0.000 C 
ATOM      3  C   UNL     1       4.301   5.937  18.613  0.00  0.00    +0.000 C 
ATOM      4  C   UNL     1       4.769   4.504  18.862  0.00  0.00    +0.000 C 
ATOM      5  C   UNL     1       6.079   4.454  18.063  0.00  0.00    +0.000 C 
ATOM      6  N   UNL     1       5.850   5.365  16.967  0.00  0.00    +0.000 N 
ENDROOT
BRANCH   4   7
ATOM      7  N   UNL     1       3.796   3.456  18.372  0.00  0.00    +0.000 NA
ATOM      8  H   UNL     1       4.053   3.163  17.425  0.00  0.00    +0.000 HD
BRANCH   7   9
ATOM      9  S   UNL     1       3.772   2.053  19.301  0.00  0.00    +0.000 S 
ATOM     10  O   UNL     1       3.937   0.958  18.375  0.00  0.00    +0.000 OA
ATOM     11  O   UNL     1       4.642   2.221  20.434  0.00  0.00    +0.000 OA
BRANCH   9  12
ATOM     12  N   UNL     1       2.182   2.041  19.847  0.00  0.00    +0.000 NA
ATOM     13  C   UNL     1       1.156   2.750  19.011  0.00  0.00    +0.000 C 
ATOM     14  C   UNL     1       1.188   4.275  19.199  0.00  0.00    +0.000 C 
ATOM     15  O   UNL     1       1.109   4.654  20.582  0.00  0.00    +0.000 OA
ATOM     16  C   UNL     1       2.165   4.051  21.343  0.00  0.00    +0.000 C 
ATOM     17  C   UNL     1       2.058   2.523  21.269  0.00  0.00    +0.000 C 
ENDBRANCH   9  12
ENDBRANCH   7   9
ENDBRANCH   4   7
BRANCH   6  18
ATOM     18  C   UNL     1       6.836   5.629  15.939  0.00  0.00    +0.000 C 
BRANCH  18  19
ATOM     19  C   UNL     1       6.595   4.862  14.663  0.00  0.00    +0.000 A 
ATOM     20  C   UNL     1       5.394   4.165  14.470  0.00  0.00    +0.000 A 
ATOM     21  C   UNL     1       5.122   3.549  13.249  0.00  0.00    +0.000 A 
ATOM     22  C   UNL     1       6.046   3.626  12.209  0.00  0.00    +0.000 A 
ATOM     23  C   UNL     1       7.247   4.309  12.392  0.00  0.00    +0.000 A 
ATOM     24  C   UNL     1       7.523   4.925  13.615  0.00  0.00    +0.000 A 
ENDBRANCH  18  19
ENDBRANCH   6  18
TORSDOF 5
ENDMDL
MODEL 7
REMARK VINA RESULT:      -7.2      1.000      1.188
REMARK  Name = 
REMARK  5 active torsions:
REMARK  status: ('A' for Active; 'I' for Inactive)
REMARK    1  A    between atoms: C_4  and  N_5
REMARK    2  A    between atoms: N_5  and  S_6
REMARK    3  A    between atoms: S_6  and  N_9
REMARK    4  A    between atoms: N_16  and  C_17
REMARK    5  A    between atoms: C_17  and  C_18
REMARK                            x       y       z     vdW  Elec       q    Type
REMARK                         _______ _______ _______ _____ _____    ______ ____
ROOT
ATOM      1  O   UNL     1       5.236   6.996  16.015  0.00  0.00    +0.000 OA
ATOM      2  C   UNL     1       5.693   6.107  16.712  0.00  0.00    +0.000 C 
ATOM      3  C   UNL     1       5.356   5.867  18.153  0.00  0.00    +0.000 C 
ATOM      4  C   UNL     1       5.850   4.443  18.404  0.00  0.00    +0.000 C 
ATOM      5  C   UNL     1       7.057   4.354  17.459  0.00  0.00    +0.000 C 
ATOM      6  N   UNL     1       6.701   5.221  16.361  0.00  0.00    +0.000 N 
ENDROOT
BRANCH   4   7
ATOM      7  N   UNL     1       4.826   3.380  18.076  0.00  0.00    +0.000 NA
ATOM      8  H   UNL     1       5.269   2.633  17.533  0.00  0.00    +0.000 HD
BRANCH   7   9
ATOM      9  S   UNL     1       4.150   2.637  19.426  0.00  0.00    +0.000 S 
ATOM     10  O   UNL     1       3.328   1.563  18.920  0.00  0.00    +0.000 OA
ATOM     11  O   UNL     1       5.181   2.403  20.403  0.00  0.00    +0.000 OA
BRANCH   9  12
ATOM     12  N   UNL     1       3.135   3.848  20.000  0.00  0.00    +0.000 NA
ATOM     13  C   UNL     1       2.502   3.643  21.346  0.00  0.00    +0.000 C 
ATOM     14  C   UNL     1       1.300   2.687  21.297  0.00  0.00    +0.000 C 
ATOM     15  O   UNL     1       0.338   3.073  20.303  0.00  0.00    +0.000 OA
ATOM     16  C   UNL     1       0.942   3.157  19.005  0.00  0.00    +0.000 C 
ATOM     17  C   UNL     1       2.057   4.210  19.011  0.00  0.00    +0.000 C 
ENDBRANCH   9  12
ENDBRANCH   7   9
ENDBRANCH   4   7
BRANCH   6  18
ATOM     18  C   UNL     1       7.559   5.438  15.214  0.00  0.00    +0.000 C 
BRANCH  18  19
ATOM     19  C   UNL     1       7.042   4.803  13.948  0.00  0.00    +0.000 A 
ATOM     20  C   UNL     1       7.751   4.940  12.746  0.00  0.00    +0.000 A 
ATOM     21  C   UNL     1       7.335   4.262  11.599  0.00  0.00    +0.000 A 
ATOM     22  C   UNL     1       6.210   3.440  11.645  0.00  0.00    +0.000 A 
ATOM     23  C   UNL     1       5.494   3.304  12.833  0.00  0.00    +0.000 A 
ATOM     24  C   UNL     1       5.906   3.984  13.982  0.00  0.00    +0.000 A 
ENDBRANCH  18  19
ENDBRANCH   6  18
TORSDOF 5
ENDMDL
MODEL 8
REMARK VINA RESULT:      -7.2      1.084      1.633
REMARK  Name = 
REMARK  5 active torsions:
REMARK  status: ('A' for Active; 'I' for Inactive)
REMARK    1  A    between atoms: C_4  and  N_5
REMARK    2  A    between atoms: N_5  and  S_6
REMARK    3  A    between atoms: S_6  and  N_9
REMARK    4  A    between atoms: N_16  and  C_17
REMARK    5  A    between atoms: C_17  and  C_18
REMARK                            x       y       z     vdW  Elec       q    Type
REMARK                         _______ _______ _______ _____ _____    ______ ____
ROOT
ATOM      1  O   UNL     1       5.131   6.912  15.062  0.00  0.00    +0.000 OA
ATOM      2  C   UNL     1       5.685   6.108  15.792  0.00  0.00    +0.000 C 
ATOM      3  C   UNL     1       5.617   6.097  17.290  0.00  0.00    +0.000 C 
ATOM      4  C   UNL     1       6.108   4.699  17.661  0.00  0.00    +0.000 C 
ATOM      5  C   UNL     1       7.114   4.407  16.538  0.00  0.00    +0.000 C 
ATOM      6  N   UNL     1       6.584   5.125  15.404  0.00  0.00    +0.000 N 
ENDROOT
BRANCH   4   7
ATOM      7  N   UNL     1       5.011   3.659  17.688  0.00  0.00    +0.000 NA
ATOM      8  H   UNL     1       5.363   2.799  18.118  0.00  0.00    +0.000 HD
BRANCH   7   9
ATOM      9  S   UNL     1       3.661   4.108  18.587  0.00  0.00    +0.000 S 
ATOM     10  O   UNL     1       4.159   4.902  19.686  0.00  0.00    +0.000 OA
ATOM     11  O   UNL     1       2.644   4.604  17.697  0.00  0.00    +0.000 OA
BRANCH   9  12
ATOM     12  N   UNL     1       3.159   2.625  19.198  0.00  0.00    +0.000 NA
ATOM     13  C   UNL     1       1.755   2.187  18.891  0.00  0.00    +0.000 C 
ATOM     14  C   UNL     1       0.710   2.883  19.778  0.00  0.00    +0.000 C 
ATOM     15  O   UNL     1       1.017   2.765  21.176  0.00  0.00    +0.000 OA
ATOM     16  C   UNL     1       2.321   3.289  21.463  0.00  0.00    +0.000 C 
ATOM     17  C   UNL     1       3.386   2.508  20.683  0.00  0.00    +0.000 C 
ENDBRANCH   9  12
ENDBRANCH   7   9
ENDBRANCH   4   7
BRANCH   6  18
ATOM     18  C   UNL     1       7.218   5.127  14.101  0.00  0.00    +0.000 C 
BRANCH  18  19
ATOM     19  C   UNL     1       6.555   4.206  13.108  0.00  0.00    +0.000 A 
ATOM     20  C   UNL     1       7.328   3.440  12.224  0.00  0.00    +0.000 A 
ATOM     21  C   UNL     1       6.723   2.507  11.382  0.00  0.00    +0.000 A 
ATOM     22  C   UNL     1       5.341   2.328  11.420  0.00  0.00    +0.000 A 
ATOM     23  C   UNL     1       4.563   3.089  12.289  0.00  0.00    +0.000 A 
ATOM     24  C   UNL     1       5.165   4.027  13.131  0.00  0.00    +0.000 A 
ENDBRANCH  18  19
ENDBRANCH   6  18
TORSDOF 5
ENDMDL
MODEL 9
REMARK VINA RESULT:      -7.1      1.438      1.653
REMARK  Name = 
REMARK  5 active torsions:
REMARK  status: ('A' for Active; 'I' for Inactive)
REMARK    1  A    between atoms: C_4  and  N_5
REMARK    2  A    between atoms: N_5  and  S_6
REMARK    3  A    between atoms: S_6  and  N_9
REMARK    4  A    between atoms: N_16  and  C_17
REMARK    5  A    between atoms: C_17  and  C_18
REMARK                            x       y       z     vdW  Elec       q    Type
REMARK                         _______ _______ _______ _____ _____    ______ ____
ROOT
ATOM      1  O   UNL     1       7.563   6.566  16.193  0.00  0.00    +0.000 OA
ATOM      2  C   UNL     1       6.878   5.559  16.264  0.00  0.00    +0.000 C 
ATOM      3  C   UNL     1       6.405   4.913  17.532  0.00  0.00    +0.000 C 
ATOM      4  C   UNL     1       5.285   3.985  17.065  0.00  0.00    +0.000 C 
ATOM      5  C   UNL     1       5.768   3.586  15.663  0.00  0.00    +0.000 C 
ATOM      6  N   UNL     1       6.506   4.740  15.209  0.00  0.00    +0.000 N 
ENDROOT
BRANCH   4   7
ATOM      7  N   UNL     1       3.931   4.654  17.000  0.00  0.00    +0.000 NA
ATOM      8  H   UNL     1       3.622   4.711  16.025  0.00  0.00    +0.000 HD
BRANCH   7   9
ATOM      9  S   UNL     1       2.717   3.832  17.825  0.00  0.00    +0.000 S 
ATOM     10  O   UNL     1       1.513   4.605  17.638  0.00  0.00    +0.000 OA
ATOM     11  O   UNL     1       2.778   2.435  17.485  0.00  0.00    +0.000 OA
BRANCH   9  12
ATOM     12  N   UNL     1       3.216   4.015  19.420  0.00  0.00    +0.000 NA
ATOM     13  C   UNL     1       3.325   2.776  20.260  0.00  0.00    +0.000 C 
ATOM     14  C   UNL     1       1.961   2.279  20.765  0.00  0.00    +0.000 C 
ATOM     15  O   UNL     1       1.216   3.313  21.427  0.00  0.00    +0.000 OA
ATOM     16  C   UNL     1       1.030   4.445  20.567  0.00  0.00    +0.000 C 
ATOM     17  C   UNL     1       2.390   5.031  20.167  0.00  0.00    +0.000 C 
ENDBRANCH   9  12
ENDBRANCH   7   9
ENDBRANCH   4   7
BRANCH   6  18
ATOM     18  C   UNL     1       7.144   4.811  13.910  0.00  0.00    +0.000 C 
BRANCH  18  19
ATOM     19  C   UNL     1       6.484   3.943  12.868  0.00  0.00    +0.000 A 
ATOM     20  C   UNL     1       7.228   2.978  12.174  0.00  0.00    +0.000 A 
ATOM     21  C   UNL     1       6.599   2.101  11.291  0.00  0.00    +0.000 A 
ATOM     22  C   UNL     1       5.220   2.176  11.098  0.00  0.00    +0.000 A 
ATOM     23  C   UNL     1       4.473   3.137  11.777  0.00  0.00    +0.000 A 
ATOM     24  C   UNL     1       5.101   4.019  12.659  0.00  0.00    +0.000 A 
ENDBRANCH  18  19
ENDBRANCH   6  18
TORSDOF 5
ENDMDL
