MODEL 1
REMARK VINA RESULT:      -6.3      0.000      0.000
REMARK  Name = 
REMARK  4 active torsions:
REMARK  status: ('A' for Active; 'I' for Inactive)
REMARK    1  A    between atoms: C_2  and  OXT_3
REMARK    2  A    between atoms: C_2  and  CA_4
REMARK    3  A    between atoms: N_12  and  C_13
REMARK    4  A    between atoms: N_20  and  C_21
REMARK                            x       y       z     vdW  Elec       q    Type
REMARK                         _______ _______ _______ _____ _____    ______ ____
ROOT
ATOM      1  CA  UNL     1       8.894  16.249  18.485  0.00  0.00    +0.000 A 
ATOM      2  N   UNL     1       9.933  16.126  17.697  0.00  0.00    +0.000 NA
ATOM      3  C   UNL     1      10.614  14.882  17.850  0.00  0.00    +0.000 A 
ATOM      4  C   UNL     1      11.290  14.341  16.760  0.00  0.00    +0.000 A 
ATOM      5  C   UNL     1      11.930  13.108  16.878  0.00  0.00    +0.000 A 
ATOM      6  C   UNL     1      11.984  12.458  18.112  0.00  0.00    +0.000 A 
ATOM      7  C   UNL     1      11.346  13.003  19.231  0.00  0.00    +0.000 A 
ATOM      8  C   UNL     1      10.574  14.155  19.085  0.00  0.00    +0.000 A 
ATOM      9  N   UNL     1       9.538  14.532  20.022  0.00  0.00    +0.000 N 
ATOM     10  C   UNL     1       8.479  15.087  19.317  0.00  0.00    +0.000 A 
ATOM     11  O   UNL     1       7.384  14.609  19.072  0.00  0.00    +0.000 OA
ENDROOT
BRANCH   9  12
ATOM     12  C   UNL     1       9.381  13.885  21.350  0.00  0.00    +0.000 C 
ATOM     13  C   UNL     1       8.139  12.994  21.545  0.00  0.00    +0.000 C 
ATOM     14  C   UNL     1       7.065  13.521  22.510  0.00  0.00    +0.000 C 
ATOM     15  C   UNL     1       6.417  14.814  22.019  0.00  0.00    +0.000 C 
ATOM     16  C   UNL     1       7.296  15.926  22.603  0.00  0.00    +0.000 C 
ATOM     17  C   UNL     1       8.369  15.187  23.394  0.00  0.00    +0.000 C 
ATOM     18  C   UNL     1       9.617  14.852  22.545  0.00  0.00    +0.000 C 
ATOM     19  N   UNL     1       7.609  13.995  23.781  0.00  0.00    +0.000 NA
BRANCH  19  20
ATOM     20  C   UNL     1       8.240  13.038  24.688  0.00  0.00    +0.000 C 
ATOM     21  C   UNL     1       7.477  11.735  24.754  0.00  0.00    +0.000 C 
ATOM     22  C   UNL     1       6.405  11.394  25.488  0.00  0.00    +0.000 C 
ATOM     23  C   UNL     1       5.612  12.246  26.428  0.00  0.00    +0.000 C 
ATOM     24  C   UNL     1       6.391  13.073  27.442  0.00  0.00    +0.000 C 
ATOM     25  C   UNL     1       7.282  14.159  26.852  0.00  0.00    +0.000 C 
ATOM     26  C   UNL     1       8.500  13.628  26.092  0.00  0.00    +0.000 C 
ENDBRANCH  19  20
ENDBRANCH   9  12
BRANCH   1  28
ATOM     27  O   UNL     1       8.646  18.626  18.497  0.00  0.00    +0.000 OA
ATOM     28  C   UNL     1       8.112  17.533  18.543  0.00  0.00    +0.000 C 
BRANCH  28  29
ATOM     29  OXT UNL     1       6.774  17.315  18.598  0.00  0.00    +0.000 OA
ATOM     30  HXT UNL     1       6.399  17.876  19.310  0.00  0.00    +0.000 HD
ENDBRANCH  28  29
ENDBRANCH   1  28
TORSDOF 4
ENDMDL
MODEL 2
REMARK VINA RESULT:      -6.2      9.460     11.526
REMARK  Name = 
REMARK  4 active torsions:
REMARK  status: ('A' for Active; 'I' for Inactive)
REMARK    1  A    between atoms: C_2  and  OXT_3
REMARK    2  A    between atoms: C_2  and  CA_4
REMARK    3  A    between atoms: N_12  and  C_13
REMARK    4  A    between atoms: N_20  and  C_21
REMARK                            x       y       z     vdW  Elec       q    Type
REMARK                         _______ _______ _______ _____ _____    ______ ____
ROOT
ATOM      1  CA  UNL     1      -0.304  10.721  18.338  0.00  0.00    +0.000 A 
ATOM      2  N   UNL     1      -1.075   9.931  17.632  0.00  0.00    +0.000 NA
ATOM      3  C   UNL     1      -2.366  10.482  17.378  0.00  0.00    +0.000 A 
ATOM      4  C   UNL     1      -3.041  10.118  16.216  0.00  0.00    +0.000 A 
ATOM      5  C   UNL     1      -4.287  10.674  15.930  0.00  0.00    +0.000 A 
ATOM      6  C   UNL     1      -4.909  11.518  16.851  0.00  0.00    +0.000 A 
ATOM      7  C   UNL     1      -4.267  11.867  18.043  0.00  0.00    +0.000 A 
ATOM      8  C   UNL     1      -2.958  11.440  18.266  0.00  0.00    +0.000 A 
ATOM      9  N   UNL     1      -2.067  12.090  19.200  0.00  0.00    +0.000 N 
ATOM     10  C   UNL     1      -0.784  12.090  18.669  0.00  0.00    +0.000 A 
ATOM     11  O   UNL     1      -0.149  13.016  18.193  0.00  0.00    +0.000 OA
ENDROOT
BRANCH   9  12
ATOM     12  C   UNL     1      -2.534  13.090  20.195  0.00  0.00    +0.000 C 
ATOM     13  C   UNL     1      -1.646  14.332  20.400  0.00  0.00    +0.000 C 
ATOM     14  C   UNL     1      -0.921  14.436  21.752  0.00  0.00    +0.000 C 
ATOM     15  C   UNL     1       0.097  13.317  21.961  0.00  0.00    +0.000 C 
ATOM     16  C   UNL     1      -0.705  12.194  22.631  0.00  0.00    +0.000 C 
ATOM     17  C   UNL     1      -2.113  12.761  22.767  0.00  0.00    +0.000 C 
ATOM     18  C   UNL     1      -3.002  12.460  21.538  0.00  0.00    +0.000 C 
ATOM     19  N   UNL     1      -1.791  14.185  22.899  0.00  0.00    +0.000 NA
BRANCH  19  20
ATOM     20  C   UNL     1      -2.881  15.116  23.185  0.00  0.00    +0.000 C 
ATOM     21  C   UNL     1      -2.560  16.519  22.726  0.00  0.00    +0.000 C 
ATOM     22  C   UNL     1      -1.860  17.491  23.334  0.00  0.00    +0.000 C 
ATOM     23  C   UNL     1      -1.138  17.438  24.644  0.00  0.00    +0.000 C 
ATOM     24  C   UNL     1      -1.893  16.855  25.830  0.00  0.00    +0.000 C 
ATOM     25  C   UNL     1      -2.255  15.380  25.713  0.00  0.00    +0.000 C 
ATOM     26  C   UNL     1      -3.326  15.078  24.663  0.00  0.00    +0.000 C 
ENDBRANCH  19  20
ENDBRANCH   9  12
BRANCH   1  28
ATOM     27  O   UNL     1       1.209   9.480  19.711  0.00  0.00    +0.000 OA
ATOM     28  C   UNL     1       1.056  10.270  18.796  0.00  0.00    +0.000 C 
BRANCH  28  29
ATOM     29  OXT UNL     1       2.052  10.803  18.046  0.00  0.00    +0.000 OA
ATOM     30  HXT UNL     1       2.671  10.084  17.797  0.00  0.00    +0.000 HD
ENDBRANCH  28  29
ENDBRANCH   1  28
TORSDOF 4
ENDMDL
MODEL 3
REMARK VINA RESULT:      -6.2      9.776     11.888
REMARK  Name = 
REMARK  4 active torsions:
REMARK  status: ('A' for Active; 'I' for Inactive)
REMARK    1  A    between atoms: C_2  and  OXT_3
REMARK    2  A    between atoms: C_2  and  CA_4
REMARK    3  A    between atoms: N_12  and  C_13
REMARK    4  A    between atoms: N_20  and  C_21
REMARK                            x       y       z     vdW  Elec       q    Type
REMARK                         _______ _______ _______ _____ _____    ______ ____
ROOT
ATOM      1  CA  UNL     1      -0.512  12.330  19.371  0.00  0.00    +0.000 A 
ATOM      2  N   UNL     1       0.435  11.515  19.762  0.00  0.00    +0.000 NA
ATOM      3  C   UNL     1       0.118  10.816  20.965  0.00  0.00    +0.000 A 
ATOM      4  C   UNL     1       0.660   9.552  21.177  0.00  0.00    +0.000 A 
ATOM      5  C   UNL     1       0.332   8.836  22.327  0.00  0.00    +0.000 A 
ATOM      6  C   UNL     1      -0.458   9.421  23.319  0.00  0.00    +0.000 A 
ATOM      7  C   UNL     1      -0.982  10.706  23.145  0.00  0.00    +0.000 A 
ATOM      8  C   UNL     1      -0.786  11.366  21.932  0.00  0.00    +0.000 A 
ATOM      9  N   UNL     1      -1.631  12.451  21.483  0.00  0.00    +0.000 N 
ATOM     10  C   UNL     1      -1.804  12.343  20.110  0.00  0.00    +0.000 A 
ATOM     11  O   UNL     1      -2.788  11.985  19.485  0.00  0.00    +0.000 OA
ENDROOT
BRANCH   9  12
ATOM     12  C   UNL     1      -2.603  13.136  22.373  0.00  0.00    +0.000 C 
ATOM     13  C   UNL     1      -3.908  13.634  21.722  0.00  0.00    +0.000 C 
ATOM     14  C   UNL     1      -4.077  15.158  21.613  0.00  0.00    +0.000 C 
ATOM     15  C   UNL     1      -3.036  15.801  20.699  0.00  0.00    +0.000 C 
ATOM     16  C   UNL     1      -1.864  16.133  21.630  0.00  0.00    +0.000 C 
ATOM     17  C   UNL     1      -2.329  15.670  23.006  0.00  0.00    +0.000 C 
ATOM     18  C   UNL     1      -1.953  14.200  23.303  0.00  0.00    +0.000 C 
ATOM     19  N   UNL     1      -3.774  15.867  22.854  0.00  0.00    +0.000 NA
BRANCH  19  20
ATOM     20  C   UNL     1      -4.626  15.656  24.023  0.00  0.00    +0.000 C 
ATOM     21  C   UNL     1      -6.092  15.628  23.655  0.00  0.00    +0.000 C 
ATOM     22  C   UNL     1      -6.959  16.638  23.475  0.00  0.00    +0.000 C 
ATOM     23  C   UNL     1      -6.699  18.110  23.535  0.00  0.00    +0.000 C 
ATOM     24  C   UNL     1      -5.914  18.629  24.732  0.00  0.00    +0.000 C 
ATOM     25  C   UNL     1      -4.473  18.141  24.829  0.00  0.00    +0.000 C 
ATOM     26  C   UNL     1      -4.334  16.655  25.163  0.00  0.00    +0.000 C 
ENDBRANCH  19  20
ENDBRANCH   9  12
BRANCH   1  28
ATOM     27  O   UNL     1       0.479  14.154  18.185  0.00  0.00    +0.000 OA
ATOM     28  C   UNL     1      -0.317  13.232  18.182  0.00  0.00    +0.000 C 
BRANCH  28  29
ATOM     29  OXT UNL     1      -1.082  12.860  17.127  0.00  0.00    +0.000 OA
ATOM     30  HXT UNL     1      -1.724  13.578  16.942  0.00  0.00    +0.000 HD
ENDBRANCH  28  29
ENDBRANCH   1  28
TORSDOF 4
ENDMDL
MODEL 4
REMARK VINA RESULT:      -6.2     10.070     12.194
REMARK  Name = 
REMARK  4 active torsions:
REMARK  status: ('A' for Active; 'I' for Inactive)
REMARK    1  A    between atoms: C_2  and  OXT_3
REMARK    2  A    between atoms: C_2  and  CA_4
REMARK    3  A    between atoms: N_12  and  C_13
REMARK    4  A    between atoms: N_20  and  C_21
REMARK                            x       y       z     vdW  Elec       q    Type
REMARK                         _______ _______ _______ _____ _____    ______ ____
ROOT
ATOM      1  CA  UNL     1      -0.435  10.621  19.731  0.00  0.00    +0.000 A 
ATOM      2  N   UNL     1      -0.924   9.749  18.886  0.00  0.00    +0.000 NA
ATOM      3  C   UNL     1      -1.990  10.268  18.092  0.00  0.00    +0.000 A 
ATOM      4  C   UNL     1      -2.194   9.756  16.814  0.00  0.00    +0.000 A 
ATOM      5  C   UNL     1      -3.206  10.276  16.008  0.00  0.00    +0.000 A 
ATOM      6  C   UNL     1      -4.082  11.239  16.511  0.00  0.00    +0.000 A 
ATOM      7  C   UNL     1      -3.921  11.740  17.806  0.00  0.00    +0.000 A 
ATOM      8  C   UNL     1      -2.820  11.338  18.563  0.00  0.00    +0.000 A 
ATOM      9  N   UNL     1      -2.314  12.103  19.682  0.00  0.00    +0.000 N 
ATOM     10  C   UNL     1      -0.928  12.025  19.685  0.00  0.00    +0.000 A 
ATOM     11  O   UNL     1      -0.109  12.876  19.380  0.00  0.00    +0.000 OA
ENDROOT
BRANCH   9  12
ATOM     12  C   UNL     1      -3.066  13.228  20.293  0.00  0.00    +0.000 C 
ATOM     13  C   UNL     1      -2.238  14.433  20.779  0.00  0.00    +0.000 C 
ATOM     14  C   UNL     1      -2.165  14.641  22.301  0.00  0.00    +0.000 C 
ATOM     15  C   UNL     1      -1.454  13.496  23.018  0.00  0.00    +0.000 C 
ATOM     16  C   UNL     1      -2.573  12.498  23.343  0.00  0.00    +0.000 C 
ATOM     17  C   UNL     1      -3.837  13.155  22.803  0.00  0.00    +0.000 C 
ATOM     18  C   UNL     1      -4.130  12.774  21.333  0.00  0.00    +0.000 C 
ATOM     19  N   UNL     1      -3.467  14.565  22.961  0.00  0.00    +0.000 NA
BRANCH  19  20
ATOM     20  C   UNL     1      -4.476  15.580  22.668  0.00  0.00    +0.000 C 
ATOM     21  C   UNL     1      -3.899  16.745  21.897  0.00  0.00    +0.000 C 
ATOM     22  C   UNL     1      -3.242  17.832  22.333  0.00  0.00    +0.000 C 
ATOM     23  C   UNL     1      -2.840  18.179  23.732  0.00  0.00    +0.000 C 
ATOM     24  C   UNL     1      -3.903  18.044  24.814  0.00  0.00    +0.000 C 
ATOM     25  C   UNL     1      -4.401  16.627  25.066  0.00  0.00    +0.000 C 
ATOM     26  C   UNL     1      -5.240  16.043  23.928  0.00  0.00    +0.000 C 
ENDBRANCH  19  20
ENDBRANCH   9  12
BRANCH   1  28
ATOM     27  O   UNL     1       1.122   9.117  20.745  0.00  0.00    +0.000 OA
ATOM     28  C   UNL     1       0.622  10.227  20.726  0.00  0.00    +0.000 C 
BRANCH  28  29
ATOM     29  OXT UNL     1       0.970  11.257  21.538  0.00  0.00    +0.000 OA
ATOM     30  HXT UNL     1       0.597  12.084  21.166  0.00  0.00    +0.000 HD
ENDBRANCH  28  29
ENDBRANCH   1  28
TORSDOF 4
ENDMDL
MODEL 5
REMARK VINA RESULT:      -6.1      9.664     11.923
REMARK  Name = 
REMARK  4 active torsions:
REMARK  status: ('A' for Active; 'I' for Inactive)
REMARK    1  A    between atoms: C_2  and  OXT_3
REMARK    2  A    between atoms: C_2  and  CA_4
REMARK    3  A    between atoms: N_12  and  C_13
REMARK    4  A    between atoms: N_20  and  C_21
REMARK                            x       y       z     vdW  Elec       q    Type
REMARK                         _______ _______ _______ _____ _____    ______ ____
ROOT
ATOM      1  CA  UNL     1       0.211  10.148  21.427  0.00  0.00    +0.000 A 
ATOM      2  N   UNL     1      -0.351   9.423  20.492  0.00  0.00    +0.000 NA
ATOM      3  C   UNL     1      -0.967  10.202  19.467  0.00  0.00    +0.000 A 
ATOM      4  C   UNL     1      -1.049   9.683  18.178  0.00  0.00    +0.000 A 
ATOM      5  C   UNL     1      -1.612  10.443  17.155  0.00  0.00    +0.000 A 
ATOM      6  C   UNL     1      -2.187  11.684  17.434  0.00  0.00    +0.000 A 
ATOM      7  C   UNL     1      -2.152  12.209  18.730  0.00  0.00    +0.000 A 
ATOM      8  C   UNL     1      -1.455  11.525  19.726  0.00  0.00    +0.000 A 
ATOM      9  N   UNL     1      -0.975  12.166  20.931  0.00  0.00    +0.000 N 
ATOM     10  C   UNL     1       0.260  11.626  21.263  0.00  0.00    +0.000 A 
ATOM     11  O   UNL     1       1.369  12.122  21.158  0.00  0.00    +0.000 OA
ENDROOT
BRANCH   9  12
ATOM     12  C   UNL     1      -1.405  13.526  21.344  0.00  0.00    +0.000 C 
ATOM     13  C   UNL     1      -1.216  13.893  22.829  0.00  0.00    +0.000 C 
ATOM     14  C   UNL     1      -2.499  14.051  23.661  0.00  0.00    +0.000 C 
ATOM     15  C   UNL     1      -3.284  12.747  23.785  0.00  0.00    +0.000 C 
ATOM     16  C   UNL     1      -4.228  12.755  22.576  0.00  0.00    +0.000 C 
ATOM     17  C   UNL     1      -3.922  14.067  21.864  0.00  0.00    +0.000 C 
ATOM     18  C   UNL     1      -2.807  13.928  20.802  0.00  0.00    +0.000 C 
ATOM     19  N   UNL     1      -3.513  14.879  23.014  0.00  0.00    +0.000 NA
BRANCH  19  20
ATOM     20  C   UNL     1      -3.242  16.299  22.795  0.00  0.00    +0.000 C 
ATOM     21  C   UNL     1      -2.782  16.987  24.059  0.00  0.00    +0.000 C 
ATOM     22  C   UNL     1      -3.495  17.502  25.074  0.00  0.00    +0.000 C 
ATOM     23  C   UNL     1      -4.979  17.491  25.269  0.00  0.00    +0.000 C 
ATOM     24  C   UNL     1      -5.839  17.909  24.084  0.00  0.00    +0.000 C 
ATOM     25  C   UNL     1      -5.764  16.994  22.868  0.00  0.00    +0.000 C 
ATOM     26  C   UNL     1      -4.424  17.037  22.131  0.00  0.00    +0.000 C 
ENDBRANCH  19  20
ENDBRANCH   9  12
BRANCH   1  28
ATOM     27  O   UNL     1       0.368   9.672  23.765  0.00  0.00    +0.000 OA
ATOM     28  C   UNL     1       0.818   9.506  22.645  0.00  0.00    +0.000 C 
BRANCH  28  29
ATOM     29  OXT UNL     1       1.866   8.704  22.332  0.00  0.00    +0.000 OA
ATOM     30  HXT UNL     1       2.696   9.199  22.499  0.00  0.00    +0.000 HD
ENDBRANCH  28  29
ENDBRANCH   1  28
TORSDOF 4
ENDMDL
MODEL 6
REMARK VINA RESULT:      -6.0     10.883     12.692
REMARK  Name = 
REMARK  4 active torsions:
REMARK  status: ('A' for Active; 'I' for Inactive)
REMARK    1  A    between atoms: C_2  and  OXT_3
REMARK    2  A    between atoms: C_2  and  CA_4
REMARK    3  A    between atoms: N_12  and  C_13
REMARK    4  A    between atoms: N_20  and  C_21
REMARK                            x       y       z     vdW  Elec       q    Type
REMARK                         _______ _______ _______ _____ _____    ______ ____
ROOT
ATOM      1  CA  UNL     1      -5.840  12.640  18.715  0.00  0.00    +0.000 A 
ATOM      2  N   UNL     1      -5.409  12.139  17.585  0.00  0.00    +0.000 NA
ATOM      3  C   UNL     1      -4.149  11.480  17.703  0.00  0.00    +0.000 A 
ATOM      4  C   UNL     1      -3.853  10.425  16.844  0.00  0.00    +0.000 A 
ATOM      5  C   UNL     1      -2.643   9.744  16.968  0.00  0.00    +0.000 A 
ATOM      6  C   UNL     1      -1.682  10.176  17.883  0.00  0.00    +0.000 A 
ATOM      7  C   UNL     1      -1.942  11.258  18.729  0.00  0.00    +0.000 A 
ATOM      8  C   UNL     1      -3.206  11.847  18.719  0.00  0.00    +0.000 A 
ATOM      9  N   UNL     1      -3.718  12.630  19.822  0.00  0.00    +0.000 N 
ATOM     10  C   UNL     1      -5.074  12.370  19.963  0.00  0.00    +0.000 A 
ATOM     11  O   UNL     1      -5.647  11.715  20.818  0.00  0.00    +0.000 OA
ENDROOT
BRANCH   9  12
ATOM     12  C   UNL     1      -2.861  13.102  20.940  0.00  0.00    +0.000 C 
ATOM     13  C   UNL     1      -3.542  13.277  22.310  0.00  0.00    +0.000 C 
ATOM     14  C   UNL     1      -3.701  14.721  22.815  0.00  0.00    +0.000 C 
ATOM     15  C   UNL     1      -4.621  15.555  21.928  0.00  0.00    +0.000 C 
ATOM     16  C   UNL     1      -3.686  16.168  20.878  0.00  0.00    +0.000 C 
ATOM     17  C   UNL     1      -2.303  15.650  21.253  0.00  0.00    +0.000 C 
ATOM     18  C   UNL     1      -1.956  14.310  20.562  0.00  0.00    +0.000 C 
ATOM     19  N   UNL     1      -2.478  15.513  22.702  0.00  0.00    +0.000 NA
BRANCH  19  20
ATOM     20  C   UNL     1      -1.314  15.147  23.506  0.00  0.00    +0.000 C 
ATOM     21  C   UNL     1      -1.666  14.983  24.967  0.00  0.00    +0.000 C 
ATOM     22  C   UNL     1      -1.779  15.902  25.940  0.00  0.00    +0.000 C 
ATOM     23  C   UNL     1      -1.637  17.388  25.837  0.00  0.00    +0.000 C 
ATOM     24  C   UNL     1      -0.422  17.921  25.091  0.00  0.00    +0.000 C 
ATOM     25  C   UNL     1      -0.370  17.586  23.605  0.00  0.00    +0.000 C 
ATOM     26  C   UNL     1      -0.122  16.107  23.303  0.00  0.00    +0.000 C 
ENDBRANCH  19  20
ENDBRANCH   9  12
BRANCH   1  28
ATOM     27  O   UNL     1      -7.875  13.532  17.833  0.00  0.00    +0.000 OA
ATOM     28  C   UNL     1      -7.098  13.463  18.769  0.00  0.00    +0.000 C 
BRANCH  28  29
ATOM     29  OXT UNL     1      -7.272  14.054  19.977  0.00  0.00    +0.000 OA
ATOM     30  HXT UNL     1      -6.497  13.843  20.539  0.00  0.00    +0.000 HD
ENDBRANCH  28  29
ENDBRANCH   1  28
TORSDOF 4
ENDMDL
MODEL 7
REMARK VINA RESULT:      -5.9     10.832     13.433
REMARK  Name = 
REMARK  4 active torsions:
REMARK  status: ('A' for Active; 'I' for Inactive)
REMARK    1  A    between atoms: C_2  and  OXT_3
REMARK    2  A    between atoms: C_2  and  CA_4
REMARK    3  A    between atoms: N_12  and  C_13
REMARK    4  A    between atoms: N_20  and  C_21
REMARK                            x       y       z     vdW  Elec       q    Type
REMARK                         _______ _______ _______ _____ _____    ______ ____
ROOT
ATOM      1  CA  UNL     1      -6.425  13.013  22.727  0.00  0.00    +0.000 A 
ATOM      2  N   UNL     1      -7.285  12.540  21.860  0.00  0.00    +0.000 NA
ATOM      3  C   UNL     1      -6.670  12.016  20.683  0.00  0.00    +0.000 A 
ATOM      4  C   UNL     1      -7.299  10.984  19.993  0.00  0.00    +0.000 A 
ATOM      5  C   UNL     1      -6.697  10.432  18.864  0.00  0.00    +0.000 A 
ATOM      6  C   UNL     1      -5.514  10.976  18.360  0.00  0.00    +0.000 A 
ATOM      7  C   UNL     1      -4.885  12.039  19.014  0.00  0.00    +0.000 A 
ATOM      8  C   UNL     1      -5.398  12.495  20.229  0.00  0.00    +0.000 A 
ATOM      9  N   UNL     1      -4.608  13.239  21.186  0.00  0.00    +0.000 N 
ATOM     10  C   UNL     1      -4.969  12.843  22.466  0.00  0.00    +0.000 A 
ATOM     11  O   UNL     1      -4.356  12.146  23.258  0.00  0.00    +0.000 OA
ENDROOT
BRANCH   9  12
ATOM     12  C   UNL     1      -3.279  13.814  20.858  0.00  0.00    +0.000 C 
ATOM     13  C   UNL     1      -2.062  13.206  21.581  0.00  0.00    +0.000 C 
ATOM     14  C   UNL     1      -1.362  14.106  22.613  0.00  0.00    +0.000 C 
ATOM     15  C   UNL     1      -2.260  14.448  23.799  0.00  0.00    +0.000 C 
ATOM     16  C   UNL     1      -2.983  15.731  23.372  0.00  0.00    +0.000 C 
ATOM     17  C   UNL     1      -2.433  16.032  21.983  0.00  0.00    +0.000 C 
ATOM     18  C   UNL     1      -3.258  15.370  20.855  0.00  0.00    +0.000 C 
ATOM     19  N   UNL     1      -1.093  15.455  22.120  0.00  0.00    +0.000 NA
BRANCH  19  20
ATOM     20  C   UNL     1      -0.147  15.638  21.022  0.00  0.00    +0.000 C 
ATOM     21  C   UNL     1       1.160  14.923  21.277  0.00  0.00    +0.000 C 
ATOM     22  C   UNL     1       2.236  15.309  21.982  0.00  0.00    +0.000 C 
ATOM     23  C   UNL     1       2.428  16.563  22.776  0.00  0.00    +0.000 C 
ATOM     24  C   UNL     1       2.049  17.876  22.105  0.00  0.00    +0.000 C 
ATOM     25  C   UNL     1       0.570  18.039  21.779  0.00  0.00    +0.000 C 
ATOM     26  C   UNL     1       0.068  17.124  20.660  0.00  0.00    +0.000 C 
ENDBRANCH  19  20
ENDBRANCH   9  12
BRANCH   1  28
ATOM     27  O   UNL     1      -7.911  13.387  24.562  0.00  0.00    +0.000 OA
ATOM     28  C   UNL     1      -6.888  13.703  23.981  0.00  0.00    +0.000 C 
BRANCH  28  29
ATOM     29  OXT UNL     1      -6.016  14.656  24.393  0.00  0.00    +0.000 OA
ATOM     30  HXT UNL     1      -6.360  15.054  25.221  0.00  0.00    +0.000 HD
ENDBRANCH  28  29
ENDBRANCH   1  28
TORSDOF 4
ENDMDL
MODEL 8
REMARK VINA RESULT:      -5.9      1.162      1.628
REMARK  Name = 
REMARK  4 active torsions:
REMARK  status: ('A' for Active; 'I' for Inactive)
REMARK    1  A    between atoms: C_2  and  OXT_3
REMARK    2  A    between atoms: C_2  and  CA_4
REMARK    3  A    between atoms: N_12  and  C_13
REMARK    4  A    between atoms: N_20  and  C_21
REMARK                            x       y       z     vdW  Elec       q    Type
REMARK                         _______ _______ _______ _____ _____    ______ ____
ROOT
ATOM      1  CA  UNL     1       8.954  15.931  18.353  0.00  0.00    +0.000 A 
ATOM      2  N   UNL     1      10.025  15.421  17.799  0.00  0.00    +0.000 NA
ATOM      3  C   UNL     1      10.225  14.045  18.118  0.00  0.00    +0.000 A 
ATOM      4  C   UNL     1      10.880  13.226  17.203  0.00  0.00    +0.000 A 
ATOM      5  C   UNL     1      11.052  11.870  17.479  0.00  0.00    +0.000 A 
ATOM      6  C   UNL     1      10.660  11.347  18.712  0.00  0.00    +0.000 A 
ATOM      7  C   UNL     1      10.035  12.160  19.663  0.00  0.00    +0.000 A 
ATOM      8  C   UNL     1       9.721  13.479  19.335  0.00  0.00    +0.000 A 
ATOM      9  N   UNL     1       8.707  14.242  20.029  0.00  0.00    +0.000 N 
ATOM     10  C   UNL     1       8.036  15.036  19.109  0.00  0.00    +0.000 A 
ATOM     11  O   UNL     1       6.912  14.904  18.655  0.00  0.00    +0.000 OA
ENDROOT
BRANCH   9  12
ATOM     12  C   UNL     1       8.102  13.796  21.311  0.00  0.00    +0.000 C 
ATOM     13  C   UNL     1       6.837  14.541  21.777  0.00  0.00    +0.000 C 
ATOM     14  C   UNL     1       6.988  15.429  23.023  0.00  0.00    +0.000 C 
ATOM     15  C   UNL     1       7.944  16.599  22.799  0.00  0.00    +0.000 C 
ATOM     16  C   UNL     1       9.319  16.046  23.191  0.00  0.00    +0.000 C 
ATOM     17  C   UNL     1       9.044  14.611  23.624  0.00  0.00    +0.000 C 
ATOM     18  C   UNL     1       9.139  13.604  22.455  0.00  0.00    +0.000 C 
ATOM     19  N   UNL     1       7.676  14.767  24.129  0.00  0.00    +0.000 NA
BRANCH  19  20
ATOM     20  C   UNL     1       7.045  13.619  24.777  0.00  0.00    +0.000 C 
ATOM     21  C   UNL     1       5.675  13.959  25.318  0.00  0.00    +0.000 C 
ATOM     22  C   UNL     1       5.320  14.535  26.478  0.00  0.00    +0.000 C 
ATOM     23  C   UNL     1       6.203  15.065  27.563  0.00  0.00    +0.000 C 
ATOM     24  C   UNL     1       7.339  14.168  28.035  0.00  0.00    +0.000 C 
ATOM     25  C   UNL     1       8.412  13.871  26.995  0.00  0.00    +0.000 C 
ATOM     26  C   UNL     1       7.946  12.970  25.850  0.00  0.00    +0.000 C 
ENDBRANCH  19  20
ENDBRANCH   9  12
BRANCH   1  28
ATOM     27  O   UNL     1       9.440  18.204  17.794  0.00  0.00    +0.000 OA
ATOM     28  C   UNL     1       8.635  17.396  18.219  0.00  0.00    +0.000 C 
BRANCH  28  29
ATOM     29  OXT UNL     1       7.356  17.675  18.575  0.00  0.00    +0.000 OA
ATOM     30  HXT UNL     1       6.807  16.880  18.406  0.00  0.00    +0.000 HD
ENDBRANCH  28  29
ENDBRANCH   1  28
TORSDOF 4
ENDMDL
MODEL 9
REMARK VINA RESULT:      -5.8      9.363     11.492
REMARK  Name = 
REMARK  4 active torsions:
REMARK  status: ('A' for Active; 'I' for Inactive)
REMARK    1  A    between atoms: C_2  and  OXT_3
REMARK    2  A    between atoms: C_2  and  CA_4
REMARK    3  A    between atoms: N_12  and  C_13
REMARK    4  A    between atoms: N_20  and  C_21
REMARK                            x       y       z     vdW  Elec       q    Type
REMARK                         _______ _______ _______ _____ _____    ______ ____
ROOT
ATOM      1  CA  UNL     1      -0.592  11.240  18.581  0.00  0.00    +0.000 A 
ATOM      2  N   UNL     1      -1.408  10.493  17.880  0.00  0.00    +0.000 NA
ATOM      3  C   UNL     1      -2.743  10.996  17.843  0.00  0.00    +0.000 A 
ATOM      4  C   UNL     1      -3.537  10.728  16.732  0.00  0.00    +0.000 A 
ATOM      5  C   UNL     1      -4.830  11.242  16.659  0.00  0.00    +0.000 A 
ATOM      6  C   UNL     1      -5.372  11.942  17.739  0.00  0.00    +0.000 A 
ATOM      7  C   UNL     1      -4.606  12.189  18.882  0.00  0.00    +0.000 A 
ATOM      8  C   UNL     1      -3.263  11.812  18.900  0.00  0.00    +0.000 A 
ATOM      9  N   UNL     1      -2.293  12.402  19.797  0.00  0.00    +0.000 N 
ATOM     10  C   UNL     1      -1.086  12.534  19.126  0.00  0.00    +0.000 A 
ATOM     11  O   UNL     1      -0.552  13.542  18.693  0.00  0.00    +0.000 OA
ENDROOT
BRANCH   9  12
ATOM     12  C   UNL     1      -2.679  13.255  20.951  0.00  0.00    +0.000 C 
ATOM     13  C   UNL     1      -2.548  14.778  20.761  0.00  0.00    +0.000 C 
ATOM     14  C   UNL     1      -1.446  15.475  21.577  0.00  0.00    +0.000 C 
ATOM     15  C   UNL     1      -0.044  15.015  21.184  0.00  0.00    +0.000 C 
ATOM     16  C   UNL     1       0.231  13.811  22.094  0.00  0.00    +0.000 C 
ATOM     17  C   UNL     1      -1.026  13.685  22.947  0.00  0.00    +0.000 C 
ATOM     18  C   UNL     1      -2.095  12.768  22.308  0.00  0.00    +0.000 C 
ATOM     19  N   UNL     1      -1.436  15.092  22.987  0.00  0.00    +0.000 NA
BRANCH  19  20
ATOM     20  C   UNL     1      -2.571  15.456  23.833  0.00  0.00    +0.000 C 
ATOM     21  C   UNL     1      -2.943  16.913  23.682  0.00  0.00    +0.000 C 
ATOM     22  C   UNL     1      -2.429  18.004  24.274  0.00  0.00    +0.000 C 
ATOM     23  C   UNL     1      -1.281  18.092  25.230  0.00  0.00    +0.000 C 
ATOM     24  C   UNL     1      -1.272  17.113  26.396  0.00  0.00    +0.000 C 
ATOM     25  C   UNL     1      -1.137  15.644  26.014  0.00  0.00    +0.000 C 
ATOM     26  C   UNL     1      -2.364  15.062  25.311  0.00  0.00    +0.000 C 
ENDBRANCH  19  20
ENDBRANCH   9  12
BRANCH   1  28
ATOM     27  O   UNL     1       1.125   9.921  19.596  0.00  0.00    +0.000 OA
ATOM     28  C   UNL     1       0.831  10.816  18.823  0.00  0.00    +0.000 C 
BRANCH  28  29
ATOM     29  OXT UNL     1       1.709  11.506  18.053  0.00  0.00    +0.000 OA
ATOM     30  HXT UNL     1       1.311  11.629  17.165  0.00  0.00    +0.000 HD
ENDBRANCH  28  29
ENDBRANCH   1  28
TORSDOF 4
ENDMDL
