MODEL 1
REMARK VINA RESULT:      -5.8      0.000      0.000
REMARK  Name = 
REMARK  23 active torsions:
REMARK  status: ('A' for Active; 'I' for Inactive)
REMARK    1  A    between atoms: C_1  and  C_2
REMARK    2  A    between atoms: C_2  and  C_3
REMARK    3  A    between atoms: C_3  and  C_4
REMARK    4  A    between atoms: C_4  and  C_5
REMARK    5  A    between atoms: C_5  and  C_6
REMARK    6  A    between atoms: C_6  and  C_7
REMARK    7  A    between atoms: C_7  and  C_8
REMARK    8  A    between atoms: C_8  and  C_9
REMARK    9  A    between atoms: C_9  and  C_10
REMARK   10  A    between atoms: C_10  and  C_11
REMARK   11  A    between atoms: C_11  and  C_12
REMARK   12  A    between atoms: C_12  and  C_13
REMARK   13  A    between atoms: C_13  and  C_14
REMARK   14  A    between atoms: C_14  and  C_15
REMARK   15  A    between atoms: C_15  and  C_16
REMARK   16  A    between atoms: C_16  and  N_17
REMARK   17  A    between atoms: N_17  and  C_18
REMARK   18  A    between atoms: C_21  and  C_22
REMARK   19  A    between atoms: C_22  and  O_24
REMARK   20  A    between atoms: O_24  and  C_25
REMARK   21  A    between atoms: C_25  and  C_26
REMARK   22  A    between atoms: C_26  and  C_27
REMARK   23  A    between atoms: C_27  and  O_28
REMARK                            x       y       z     vdW  Elec       q    Type
REMARK                         _______ _______ _______ _____ _____    ______ ____
ROOT
ATOM      1  C   UNL     1       2.375   5.185  21.216  0.00  0.00    +0.000 C 
ENDROOT
BRANCH   1   2
ATOM      2  N   UNL     1       2.863   5.972  20.093  0.00  0.00    +0.000 N 
ATOM      3  H   UNL     1       3.422   5.482  19.403  0.00  0.00    +0.000 HD
BRANCH   2   4
ATOM      4  C   UNL     1       2.236   7.157  19.732  0.00  0.00    +0.000 A 
ATOM      5  C   UNL     1       1.574   7.967  20.665  0.00  0.00    +0.000 A 
ATOM      6  C   UNL     1       0.971   9.173  20.287  0.00  0.00    +0.000 A 
ATOM      7  C   UNL     1       1.066   9.638  18.968  0.00  0.00    +0.000 A 
ATOM      8  C   UNL     1       1.744   8.851  18.028  0.00  0.00    +0.000 A 
ATOM      9  C   UNL     1       2.331   7.637  18.417  0.00  0.00    +0.000 A 
BRANCH   7  10
ATOM     10  C   UNL     1       0.434  10.946  18.610  0.00  0.00    +0.000 C 
ATOM     11  O   UNL     1      -0.727  11.061  18.219  0.00  0.00    +0.000 OA
BRANCH  10  12
ATOM     12  O   UNL     1       1.344  11.945  18.690  0.00  0.00    +0.000 OA
BRANCH  12  13
ATOM     13  C   UNL     1       1.082  12.904  19.727  0.00  0.00    +0.000 C 
BRANCH  13  14
ATOM     14  C   UNL     1       2.349  13.452  20.361  0.00  0.00    +0.000 C 
BRANCH  14  15
ATOM     15  C   UNL     1       3.233  14.176  19.355  0.00  0.00    +0.000 C 
BRANCH  15  16
ATOM     16  O   UNL     1       2.463  14.543  18.225  0.00  0.00    +0.000 OA
ATOM     17  H   UNL     1       2.102  13.735  17.820  0.00  0.00    +0.000 HD
ENDBRANCH  15  16
ENDBRANCH  14  15
ENDBRANCH  13  14
ENDBRANCH  12  13
ENDBRANCH  10  12
ENDBRANCH   7  10
ENDBRANCH   2   4
ENDBRANCH   1   2
BRANCH   1  18
ATOM     18  C   UNL     1       2.133   3.747  20.783  0.00  0.00    +0.000 C 
BRANCH  18  19
ATOM     19  C   UNL     1       0.756   3.605  20.149  0.00  0.00    +0.000 C 
BRANCH  19  20
ATOM     20  C   UNL     1       0.705   2.391  19.233  0.00  0.00    +0.000 C 
BRANCH  20  21
ATOM     21  C   UNL     1       1.879   2.409  18.266  0.00  0.00    +0.000 C 
BRANCH  21  22
ATOM     22  C   UNL     1       1.951   3.747  17.551  0.00  0.00    +0.000 C 
BRANCH  22  23
ATOM     23  C   UNL     1       3.241   3.848  16.754  0.00  0.00    +0.000 C 
BRANCH  23  24
ATOM     24  C   UNL     1       4.417   3.402  17.607  0.00  0.00    +0.000 C 
BRANCH  24  25
ATOM     25  C   UNL     1       5.267   4.601  17.987  0.00  0.00    +0.000 C 
BRANCH  25  26
ATOM     26  C   UNL     1       5.077   5.716  16.975  0.00  0.00    +0.000 C 
BRANCH  26  27
ATOM     27  C   UNL     1       6.251   5.754  16.012  0.00  0.00    +0.000 C 
BRANCH  27  28
ATOM     28  C   UNL     1       5.828   5.239  14.647  0.00  0.00    +0.000 C 
BRANCH  28  29
ATOM     29  C   UNL     1       6.582   3.961  14.311  0.00  0.00    +0.000 C 
BRANCH  29  30
ATOM     30  C   UNL     1       6.235   3.498  12.903  0.00  0.00    +0.000 C 
BRANCH  30  32
ATOM     31  C   UNL     1       4.353   3.123  11.301  0.00  0.00    +0.000 C 
ATOM     32  C   UNL     1       4.793   3.845  12.560  0.00  0.00    +0.000 C 
ENDBRANCH  30  32
ENDBRANCH  29  30
ENDBRANCH  28  29
ENDBRANCH  27  28
ENDBRANCH  26  27
ENDBRANCH  25  26
ENDBRANCH  24  25
ENDBRANCH  23  24
ENDBRANCH  22  23
ENDBRANCH  21  22
ENDBRANCH  20  21
ENDBRANCH  19  20
ENDBRANCH  18  19
ENDBRANCH   1  18
TORSDOF 22
ENDMDL
MODEL 2
REMARK VINA RESULT:      -5.7      3.391      5.452
REMARK  Name = 
REMARK  23 active torsions:
REMARK  status: ('A' for Active; 'I' for Inactive)
REMARK    1  A    between atoms: C_1  and  C_2
REMARK    2  A    between atoms: C_2  and  C_3
REMARK    3  A    between atoms: C_3  and  C_4
REMARK    4  A    between atoms: C_4  and  C_5
REMARK    5  A    between atoms: C_5  and  C_6
REMARK    6  A    between atoms: C_6  and  C_7
REMARK    7  A    between atoms: C_7  and  C_8
REMARK    8  A    between atoms: C_8  and  C_9
REMARK    9  A    between atoms: C_9  and  C_10
REMARK   10  A    between atoms: C_10  and  C_11
REMARK   11  A    between atoms: C_11  and  C_12
REMARK   12  A    between atoms: C_12  and  C_13
REMARK   13  A    between atoms: C_13  and  C_14
REMARK   14  A    between atoms: C_14  and  C_15
REMARK   15  A    between atoms: C_15  and  C_16
REMARK   16  A    between atoms: C_16  and  N_17
REMARK   17  A    between atoms: N_17  and  C_18
REMARK   18  A    between atoms: C_21  and  C_22
REMARK   19  A    between atoms: C_22  and  O_24
REMARK   20  A    between atoms: O_24  and  C_25
REMARK   21  A    between atoms: C_25  and  C_26
REMARK   22  A    between atoms: C_26  and  C_27
REMARK   23  A    between atoms: C_27  and  O_28
REMARK                            x       y       z     vdW  Elec       q    Type
REMARK                         _______ _______ _______ _____ _____    ______ ____
ROOT
ATOM      1  C   UNL     1       2.042   9.044  17.997  0.00  0.00    +0.000 C 
ENDROOT
BRANCH   1   2
ATOM      2  N   UNL     1       1.181   9.681  18.982  0.00  0.00    +0.000 N 
ATOM      3  H   UNL     1       1.638  10.077  19.797  0.00  0.00    +0.000 HD
BRANCH   2   4
ATOM      4  C   UNL     1      -0.081  10.141  18.630  0.00  0.00    +0.000 A 
ATOM      5  C   UNL     1      -0.781   9.630  17.528  0.00  0.00    +0.000 A 
ATOM      6  C   UNL     1      -2.066  10.086  17.205  0.00  0.00    +0.000 A 
ATOM      7  C   UNL     1      -2.716  11.027  18.015  0.00  0.00    +0.000 A 
ATOM      8  C   UNL     1      -2.038  11.531  19.134  0.00  0.00    +0.000 A 
ATOM      9  C   UNL     1      -0.745  11.076  19.437  0.00  0.00    +0.000 A 
BRANCH   7  10
ATOM     10  C   UNL     1      -4.099  11.467  17.653  0.00  0.00    +0.000 C 
ATOM     11  O   UNL     1      -4.509  11.557  16.496  0.00  0.00    +0.000 OA
BRANCH  10  12
ATOM     12  O   UNL     1      -4.782  11.832  18.764  0.00  0.00    +0.000 OA
BRANCH  12  13
ATOM     13  C   UNL     1      -6.208  11.708  18.651  0.00  0.00    +0.000 C 
BRANCH  13  14
ATOM     14  C   UNL     1      -6.716  10.328  19.032  0.00  0.00    +0.000 C 
BRANCH  14  15
ATOM     15  C   UNL     1      -7.414  10.323  20.385  0.00  0.00    +0.000 C 
BRANCH  15  16
ATOM     16  O   UNL     1      -7.409   9.011  20.917  0.00  0.00    +0.000 OA
ATOM     17  H   UNL     1      -7.874   9.022  21.773  0.00  0.00    +0.000 HD
ENDBRANCH  15  16
ENDBRANCH  14  15
ENDBRANCH  13  14
ENDBRANCH  12  13
ENDBRANCH  10  12
ENDBRANCH   7  10
ENDBRANCH   2   4
ENDBRANCH   1   2
BRANCH   1  18
ATOM     18  C   UNL     1       1.948   7.531  18.119  0.00  0.00    +0.000 C 
BRANCH  18  19
ATOM     19  C   UNL     1       2.656   7.053  19.379  0.00  0.00    +0.000 C 
BRANCH  19  20
ATOM     20  C   UNL     1       1.648   6.646  20.445  0.00  0.00    +0.000 C 
BRANCH  20  21
ATOM     21  C   UNL     1       1.907   5.216  20.897  0.00  0.00    +0.000 C 
BRANCH  21  22
ATOM     22  C   UNL     1       1.111   4.242  20.044  0.00  0.00    +0.000 C 
BRANCH  22  23
ATOM     23  C   UNL     1       1.298   2.824  20.555  0.00  0.00    +0.000 C 
BRANCH  23  24
ATOM     24  C   UNL     1       2.656   2.684  21.221  0.00  0.00    +0.000 C 
BRANCH  24  25
ATOM     25  C   UNL     1       3.742   2.565  20.167  0.00  0.00    +0.000 C 
BRANCH  25  26
ATOM     26  C   UNL     1       3.258   1.702  19.016  0.00  0.00    +0.000 C 
BRANCH  26  27
ATOM     27  C   UNL     1       3.363   2.468  17.708  0.00  0.00    +0.000 C 
BRANCH  27  28
ATOM     28  C   UNL     1       4.393   3.578  17.831  0.00  0.00    +0.000 C 
BRANCH  28  29
ATOM     29  C   UNL     1       4.057   4.714  16.877  0.00  0.00    +0.000 C 
BRANCH  29  30
ATOM     30  C   UNL     1       5.332   5.335  16.325  0.00  0.00    +0.000 C 
BRANCH  30  32
ATOM     31  C   UNL     1       6.012   4.058  14.286  0.00  0.00    +0.000 C 
ATOM     32  C   UNL     1       6.259   4.263  15.769  0.00  0.00    +0.000 C 
ENDBRANCH  30  32
ENDBRANCH  29  30
ENDBRANCH  28  29
ENDBRANCH  27  28
ENDBRANCH  26  27
ENDBRANCH  25  26
ENDBRANCH  24  25
ENDBRANCH  23  24
ENDBRANCH  22  23
ENDBRANCH  21  22
ENDBRANCH  20  21
ENDBRANCH  19  20
ENDBRANCH  18  19
ENDBRANCH   1  18
TORSDOF 22
ENDMDL
MODEL 3
REMARK VINA RESULT:      -5.6      3.381      4.688
REMARK  Name = 
REMARK  23 active torsions:
REMARK  status: ('A' for Active; 'I' for Inactive)
REMARK    1  A    between atoms: C_1  and  C_2
REMARK    2  A    between atoms: C_2  and  C_3
REMARK    3  A    between atoms: C_3  and  C_4
REMARK    4  A    between atoms: C_4  and  C_5
REMARK    5  A    between atoms: C_5  and  C_6
REMARK    6  A    between atoms: C_6  and  C_7
REMARK    7  A    between atoms: C_7  and  C_8
REMARK    8  A    between atoms: C_8  and  C_9
REMARK    9  A    between atoms: C_9  and  C_10
REMARK   10  A    between atoms: C_10  and  C_11
REMARK   11  A    between atoms: C_11  and  C_12
REMARK   12  A    between atoms: C_12  and  C_13
REMARK   13  A    between atoms: C_13  and  C_14
REMARK   14  A    between atoms: C_14  and  C_15
REMARK   15  A    between atoms: C_15  and  C_16
REMARK   16  A    between atoms: C_16  and  N_17
REMARK   17  A    between atoms: N_17  and  C_18
REMARK   18  A    between atoms: C_21  and  C_22
REMARK   19  A    between atoms: C_22  and  O_24
REMARK   20  A    between atoms: O_24  and  C_25
REMARK   21  A    between atoms: C_25  and  C_26
REMARK   22  A    between atoms: C_26  and  C_27
REMARK   23  A    between atoms: C_27  and  O_28
REMARK                            x       y       z     vdW  Elec       q    Type
REMARK                         _______ _______ _______ _____ _____    ______ ____
ROOT
ATOM      1  C   UNL     1       2.064   7.857  19.956  0.00  0.00    +0.000 C 
ENDROOT
BRANCH   1   2
ATOM      2  N   UNL     1       1.047   7.826  20.996  0.00  0.00    +0.000 N 
ATOM      3  H   UNL     1       1.073   7.039  21.635  0.00  0.00    +0.000 HD
BRANCH   2   4
ATOM      4  C   UNL     1       0.400   8.991  21.390  0.00  0.00    +0.000 A 
ATOM      5  C   UNL     1      -0.017   9.205  22.710  0.00  0.00    +0.000 A 
ATOM      6  C   UNL     1      -0.644  10.397  23.094  0.00  0.00    +0.000 A 
ATOM      7  C   UNL     1      -0.816  11.443  22.176  0.00  0.00    +0.000 A 
ATOM      8  C   UNL     1      -0.383  11.254  20.856  0.00  0.00    +0.000 A 
ATOM      9  C   UNL     1       0.229  10.047  20.482  0.00  0.00    +0.000 A 
BRANCH   7  10
ATOM     10  C   UNL     1      -1.462  12.713  22.632  0.00  0.00    +0.000 C 
ATOM     11  O   UNL     1      -1.253  13.232  23.728  0.00  0.00    +0.000 OA
BRANCH  10  12
ATOM     12  O   UNL     1      -2.360  13.139  21.713  0.00  0.00    +0.000 OA
BRANCH  12  13
ATOM     13  C   UNL     1      -3.683  12.607  21.885  0.00  0.00    +0.000 C 
BRANCH  13  14
ATOM     14  C   UNL     1      -4.570  13.488  22.746  0.00  0.00    +0.000 C 
BRANCH  14  15
ATOM     15  C   UNL     1      -4.911  12.837  24.080  0.00  0.00    +0.000 C 
BRANCH  15  16
ATOM     16  O   UNL     1      -4.001  13.278  25.070  0.00  0.00    +0.000 OA
ATOM     17  H   UNL     1      -3.924  12.586  25.750  0.00  0.00    +0.000 HD
ENDBRANCH  15  16
ENDBRANCH  14  15
ENDBRANCH  13  14
ENDBRANCH  12  13
ENDBRANCH  10  12
ENDBRANCH   7  10
ENDBRANCH   2   4
ENDBRANCH   1   2
BRANCH   1  18
ATOM     18  C   UNL     1       2.646   6.467  19.752  0.00  0.00    +0.000 C 
BRANCH  18  19
ATOM     19  C   UNL     1       1.541   5.466  19.445  0.00  0.00    +0.000 C 
BRANCH  19  20
ATOM     20  C   UNL     1       1.342   4.506  20.609  0.00  0.00    +0.000 C 
BRANCH  20  21
ATOM     21  C   UNL     1       0.759   3.191  20.115  0.00  0.00    +0.000 C 
BRANCH  21  22
ATOM     22  C   UNL     1       1.873   2.226  19.747  0.00  0.00    +0.000 C 
BRANCH  22  23
ATOM     23  C   UNL     1       3.091   2.473  20.620  0.00  0.00    +0.000 C 
BRANCH  23  24
ATOM     24  C   UNL     1       4.361   2.251  19.817  0.00  0.00    +0.000 C 
BRANCH  24  25
ATOM     25  C   UNL     1       4.673   3.482  18.985  0.00  0.00    +0.000 C 
BRANCH  25  26
ATOM     26  C   UNL     1       4.249   3.257  17.545  0.00  0.00    +0.000 C 
BRANCH  26  27
ATOM     27  C   UNL     1       4.586   4.477  16.704  0.00  0.00    +0.000 C 
BRANCH  27  28
ATOM     28  C   UNL     1       5.549   4.097  15.592  0.00  0.00    +0.000 C 
BRANCH  28  29
ATOM     29  C   UNL     1       6.843   4.886  15.726  0.00  0.00    +0.000 C 
BRANCH  29  30
ATOM     30  C   UNL     1       7.450   4.673  17.105  0.00  0.00    +0.000 C 
BRANCH  30  32
ATOM     31  C   UNL     1       7.743   5.714  19.359  0.00  0.00    +0.000 C 
ATOM     32  C   UNL     1       7.483   5.978  17.888  0.00  0.00    +0.000 C 
ENDBRANCH  30  32
ENDBRANCH  29  30
ENDBRANCH  28  29
ENDBRANCH  27  28
ENDBRANCH  26  27
ENDBRANCH  25  26
ENDBRANCH  24  25
ENDBRANCH  23  24
ENDBRANCH  22  23
ENDBRANCH  21  22
ENDBRANCH  20  21
ENDBRANCH  19  20
ENDBRANCH  18  19
ENDBRANCH   1  18
TORSDOF 22
ENDMDL
MODEL 4
REMARK VINA RESULT:      -5.6      1.968      3.249
REMARK  Name = 
REMARK  23 active torsions:
REMARK  status: ('A' for Active; 'I' for Inactive)
REMARK    1  A    between atoms: C_1  and  C_2
REMARK    2  A    between atoms: C_2  and  C_3
REMARK    3  A    between atoms: C_3  and  C_4
REMARK    4  A    between atoms: C_4  and  C_5
REMARK    5  A    between atoms: C_5  and  C_6
REMARK    6  A    between atoms: C_6  and  C_7
REMARK    7  A    between atoms: C_7  and  C_8
REMARK    8  A    between atoms: C_8  and  C_9
REMARK    9  A    between atoms: C_9  and  C_10
REMARK   10  A    between atoms: C_10  and  C_11
REMARK   11  A    between atoms: C_11  and  C_12
REMARK   12  A    between atoms: C_12  and  C_13
REMARK   13  A    between atoms: C_13  and  C_14
REMARK   14  A    between atoms: C_14  and  C_15
REMARK   15  A    between atoms: C_15  and  C_16
REMARK   16  A    between atoms: C_16  and  N_17
REMARK   17  A    between atoms: N_17  and  C_18
REMARK   18  A    between atoms: C_21  and  C_22
REMARK   19  A    between atoms: C_22  and  O_24
REMARK   20  A    between atoms: O_24  and  C_25
REMARK   21  A    between atoms: C_25  and  C_26
REMARK   22  A    between atoms: C_26  and  C_27
REMARK   23  A    between atoms: C_27  and  O_28
REMARK                            x       y       z     vdW  Elec       q    Type
REMARK                         _______ _______ _______ _____ _____    ______ ____
ROOT
ATOM      1  C   UNL     1       2.677   6.338  19.724  0.00  0.00    +0.000 C 
ENDROOT
BRANCH   1   2
ATOM      2  N   UNL     1       2.106   7.179  20.765  0.00  0.00    +0.000 N 
ATOM      3  H   UNL     1       2.493   7.075  21.697  0.00  0.00    +0.000 HD
BRANCH   2   4
ATOM      4  C   UNL     1       1.437   8.352  20.441  0.00  0.00    +0.000 A 
ATOM      5  C   UNL     1       1.559   8.959  19.184  0.00  0.00    +0.000 A 
ATOM      6  C   UNL     1       0.855  10.127  18.866  0.00  0.00    +0.000 A 
ATOM      7  C   UNL     1      -0.046  10.691  19.780  0.00  0.00    +0.000 A 
ATOM      8  C   UNL     1      -0.197  10.083  21.034  0.00  0.00    +0.000 A 
ATOM      9  C   UNL     1       0.527   8.921  21.344  0.00  0.00    +0.000 A 
BRANCH   7  10
ATOM     10  C   UNL     1      -0.802  11.922  19.392  0.00  0.00    +0.000 C 
ATOM     11  O   UNL     1      -0.971  12.283  18.228  0.00  0.00    +0.000 OA
BRANCH  10  12
ATOM     12  O   UNL     1      -1.181  12.608  20.496  0.00  0.00    +0.000 OA
BRANCH  12  13
ATOM     13  C   UNL     1      -0.366  13.754  20.790  0.00  0.00    +0.000 C 
BRANCH  13  14
ATOM     14  C   UNL     1      -1.080  15.070  20.537  0.00  0.00    +0.000 C 
BRANCH  14  15
ATOM     15  C   UNL     1      -0.712  15.678  19.190  0.00  0.00    +0.000 C 
BRANCH  15  16
ATOM     16  O   UNL     1       0.451  15.047  18.687  0.00  0.00    +0.000 OA
ATOM     17  H   UNL     1       0.240  14.653  17.822  0.00  0.00    +0.000 HD
ENDBRANCH  15  16
ENDBRANCH  14  15
ENDBRANCH  13  14
ENDBRANCH  12  13
ENDBRANCH  10  12
ENDBRANCH   7  10
ENDBRANCH   2   4
ENDBRANCH   1   2
BRANCH   1  18
ATOM     18  C   UNL     1       1.689   5.252  19.327  0.00  0.00    +0.000 C 
BRANCH  18  19
ATOM     19  C   UNL     1       1.297   4.417  20.539  0.00  0.00    +0.000 C 
BRANCH  19  20
ATOM     20  C   UNL     1       0.958   2.992  20.127  0.00  0.00    +0.000 C 
BRANCH  20  21
ATOM     21  C   UNL     1       1.314   2.766  18.665  0.00  0.00    +0.000 C 
BRANCH  21  22
ATOM     22  C   UNL     1       2.521   1.852  18.552  0.00  0.00    +0.000 C 
BRANCH  22  23
ATOM     23  C   UNL     1       3.645   2.353  19.444  0.00  0.00    +0.000 C 
BRANCH  23  24
ATOM     24  C   UNL     1       4.623   3.184  18.632  0.00  0.00    +0.000 C 
BRANCH  24  25
ATOM     25  C   UNL     1       4.122   3.333  17.207  0.00  0.00    +0.000 C 
BRANCH  25  26
ATOM     26  C   UNL     1       4.838   4.481  16.520  0.00  0.00    +0.000 C 
BRANCH  26  27
ATOM     27  C   UNL     1       6.116   3.983  15.866  0.00  0.00    +0.000 C 
BRANCH  27  28
ATOM     28  C   UNL     1       7.287   4.865  16.262  0.00  0.00    +0.000 C 
BRANCH  28  29
ATOM     29  C   UNL     1       7.608   4.681  17.738  0.00  0.00    +0.000 C 
BRANCH  29  30
ATOM     30  C   UNL     1       7.586   6.023  18.455  0.00  0.00    +0.000 C 
BRANCH  30  32
ATOM     31  C   UNL     1       8.111   8.399  17.878  0.00  0.00    +0.000 C 
ATOM     32  C   UNL     1       7.339   7.158  17.470  0.00  0.00    +0.000 C 
ENDBRANCH  30  32
ENDBRANCH  29  30
ENDBRANCH  28  29
ENDBRANCH  27  28
ENDBRANCH  26  27
ENDBRANCH  25  26
ENDBRANCH  24  25
ENDBRANCH  23  24
ENDBRANCH  22  23
ENDBRANCH  21  22
ENDBRANCH  20  21
ENDBRANCH  19  20
ENDBRANCH  18  19
ENDBRANCH   1  18
TORSDOF 22
ENDMDL
MODEL 5
REMARK VINA RESULT:      -5.5      4.131      9.136
REMARK  Name = 
REMARK  23 active torsions:
REMARK  status: ('A' for Active; 'I' for Inactive)
REMARK    1  A    between atoms: C_1  and  C_2
REMARK    2  A    between atoms: C_2  and  C_3
REMARK    3  A    between atoms: C_3  and  C_4
REMARK    4  A    between atoms: C_4  and  C_5
REMARK    5  A    between atoms: C_5  and  C_6
REMARK    6  A    between atoms: C_6  and  C_7
REMARK    7  A    between atoms: C_7  and  C_8
REMARK    8  A    between atoms: C_8  and  C_9
REMARK    9  A    between atoms: C_9  and  C_10
REMARK   10  A    between atoms: C_10  and  C_11
REMARK   11  A    between atoms: C_11  and  C_12
REMARK   12  A    between atoms: C_12  and  C_13
REMARK   13  A    between atoms: C_13  and  C_14
REMARK   14  A    between atoms: C_14  and  C_15
REMARK   15  A    between atoms: C_15  and  C_16
REMARK   16  A    between atoms: C_16  and  N_17
REMARK   17  A    between atoms: N_17  and  C_18
REMARK   18  A    between atoms: C_21  and  C_22
REMARK   19  A    between atoms: C_22  and  O_24
REMARK   20  A    between atoms: O_24  and  C_25
REMARK   21  A    between atoms: C_25  and  C_26
REMARK   22  A    between atoms: C_26  and  C_27
REMARK   23  A    between atoms: C_27  and  O_28
REMARK                            x       y       z     vdW  Elec       q    Type
REMARK                         _______ _______ _______ _____ _____    ______ ____
ROOT
ATOM      1  C   UNL     1       4.901   2.622  19.895  0.00  0.00    +0.000 C 
ENDROOT
BRANCH   1   2
ATOM      2  N   UNL     1       5.117   3.986  19.438  0.00  0.00    +0.000 N 
ATOM      3  H   UNL     1       5.266   4.688  20.155  0.00  0.00    +0.000 HD
BRANCH   2   4
ATOM      4  C   UNL     1       5.562   4.239  18.146  0.00  0.00    +0.000 A 
ATOM      5  C   UNL     1       6.878   4.637  17.874  0.00  0.00    +0.000 A 
ATOM      6  C   UNL     1       7.316   4.861  16.562  0.00  0.00    +0.000 A 
ATOM      7  C   UNL     1       6.463   4.631  15.474  0.00  0.00    +0.000 A 
ATOM      8  C   UNL     1       5.150   4.209  15.729  0.00  0.00    +0.000 A 
ATOM      9  C   UNL     1       4.720   4.004  17.049  0.00  0.00    +0.000 A 
BRANCH   7  10
ATOM     10  C   UNL     1       6.976   4.851  14.086  0.00  0.00    +0.000 C 
ATOM     11  O   UNL     1       8.027   5.439  13.831  0.00  0.00    +0.000 OA
BRANCH  10  12
ATOM     12  O   UNL     1       6.082   4.398  13.177  0.00  0.00    +0.000 OA
BRANCH  12  13
ATOM     13  C   UNL     1       6.543   3.285  12.396  0.00  0.00    +0.000 C 
BRANCH  13  14
ATOM     14  C   UNL     1       5.409   2.454  11.820  0.00  0.00    +0.000 C 
BRANCH  14  15
ATOM     15  C   UNL     1       5.912   1.347  10.903  0.00  0.00    +0.000 C 
BRANCH  15  16
ATOM     16  O   UNL     1       7.184   0.908  11.341  0.00  0.00    +0.000 OA
ATOM     17  H   UNL     1       7.852   1.553  11.049  0.00  0.00    +0.000 HD
ENDBRANCH  15  16
ENDBRANCH  14  15
ENDBRANCH  13  14
ENDBRANCH  12  13
ENDBRANCH  10  12
ENDBRANCH   7  10
ENDBRANCH   2   4
ENDBRANCH   1   2
BRANCH   1  18
ATOM     18  C   UNL     1       3.443   2.231  19.706  0.00  0.00    +0.000 C 
BRANCH  18  19
ATOM     19  C   UNL     1       2.540   3.107  20.563  0.00  0.00    +0.000 C 
BRANCH  19  20
ATOM     20  C   UNL     1       2.200   4.403  19.841  0.00  0.00    +0.000 C 
BRANCH  20  21
ATOM     21  C   UNL     1       1.634   5.420  20.821  0.00  0.00    +0.000 C 
BRANCH  21  22
ATOM     22  C   UNL     1       1.793   6.827  20.271  0.00  0.00    +0.000 C 
BRANCH  22  23
ATOM     23  C   UNL     1       2.812   6.838  19.143  0.00  0.00    +0.000 C 
BRANCH  23  24
ATOM     24  C   UNL     1       2.175   7.369  17.871  0.00  0.00    +0.000 C 
BRANCH  24  25
ATOM     25  C   UNL     1       2.295   8.881  17.820  0.00  0.00    +0.000 C 
BRANCH  25  26
ATOM     26  C   UNL     1       0.922   9.517  17.937  0.00  0.00    +0.000 C 
BRANCH  26  27
ATOM     27  C   UNL     1       1.020  10.839  18.681  0.00  0.00    +0.000 C 
BRANCH  27  28
ATOM     28  C   UNL     1      -0.244  11.081  19.489  0.00  0.00    +0.000 C 
BRANCH  28  29
ATOM     29  C   UNL     1       0.087  11.146  20.973  0.00  0.00    +0.000 C 
BRANCH  29  30
ATOM     30  C   UNL     1       0.080   9.749  21.578  0.00  0.00    +0.000 C 
BRANCH  30  32
ATOM     31  C   UNL     1      -1.345  11.016  23.195  0.00  0.00    +0.000 C 
ATOM     32  C   UNL     1      -0.502   9.772  22.985  0.00  0.00    +0.000 C 
ENDBRANCH  30  32
ENDBRANCH  29  30
ENDBRANCH  28  29
ENDBRANCH  27  28
ENDBRANCH  26  27
ENDBRANCH  25  26
ENDBRANCH  24  25
ENDBRANCH  23  24
ENDBRANCH  22  23
ENDBRANCH  21  22
ENDBRANCH  20  21
ENDBRANCH  19  20
ENDBRANCH  18  19
ENDBRANCH   1  18
TORSDOF 22
ENDMDL
MODEL 6
REMARK VINA RESULT:      -5.5      3.667      5.538
REMARK  Name = 
REMARK  23 active torsions:
REMARK  status: ('A' for Active; 'I' for Inactive)
REMARK    1  A    between atoms: C_1  and  C_2
REMARK    2  A    between atoms: C_2  and  C_3
REMARK    3  A    between atoms: C_3  and  C_4
REMARK    4  A    between atoms: C_4  and  C_5
REMARK    5  A    between atoms: C_5  and  C_6
REMARK    6  A    between atoms: C_6  and  C_7
REMARK    7  A    between atoms: C_7  and  C_8
REMARK    8  A    between atoms: C_8  and  C_9
REMARK    9  A    between atoms: C_9  and  C_10
REMARK   10  A    between atoms: C_10  and  C_11
REMARK   11  A    between atoms: C_11  and  C_12
REMARK   12  A    between atoms: C_12  and  C_13
REMARK   13  A    between atoms: C_13  and  C_14
REMARK   14  A    between atoms: C_14  and  C_15
REMARK   15  A    between atoms: C_15  and  C_16
REMARK   16  A    between atoms: C_16  and  N_17
REMARK   17  A    between atoms: N_17  and  C_18
REMARK   18  A    between atoms: C_21  and  C_22
REMARK   19  A    between atoms: C_22  and  O_24
REMARK   20  A    between atoms: O_24  and  C_25
REMARK   21  A    between atoms: C_25  and  C_26
REMARK   22  A    between atoms: C_26  and  C_27
REMARK   23  A    between atoms: C_27  and  O_28
REMARK                            x       y       z     vdW  Elec       q    Type
REMARK                         _______ _______ _______ _____ _____    ______ ____
ROOT
ATOM      1  C   UNL     1       1.208   9.162  18.762  0.00  0.00    +0.000 C 
ENDROOT
BRANCH   1   2
ATOM      2  N   UNL     1       0.546  10.302  18.145  0.00  0.00    +0.000 N 
ATOM      3  H   UNL     1       0.567  10.348  17.132  0.00  0.00    +0.000 HD
BRANCH   2   4
ATOM      4  C   UNL     1      -0.435  11.007  18.830  0.00  0.00    +0.000 A 
ATOM      5  C   UNL     1      -0.155  11.746  19.987  0.00  0.00    +0.000 A 
ATOM      6  C   UNL     1      -1.152  12.473  20.649  0.00  0.00    +0.000 A 
ATOM      7  C   UNL     1      -2.455  12.533  20.134  0.00  0.00    +0.000 A 
ATOM      8  C   UNL     1      -2.746  11.819  18.964  0.00  0.00    +0.000 A 
ATOM      9  C   UNL     1      -1.740  11.081  18.320  0.00  0.00    +0.000 A 
BRANCH   7  10
ATOM     10  C   UNL     1      -3.485  13.345  20.852  0.00  0.00    +0.000 C 
ATOM     11  O   UNL     1      -3.566  14.571  20.776  0.00  0.00    +0.000 OA
BRANCH  10  12
ATOM     12  O   UNL     1      -4.235  12.552  21.652  0.00  0.00    +0.000 OA
BRANCH  12  13
ATOM     13  C   UNL     1      -5.573  13.026  21.872  0.00  0.00    +0.000 C 
BRANCH  13  14
ATOM     14  C   UNL     1      -5.780  13.593  23.266  0.00  0.00    +0.000 C 
BRANCH  14  15
ATOM     15  C   UNL     1      -6.204  12.526  24.266  0.00  0.00    +0.000 C 
BRANCH  15  16
ATOM     16  O   UNL     1      -5.081  11.747  24.634  0.00  0.00    +0.000 OA
ATOM     17  H   UNL     1      -4.552  11.570  23.836  0.00  0.00    +0.000 HD
ENDBRANCH  15  16
ENDBRANCH  14  15
ENDBRANCH  13  14
ENDBRANCH  12  13
ENDBRANCH  10  12
ENDBRANCH   7  10
ENDBRANCH   2   4
ENDBRANCH   1   2
BRANCH   1  18
ATOM     18  C   UNL     1       2.107   8.468  17.750  0.00  0.00    +0.000 C 
BRANCH  18  19
ATOM     19  C   UNL     1       2.826   7.290  18.394  0.00  0.00    +0.000 C 
BRANCH  19  20
ATOM     20  C   UNL     1       2.292   7.032  19.796  0.00  0.00    +0.000 C 
BRANCH  20  21
ATOM     21  C   UNL     1       2.619   5.612  20.231  0.00  0.00    +0.000 C 
BRANCH  21  22
ATOM     22  C   UNL     1       1.340   4.828  20.472  0.00  0.00    +0.000 C 
BRANCH  22  23
ATOM     23  C   UNL     1       1.658   3.491  21.120  0.00  0.00    +0.000 C 
BRANCH  23  24
ATOM     24  C   UNL     1       2.717   2.759  20.315  0.00  0.00    +0.000 C 
BRANCH  24  25
ATOM     25  C   UNL     1       2.089   2.121  19.088  0.00  0.00    +0.000 C 
BRANCH  25  26
ATOM     26  C   UNL     1       3.067   2.153  17.927  0.00  0.00    +0.000 C 
BRANCH  26  27
ATOM     27  C   UNL     1       2.910   3.449  17.148  0.00  0.00    +0.000 C 
BRANCH  27  28
ATOM     28  C   UNL     1       4.203   4.245  17.189  0.00  0.00    +0.000 C 
BRANCH  28  29
ATOM     29  C   UNL     1       5.016   3.992  15.929  0.00  0.00    +0.000 C 
BRANCH  29  30
ATOM     30  C   UNL     1       6.131   5.020  15.804  0.00  0.00    +0.000 C 
BRANCH  30  32
ATOM     31  C   UNL     1       7.202   6.677  17.340  0.00  0.00    +0.000 C 
ATOM     32  C   UNL     1       5.893   6.193  16.746  0.00  0.00    +0.000 C 
ENDBRANCH  30  32
ENDBRANCH  29  30
ENDBRANCH  28  29
ENDBRANCH  27  28
ENDBRANCH  26  27
ENDBRANCH  25  26
ENDBRANCH  24  25
ENDBRANCH  23  24
ENDBRANCH  22  23
ENDBRANCH  21  22
ENDBRANCH  20  21
ENDBRANCH  19  20
ENDBRANCH  18  19
ENDBRANCH   1  18
TORSDOF 22
ENDMDL
MODEL 7
REMARK VINA RESULT:      -5.5      1.138      1.647
REMARK  Name = 
REMARK  23 active torsions:
REMARK  status: ('A' for Active; 'I' for Inactive)
REMARK    1  A    between atoms: C_1  and  C_2
REMARK    2  A    between atoms: C_2  and  C_3
REMARK    3  A    between atoms: C_3  and  C_4
REMARK    4  A    between atoms: C_4  and  C_5
REMARK    5  A    between atoms: C_5  and  C_6
REMARK    6  A    between atoms: C_6  and  C_7
REMARK    7  A    between atoms: C_7  and  C_8
REMARK    8  A    between atoms: C_8  and  C_9
REMARK    9  A    between atoms: C_9  and  C_10
REMARK   10  A    between atoms: C_10  and  C_11
REMARK   11  A    between atoms: C_11  and  C_12
REMARK   12  A    between atoms: C_12  and  C_13
REMARK   13  A    between atoms: C_13  and  C_14
REMARK   14  A    between atoms: C_14  and  C_15
REMARK   15  A    between atoms: C_15  and  C_16
REMARK   16  A    between atoms: C_16  and  N_17
REMARK   17  A    between atoms: N_17  and  C_18
REMARK   18  A    between atoms: C_21  and  C_22
REMARK   19  A    between atoms: C_22  and  O_24
REMARK   20  A    between atoms: O_24  and  C_25
REMARK   21  A    between atoms: C_25  and  C_26
REMARK   22  A    between atoms: C_26  and  C_27
REMARK   23  A    between atoms: C_27  and  O_28
REMARK                            x       y       z     vdW  Elec       q    Type
REMARK                         _______ _______ _______ _____ _____    ______ ____
ROOT
ATOM      1  C   UNL     1       1.852   5.417  20.023  0.00  0.00    +0.000 C 
ENDROOT
BRANCH   1   2
ATOM      2  N   UNL     1       2.527   6.706  20.037  0.00  0.00    +0.000 N 
ATOM      3  H   UNL     1       3.539   6.691  19.969  0.00  0.00    +0.000 HD
BRANCH   2   4
ATOM      4  C   UNL     1       1.846   7.867  19.690  0.00  0.00    +0.000 A 
ATOM      5  C   UNL     1       0.994   8.529  20.583  0.00  0.00    +0.000 A 
ATOM      6  C   UNL     1       0.338   9.713  20.224  0.00  0.00    +0.000 A 
ATOM      7  C   UNL     1       0.566  10.307  18.975  0.00  0.00    +0.000 A 
ATOM      8  C   UNL     1       1.434   9.669  18.078  0.00  0.00    +0.000 A 
ATOM      9  C   UNL     1       2.073   8.474  18.446  0.00  0.00    +0.000 A 
BRANCH   7  10
ATOM     10  C   UNL     1      -0.130  11.588  18.640  0.00  0.00    +0.000 C 
ATOM     11  O   UNL     1      -1.318  11.660  18.327  0.00  0.00    +0.000 OA
BRANCH  10  12
ATOM     12  O   UNL     1       0.751  12.615  18.641  0.00  0.00    +0.000 OA
BRANCH  12  13
ATOM     13  C   UNL     1       1.866  12.439  19.529  0.00  0.00    +0.000 C 
BRANCH  13  14
ATOM     14  C   UNL     1       2.830  13.613  19.510  0.00  0.00    +0.000 C 
BRANCH  14  15
ATOM     15  C   UNL     1       2.829  14.340  18.172  0.00  0.00    +0.000 C 
BRANCH  15  16
ATOM     16  O   UNL     1       4.142  14.361  17.643  0.00  0.00    +0.000 OA
ATOM     17  H   UNL     1       4.615  15.125  18.016  0.00  0.00    +0.000 HD
ENDBRANCH  15  16
ENDBRANCH  14  15
ENDBRANCH  13  14
ENDBRANCH  12  13
ENDBRANCH  10  12
ENDBRANCH   7  10
ENDBRANCH   2   4
ENDBRANCH   1   2
BRANCH   1  18
ATOM     18  C   UNL     1       2.190   4.634  21.282  0.00  0.00    +0.000 C 
BRANCH  18  19
ATOM     19  C   UNL     1       1.400   3.334  21.330  0.00  0.00    +0.000 C 
BRANCH  19  20
ATOM     20  C   UNL     1       1.958   2.323  20.339  0.00  0.00    +0.000 C 
BRANCH  20  21
ATOM     21  C   UNL     1       1.168   2.367  19.040  0.00  0.00    +0.000 C 
BRANCH  21  22
ATOM     22  C   UNL     1       2.097   2.188  17.852  0.00  0.00    +0.000 C 
BRANCH  22  23
ATOM     23  C   UNL     1       3.545   2.195  18.311  0.00  0.00    +0.000 C 
BRANCH  23  24
ATOM     24  C   UNL     1       4.192   3.528  17.976  0.00  0.00    +0.000 C 
BRANCH  24  25
ATOM     25  C   UNL     1       5.087   3.974  19.119  0.00  0.00    +0.000 C 
BRANCH  25  26
ATOM     26  C   UNL     1       5.814   5.253  18.742  0.00  0.00    +0.000 C 
BRANCH  26  27
ATOM     27  C   UNL     1       7.265   4.950  18.408  0.00  0.00    +0.000 C 
BRANCH  27  28
ATOM     28  C   UNL     1       7.411   4.652  16.926  0.00  0.00    +0.000 C 
BRANCH  28  29
ATOM     29  C   UNL     1       6.839   5.796  16.101  0.00  0.00    +0.000 C 
BRANCH  29  30
ATOM     30  C   UNL     1       5.718   5.291  15.204  0.00  0.00    +0.000 C 
BRANCH  30  32
ATOM     31  C   UNL     1       6.374   3.890  13.240  0.00  0.00    +0.000 C 
ATOM     32  C   UNL     1       6.012   3.880  14.714  0.00  0.00    +0.000 C 
ENDBRANCH  30  32
ENDBRANCH  29  30
ENDBRANCH  28  29
ENDBRANCH  27  28
ENDBRANCH  26  27
ENDBRANCH  25  26
ENDBRANCH  24  25
ENDBRANCH  23  24
ENDBRANCH  22  23
ENDBRANCH  21  22
ENDBRANCH  20  21
ENDBRANCH  19  20
ENDBRANCH  18  19
ENDBRANCH   1  18
TORSDOF 22
ENDMDL
MODEL 8
REMARK VINA RESULT:      -5.5      3.067      4.802
REMARK  Name = 
REMARK  23 active torsions:
REMARK  status: ('A' for Active; 'I' for Inactive)
REMARK    1  A    between atoms: C_1  and  C_2
REMARK    2  A    between atoms: C_2  and  C_3
REMARK    3  A    between atoms: C_3  and  C_4
REMARK    4  A    between atoms: C_4  and  C_5
REMARK    5  A    between atoms: C_5  and  C_6
REMARK    6  A    between atoms: C_6  and  C_7
REMARK    7  A    between atoms: C_7  and  C_8
REMARK    8  A    between atoms: C_8  and  C_9
REMARK    9  A    between atoms: C_9  and  C_10
REMARK   10  A    between atoms: C_10  and  C_11
REMARK   11  A    between atoms: C_11  and  C_12
REMARK   12  A    between atoms: C_12  and  C_13
REMARK   13  A    between atoms: C_13  and  C_14
REMARK   14  A    between atoms: C_14  and  C_15
REMARK   15  A    between atoms: C_15  and  C_16
REMARK   16  A    between atoms: C_16  and  N_17
REMARK   17  A    between atoms: N_17  and  C_18
REMARK   18  A    between atoms: C_21  and  C_22
REMARK   19  A    between atoms: C_22  and  O_24
REMARK   20  A    between atoms: O_24  and  C_25
REMARK   21  A    between atoms: C_25  and  C_26
REMARK   22  A    between atoms: C_26  and  C_27
REMARK   23  A    between atoms: C_27  and  O_28
REMARK                            x       y       z     vdW  Elec       q    Type
REMARK                         _______ _______ _______ _____ _____    ______ ____
ROOT
ATOM      1  C   UNL     1       1.801   9.394  17.840  0.00  0.00    +0.000 C 
ENDROOT
BRANCH   1   2
ATOM      2  N   UNL     1       0.466   9.967  17.916  0.00  0.00    +0.000 N 
ATOM      3  H   UNL     1      -0.216   9.622  17.249  0.00  0.00    +0.000 HD
BRANCH   2   4
ATOM      4  C   UNL     1       0.019  10.570  19.085  0.00  0.00    +0.000 A 
ATOM      5  C   UNL     1      -1.221  11.218  19.164  0.00  0.00    +0.000 A 
ATOM      6  C   UNL     1      -1.666  11.797  20.360  0.00  0.00    +0.000 A 
ATOM      7  C   UNL     1      -0.908  11.689  21.534  0.00  0.00    +0.000 A 
ATOM      8  C   UNL     1       0.324  11.023  21.476  0.00  0.00    +0.000 A 
ATOM      9  C   UNL     1       0.766  10.461  20.268  0.00  0.00    +0.000 A 
BRANCH   7  10
ATOM     10  C   UNL     1      -1.432  12.293  22.798  0.00  0.00    +0.000 C 
ATOM     11  O   UNL     1      -2.564  12.090  23.236  0.00  0.00    +0.000 OA
BRANCH  10  12
ATOM     12  O   UNL     1      -0.524  13.150  23.320  0.00  0.00    +0.000 OA
BRANCH  12  13
ATOM     13  C   UNL     1      -0.420  14.402  22.624  0.00  0.00    +0.000 C 
BRANCH  13  14
ATOM     14  C   UNL     1      -1.426  15.434  23.105  0.00  0.00    +0.000 C 
BRANCH  14  15
ATOM     15  C   UNL     1      -1.568  15.439  24.621  0.00  0.00    +0.000 C 
BRANCH  15  16
ATOM     16  O   UNL     1      -2.683  14.652  24.996  0.00  0.00    +0.000 OA
ATOM     17  H   UNL     1      -3.180  15.127  25.685  0.00  0.00    +0.000 HD
ENDBRANCH  15  16
ENDBRANCH  14  15
ENDBRANCH  13  14
ENDBRANCH  12  13
ENDBRANCH  10  12
ENDBRANCH   7  10
ENDBRANCH   2   4
ENDBRANCH   1   2
BRANCH   1  18
ATOM     18  C   UNL     1       1.945   8.266  18.851  0.00  0.00    +0.000 C 
BRANCH  18  19
ATOM     19  C   UNL     1       2.707   7.097  18.241  0.00  0.00    +0.000 C 
BRANCH  19  20
ATOM     20  C   UNL     1       3.177   6.135  19.323  0.00  0.00    +0.000 C 
BRANCH  20  21
ATOM     21  C   UNL     1       2.129   6.022  20.420  0.00  0.00    +0.000 C 
BRANCH  21  22
ATOM     22  C   UNL     1       2.021   4.584  20.899  0.00  0.00    +0.000 C 
BRANCH  22  23
ATOM     23  C   UNL     1       0.963   3.842  20.101  0.00  0.00    +0.000 C 
BRANCH  23  24
ATOM     24  C   UNL     1       1.475   2.467  19.708  0.00  0.00    +0.000 C 
BRANCH  24  25
ATOM     25  C   UNL     1       1.787   2.433  18.222  0.00  0.00    +0.000 C 
BRANCH  25  26
ATOM     26  C   UNL     1       3.220   1.983  18.002  0.00  0.00    +0.000 C 
BRANCH  26  27
ATOM     27  C   UNL     1       4.152   3.183  18.016  0.00  0.00    +0.000 C 
BRANCH  27  28
ATOM     28  C   UNL     1       4.215   3.816  16.636  0.00  0.00    +0.000 C 
BRANCH  28  29
ATOM     29  C   UNL     1       5.565   4.486  16.426  0.00  0.00    +0.000 C 
BRANCH  29  30
ATOM     30  C   UNL     1       5.376   5.952  16.063  0.00  0.00    +0.000 C 
BRANCH  30  32
ATOM     31  C   UNL     1       7.109   6.028  17.863  0.00  0.00    +0.000 C 
ATOM     32  C   UNL     1       6.157   6.849  17.013  0.00  0.00    +0.000 C 
ENDBRANCH  30  32
ENDBRANCH  29  30
ENDBRANCH  28  29
ENDBRANCH  27  28
ENDBRANCH  26  27
ENDBRANCH  25  26
ENDBRANCH  24  25
ENDBRANCH  23  24
ENDBRANCH  22  23
ENDBRANCH  21  22
ENDBRANCH  20  21
ENDBRANCH  19  20
ENDBRANCH  18  19
ENDBRANCH   1  18
TORSDOF 22
ENDMDL
MODEL 9
REMARK VINA RESULT:      -5.3      1.993      4.591
REMARK  Name = 
REMARK  23 active torsions:
REMARK  status: ('A' for Active; 'I' for Inactive)
REMARK    1  A    between atoms: C_1  and  C_2
REMARK    2  A    between atoms: C_2  and  C_3
REMARK    3  A    between atoms: C_3  and  C_4
REMARK    4  A    between atoms: C_4  and  C_5
REMARK    5  A    between atoms: C_5  and  C_6
REMARK    6  A    between atoms: C_6  and  C_7
REMARK    7  A    between atoms: C_7  and  C_8
REMARK    8  A    between atoms: C_8  and  C_9
REMARK    9  A    between atoms: C_9  and  C_10
REMARK   10  A    between atoms: C_10  and  C_11
REMARK   11  A    between atoms: C_11  and  C_12
REMARK   12  A    between atoms: C_12  and  C_13
REMARK   13  A    between atoms: C_13  and  C_14
REMARK   14  A    between atoms: C_14  and  C_15
REMARK   15  A    between atoms: C_15  and  C_16
REMARK   16  A    between atoms: C_16  and  N_17
REMARK   17  A    between atoms: N_17  and  C_18
REMARK   18  A    between atoms: C_21  and  C_22
REMARK   19  A    between atoms: C_22  and  O_24
REMARK   20  A    between atoms: O_24  and  C_25
REMARK   21  A    between atoms: C_25  and  C_26
REMARK   22  A    between atoms: C_26  and  C_27
REMARK   23  A    between atoms: C_27  and  O_28
REMARK                            x       y       z     vdW  Elec       q    Type
REMARK                         _______ _______ _______ _____ _____    ______ ____
ROOT
ATOM      1  C   UNL     1       2.442   7.372  18.489  0.00  0.00    +0.000 C 
ENDROOT
BRANCH   1   2
ATOM      2  N   UNL     1       2.190   7.434  19.921  0.00  0.00    +0.000 N 
ATOM      3  H   UNL     1       2.840   6.936  20.520  0.00  0.00    +0.000 HD
BRANCH   2   4
ATOM      4  C   UNL     1       1.429   8.462  20.463  0.00  0.00    +0.000 A 
ATOM      5  C   UNL     1       1.256   8.615  21.845  0.00  0.00    +0.000 A 
ATOM      6  C   UNL     1       0.507   9.674  22.374  0.00  0.00    +0.000 A 
ATOM      7  C   UNL     1      -0.042  10.652  21.533  0.00  0.00    +0.000 A 
ATOM      8  C   UNL     1       0.141  10.526  20.149  0.00  0.00    +0.000 A 
ATOM      9  C   UNL     1       0.881   9.451  19.632  0.00  0.00    +0.000 A 
BRANCH   7  10
ATOM     10  C   UNL     1      -0.809  11.785  22.138  0.00  0.00    +0.000 C 
ATOM     11  O   UNL     1      -1.147  11.829  23.321  0.00  0.00    +0.000 OA
BRANCH  10  12
ATOM     12  O   UNL     1      -1.148  12.685  21.186  0.00  0.00    +0.000 OA
BRANCH  12  13
ATOM     13  C   UNL     1      -0.479  13.951  21.302  0.00  0.00    +0.000 C 
BRANCH  13  14
ATOM     14  C   UNL     1       0.528  14.194  20.191  0.00  0.00    +0.000 C 
BRANCH  14  15
ATOM     15  C   UNL     1      -0.143  14.554  18.872  0.00  0.00    +0.000 C 
BRANCH  15  16
ATOM     16  O   UNL     1      -1.003  13.502  18.475  0.00  0.00    +0.000 OA
ATOM     17  H   UNL     1      -1.801  13.889  18.073  0.00  0.00    +0.000 HD
ENDBRANCH  15  16
ENDBRANCH  14  15
ENDBRANCH  13  14
ENDBRANCH  12  13
ENDBRANCH  10  12
ENDBRANCH   7  10
ENDBRANCH   2   4
ENDBRANCH   1   2
BRANCH   1  18
ATOM     18  C   UNL     1       3.683   6.538  18.211  0.00  0.00    +0.000 C 
BRANCH  18  19
ATOM     19  C   UNL     1       4.342   6.110  19.516  0.00  0.00    +0.000 C 
BRANCH  19  20
ATOM     20  C   UNL     1       5.395   5.040  19.265  0.00  0.00    +0.000 C 
BRANCH  20  21
ATOM     21  C   UNL     1       6.783   5.661  19.244  0.00  0.00    +0.000 C 
BRANCH  21  22
ATOM     22  C   UNL     1       7.246   5.868  17.812  0.00  0.00    +0.000 C 
BRANCH  22  23
ATOM     23  C   UNL     1       7.367   4.532  17.100  0.00  0.00    +0.000 C 
BRANCH  23  24
ATOM     24  C   UNL     1       6.770   4.628  15.707  0.00  0.00    +0.000 C 
BRANCH  24  25
ATOM     25  C   UNL     1       5.255   4.680  15.792  0.00  0.00    +0.000 C 
BRANCH  25  26
ATOM     26  C   UNL     1       4.696   3.281  15.976  0.00  0.00    +0.000 C 
BRANCH  26  27
ATOM     27  C   UNL     1       4.115   3.131  17.373  0.00  0.00    +0.000 C 
BRANCH  27  28
ATOM     28  C   UNL     1       2.688   2.615  17.294  0.00  0.00    +0.000 C 
BRANCH  28  29
ATOM     29  C   UNL     1       1.727   3.637  17.885  0.00  0.00    +0.000 C 
BRANCH  29  30
ATOM     30  C   UNL     1       1.030   3.060  19.108  0.00  0.00    +0.000 C 
BRANCH  30  32
ATOM     31  C   UNL     1       2.033   3.479  21.360  0.00  0.00    +0.000 C 
ATOM     32  C   UNL     1       1.114   4.025  20.284  0.00  0.00    +0.000 C 
ENDBRANCH  30  32
ENDBRANCH  29  30
ENDBRANCH  28  29
ENDBRANCH  27  28
ENDBRANCH  26  27
ENDBRANCH  25  26
ENDBRANCH  24  25
ENDBRANCH  23  24
ENDBRANCH  22  23
ENDBRANCH  21  22
ENDBRANCH  20  21
ENDBRANCH  19  20
ENDBRANCH  18  19
ENDBRANCH   1  18
TORSDOF 22
ENDMDL
