MODEL 1
REMARK VINA RESULT:      -7.2      0.000      0.000
REMARK  Name = 
REMARK  3 active torsions:
REMARK  status: ('A' for Active; 'I' for Inactive)
REMARK    1  A    between atoms: C_1  and  C_2
REMARK    2  A    between atoms: N_7  and  N_8
REMARK    3  A    between atoms: C_11  and  C_12
REMARK                            x       y       z     vdW  Elec       q    Type
REMARK                         _______ _______ _______ _____ _____    ______ ____
ROOT
ATOM      1  N   UNL     1       1.531   7.428  21.067  0.00  0.00    +0.000 N 
ATOM      2  C   UNL     1       2.039   6.407  20.318  0.00  0.00    +0.000 A 
ATOM      3  N   UNL     1       2.823   6.523  19.268  0.00  0.00    +0.000 NA
ATOM      4  C   UNL     1       3.105   5.282  18.722  0.00  0.00    +0.000 A 
ATOM      5  C   UNL     1       2.528   4.216  19.380  0.00  0.00    +0.000 A 
ATOM      6  S   UNL     1       1.643   4.778  20.736  0.00  0.00    +0.000 S 
ATOM      7  H   UNL     1       0.920   7.127  21.820  0.00  0.00    +0.000 HD
ENDROOT
BRANCH   1  14
ATOM      8  C   UNL     1      -0.217  10.775  19.131  0.00  0.00    +0.000 C 
ATOM      9  C   UNL     1       0.157  10.825  20.600  0.00  0.00    +0.000 C 
ATOM     10  C   UNL     1      -1.029  11.192  21.494  0.00  0.00    +0.000 C 
ATOM     11  C   UNL     1      -0.667  10.620  22.857  0.00  0.00    +0.000 C 
ATOM     12  C   UNL     1      -0.039   9.262  22.556  0.00  0.00    +0.000 C 
ATOM     13  C   UNL     1       0.542   9.479  21.180  0.00  0.00    +0.000 C 
ATOM     14  N   UNL     1       1.301   8.659  20.522  0.00  0.00    +0.000 NA
ENDBRANCH   1  14
BRANCH   4  15
ATOM     15  C   UNL     1       3.971   5.156  17.555  0.00  0.00    +0.000 A 
ATOM     16  C   UNL     1       4.307   3.877  17.086  0.00  0.00    +0.000 A 
ATOM     17  C   UNL     1       5.143   3.719  15.976  0.00  0.00    +0.000 A 
ATOM     18  C   UNL     1       5.656   4.842  15.333  0.00  0.00    +0.000 A 
ATOM     19  I   UNL     1       6.926   4.614  13.703  0.00  0.00    +0.000 I 
ATOM     20  C   UNL     1       5.334   6.122  15.787  0.00  0.00    +0.000 A 
ATOM     21  C   UNL     1       4.492   6.276  16.893  0.00  0.00    +0.000 A 
ENDBRANCH   4  15
TORSDOF 2
ENDMDL
MODEL 2
REMARK VINA RESULT:      -7.2      0.203      1.098
REMARK  Name = 
REMARK  3 active torsions:
REMARK  status: ('A' for Active; 'I' for Inactive)
REMARK    1  A    between atoms: C_1  and  C_2
REMARK    2  A    between atoms: N_7  and  N_8
REMARK    3  A    between atoms: C_11  and  C_12
REMARK                            x       y       z     vdW  Elec       q    Type
REMARK                         _______ _______ _______ _____ _____    ______ ____
ROOT
ATOM      1  N   UNL     1       1.665   7.339  20.998  0.00  0.00    +0.000 N 
ATOM      2  C   UNL     1       2.193   6.302  20.287  0.00  0.00    +0.000 A 
ATOM      3  N   UNL     1       2.958   6.395  19.221  0.00  0.00    +0.000 NA
ATOM      4  C   UNL     1       3.270   5.140  18.725  0.00  0.00    +0.000 A 
ATOM      5  C   UNL     1       2.736   4.087  19.438  0.00  0.00    +0.000 A 
ATOM      6  S   UNL     1       1.854   4.682  20.783  0.00  0.00    +0.000 S 
ATOM      7  H   UNL     1       1.074   7.054  21.774  0.00  0.00    +0.000 HD
ENDROOT
BRANCH   1  14
ATOM      8  C   UNL     1      -0.227  10.558  18.980  0.00  0.00    +0.000 C 
ATOM      9  C   UNL     1       0.213  10.687  20.426  0.00  0.00    +0.000 C 
ATOM     10  C   UNL     1      -0.938  11.081  21.354  0.00  0.00    +0.000 C 
ATOM     11  C   UNL     1      -0.505  10.584  22.727  0.00  0.00    +0.000 C 
ATOM     12  C   UNL     1       0.132   9.223  22.465  0.00  0.00    +0.000 C 
ATOM     13  C   UNL     1       0.646   9.379  21.054  0.00  0.00    +0.000 C 
ATOM     14  N   UNL     1       1.389   8.538  20.404  0.00  0.00    +0.000 NA
ENDBRANCH   1  14
BRANCH   4  15
ATOM     15  C   UNL     1       4.122   4.988  17.551  0.00  0.00    +0.000 A 
ATOM     16  C   UNL     1       4.549   6.132  16.861  0.00  0.00    +0.000 A 
ATOM     17  C   UNL     1       5.358   6.022  15.725  0.00  0.00    +0.000 A 
ATOM     18  C   UNL     1       5.737   4.763  15.268  0.00  0.00    +0.000 A 
ATOM     19  I   UNL     1       6.912   4.592  13.562  0.00  0.00    +0.000 I 
ATOM     20  C   UNL     1       5.321   3.614  15.941  0.00  0.00    +0.000 A 
ATOM     21  C   UNL     1       4.517   3.728  17.080  0.00  0.00    +0.000 A 
ENDBRANCH   4  15
TORSDOF 2
ENDMDL
MODEL 3
REMARK VINA RESULT:      -7.1      4.076      8.131
REMARK  Name = 
REMARK  3 active torsions:
REMARK  status: ('A' for Active; 'I' for Inactive)
REMARK    1  A    between atoms: C_1  and  C_2
REMARK    2  A    between atoms: N_7  and  N_8
REMARK    3  A    between atoms: C_11  and  C_12
REMARK                            x       y       z     vdW  Elec       q    Type
REMARK                         _______ _______ _______ _____ _____    ______ ____
ROOT
ATOM      1  N   UNL     1       3.343   6.182  19.138  0.00  0.00    +0.000 N 
ATOM      2  C   UNL     1       2.634   7.346  19.077  0.00  0.00    +0.000 A 
ATOM      3  N   UNL     1       1.879   7.852  20.028  0.00  0.00    +0.000 NA
ATOM      4  C   UNL     1       1.266   9.019  19.605  0.00  0.00    +0.000 A 
ATOM      5  C   UNL     1       1.575   9.400  18.316  0.00  0.00    +0.000 A 
ATOM      6  S   UNL     1       2.688   8.290  17.631  0.00  0.00    +0.000 S 
ATOM      7  H   UNL     1       3.841   5.953  18.283  0.00  0.00    +0.000 HD
ENDROOT
BRANCH   1  14
ATOM      8  C   UNL     1       1.061   3.165  21.060  0.00  0.00    +0.000 C 
ATOM      9  C   UNL     1       2.221   2.812  20.149  0.00  0.00    +0.000 C 
ATOM     10  C   UNL     1       1.807   1.878  19.010  0.00  0.00    +0.000 C 
ATOM     11  C   UNL     1       2.848   2.120  17.925  0.00  0.00    +0.000 C 
ATOM     12  C   UNL     1       3.077   3.628  17.934  0.00  0.00    +0.000 C 
ATOM     13  C   UNL     1       2.766   3.988  19.366  0.00  0.00    +0.000 C 
ATOM     14  N   UNL     1       2.936   5.145  19.927  0.00  0.00    +0.000 NA
ENDBRANCH   1  14
BRANCH   4  15
ATOM     15  C   UNL     1       0.389   9.771  20.496  0.00  0.00    +0.000 A 
ATOM     16  C   UNL     1      -0.340  10.855  19.985  0.00  0.00    +0.000 A 
ATOM     17  C   UNL     1      -1.182  11.605  20.813  0.00  0.00    +0.000 A 
ATOM     18  C   UNL     1      -1.293  11.277  22.162  0.00  0.00    +0.000 A 
ATOM     19  I   UNL     1      -2.518  12.407  23.405  0.00  0.00    +0.000 I 
ATOM     20  C   UNL     1      -0.574  10.203  22.688  0.00  0.00    +0.000 A 
ATOM     21  C   UNL     1       0.262   9.452  21.855  0.00  0.00    +0.000 A 
ENDBRANCH   4  15
TORSDOF 2
ENDMDL
MODEL 4
REMARK VINA RESULT:      -7.0      4.050      7.959
REMARK  Name = 
REMARK  3 active torsions:
REMARK  status: ('A' for Active; 'I' for Inactive)
REMARK    1  A    between atoms: C_1  and  C_2
REMARK    2  A    between atoms: N_7  and  N_8
REMARK    3  A    between atoms: C_11  and  C_12
REMARK                            x       y       z     vdW  Elec       q    Type
REMARK                         _______ _______ _______ _____ _____    ______ ____
ROOT
ATOM      1  N   UNL     1       3.514   6.050  19.053  0.00  0.00    +0.000 N 
ATOM      2  C   UNL     1       2.815   7.218  18.956  0.00  0.00    +0.000 A 
ATOM      3  N   UNL     1       2.058   7.754  19.888  0.00  0.00    +0.000 NA
ATOM      4  C   UNL     1       1.459   8.916  19.430  0.00  0.00    +0.000 A 
ATOM      5  C   UNL     1       1.780   9.260  18.134  0.00  0.00    +0.000 A 
ATOM      6  S   UNL     1       2.888   8.124  17.487  0.00  0.00    +0.000 S 
ATOM      7  H   UNL     1       4.015   5.794  18.207  0.00  0.00    +0.000 HD
ENDROOT
BRANCH   1  14
ATOM      8  C   UNL     1       1.158   3.230  21.175  0.00  0.00    +0.000 C 
ATOM      9  C   UNL     1       2.160   2.786  20.127  0.00  0.00    +0.000 C 
ATOM     10  C   UNL     1       1.518   1.937  19.028  0.00  0.00    +0.000 C 
ATOM     11  C   UNL     1       2.446   2.101  17.832  0.00  0.00    +0.000 C 
ATOM     12  C   UNL     1       2.836   3.576  17.841  0.00  0.00    +0.000 C 
ATOM     13  C   UNL     1       2.733   3.923  19.307  0.00  0.00    +0.000 C 
ATOM     14  N   UNL     1       3.091   5.037  19.865  0.00  0.00    +0.000 NA
ENDBRANCH   1  14
BRANCH   4  15
ATOM     15  C   UNL     1       0.581   9.698  20.294  0.00  0.00    +0.000 A 
ATOM     16  C   UNL     1       0.478   9.362  21.653  0.00  0.00    +0.000 A 
ATOM     17  C   UNL     1      -0.361  10.083  22.507  0.00  0.00    +0.000 A 
ATOM     18  C   UNL     1      -1.112  11.143  22.003  0.00  0.00    +0.000 A 
ATOM     19  I   UNL     1      -2.386  12.199  23.260  0.00  0.00    +0.000 I 
ATOM     20  C   UNL     1      -1.023  11.491  20.654  0.00  0.00    +0.000 A 
ATOM     21  C   UNL     1      -0.177  10.771  19.805  0.00  0.00    +0.000 A 
ENDBRANCH   4  15
TORSDOF 2
ENDMDL
MODEL 5
REMARK VINA RESULT:      -7.0      3.174      7.521
REMARK  Name = 
REMARK  3 active torsions:
REMARK  status: ('A' for Active; 'I' for Inactive)
REMARK    1  A    between atoms: C_1  and  C_2
REMARK    2  A    between atoms: N_7  and  N_8
REMARK    3  A    between atoms: C_11  and  C_12
REMARK                            x       y       z     vdW  Elec       q    Type
REMARK                         _______ _______ _______ _____ _____    ______ ____
ROOT
ATOM      1  N   UNL     1       4.200   4.145  19.287  0.00  0.00    +0.000 N 
ATOM      2  C   UNL     1       3.234   5.002  19.728  0.00  0.00    +0.000 A 
ATOM      3  N   UNL     1       3.058   6.247  19.340  0.00  0.00    +0.000 NA
ATOM      4  C   UNL     1       2.016   6.838  20.033  0.00  0.00    +0.000 A 
ATOM      5  C   UNL     1       1.394   6.019  20.952  0.00  0.00    +0.000 A 
ATOM      6  S   UNL     1       2.107   4.461  20.920  0.00  0.00    +0.000 S 
ATOM      7  H   UNL     1       4.183   3.235  19.736  0.00  0.00    +0.000 HD
ENDROOT
BRANCH   1  14
ATOM      8  C   UNL     1       8.164   4.435  17.801  0.00  0.00    +0.000 C 
ATOM      9  C   UNL     1       6.984   4.949  16.998  0.00  0.00    +0.000 C 
ATOM     10  C   UNL     1       6.905   4.319  15.606  0.00  0.00    +0.000 C 
ATOM     11  C   UNL     1       5.440   4.449  15.214  0.00  0.00    +0.000 C 
ATOM     12  C   UNL     1       4.665   4.131  16.489  0.00  0.00    +0.000 C 
ATOM     13  C   UNL     1       5.637   4.552  17.564  0.00  0.00    +0.000 C 
ATOM     14  N   UNL     1       5.405   4.605  18.839  0.00  0.00    +0.000 NA
ENDBRANCH   1  14
BRANCH   4  15
ATOM     15  C   UNL     1       1.622   8.217  19.763  0.00  0.00    +0.000 A 
ATOM     16  C   UNL     1       1.001   8.964  20.776  0.00  0.00    +0.000 A 
ATOM     17  C   UNL     1       0.601  10.284  20.548  0.00  0.00    +0.000 A 
ATOM     18  C   UNL     1       0.811  10.863  19.299  0.00  0.00    +0.000 A 
ATOM     19  I   UNL     1       0.189  12.814  18.944  0.00  0.00    +0.000 I 
ATOM     20  C   UNL     1       1.425  10.135  18.279  0.00  0.00    +0.000 A 
ATOM     21  C   UNL     1       1.830   8.816  18.513  0.00  0.00    +0.000 A 
ENDBRANCH   4  15
TORSDOF 2
ENDMDL
MODEL 6
REMARK VINA RESULT:      -6.9      3.149      7.513
REMARK  Name = 
REMARK  3 active torsions:
REMARK  status: ('A' for Active; 'I' for Inactive)
REMARK    1  A    between atoms: C_1  and  C_2
REMARK    2  A    between atoms: N_7  and  N_8
REMARK    3  A    between atoms: C_11  and  C_12
REMARK                            x       y       z     vdW  Elec       q    Type
REMARK                         _______ _______ _______ _____ _____    ______ ____
ROOT
ATOM      1  N   UNL     1       4.193   4.107  19.184  0.00  0.00    +0.000 N 
ATOM      2  C   UNL     1       3.233   4.955  19.655  0.00  0.00    +0.000 A 
ATOM      3  N   UNL     1       3.059   6.211  19.302  0.00  0.00    +0.000 NA
ATOM      4  C   UNL     1       2.022   6.786  20.017  0.00  0.00    +0.000 A 
ATOM      5  C   UNL     1       1.403   5.943  20.917  0.00  0.00    +0.000 A 
ATOM      6  S   UNL     1       2.111   4.384  20.837  0.00  0.00    +0.000 S 
ATOM      7  H   UNL     1       4.176   3.184  19.607  0.00  0.00    +0.000 HD
ENDROOT
BRANCH   1  14
ATOM      8  C   UNL     1       8.153   4.425  17.694  0.00  0.00    +0.000 C 
ATOM      9  C   UNL     1       6.972   4.955  16.904  0.00  0.00    +0.000 C 
ATOM     10  C   UNL     1       6.890   4.352  15.500  0.00  0.00    +0.000 C 
ATOM     11  C   UNL     1       5.424   4.491  15.114  0.00  0.00    +0.000 C 
ATOM     12  C   UNL     1       4.652   4.147  16.385  0.00  0.00    +0.000 C 
ATOM     13  C   UNL     1       5.626   4.547  17.466  0.00  0.00    +0.000 C 
ATOM     14  N   UNL     1       5.397   4.576  18.742  0.00  0.00    +0.000 NA
ENDBRANCH   1  14
BRANCH   4  15
ATOM     15  C   UNL     1       1.632   8.172  19.788  0.00  0.00    +0.000 A 
ATOM     16  C   UNL     1       1.822   8.738  18.518  0.00  0.00    +0.000 A 
ATOM     17  C   UNL     1       1.469  10.067  18.267  0.00  0.00    +0.000 A 
ATOM     18  C   UNL     1       0.930  10.844  19.290  0.00  0.00    +0.000 A 
ATOM     19  I   UNL     1       0.433  12.830  18.932  0.00  0.00    +0.000 I 
ATOM     20  C   UNL     1       0.735  10.298  20.560  0.00  0.00    +0.000 A 
ATOM     21  C   UNL     1       1.084   8.966  20.806  0.00  0.00    +0.000 A 
ENDBRANCH   4  15
TORSDOF 2
ENDMDL
MODEL 7
REMARK VINA RESULT:      -6.9      4.371      8.514
REMARK  Name = 
REMARK  3 active torsions:
REMARK  status: ('A' for Active; 'I' for Inactive)
REMARK    1  A    between atoms: C_1  and  C_2
REMARK    2  A    between atoms: N_7  and  N_8
REMARK    3  A    between atoms: C_11  and  C_12
REMARK                            x       y       z     vdW  Elec       q    Type
REMARK                         _______ _______ _______ _____ _____    ______ ____
ROOT
ATOM      1  N   UNL     1       2.615   7.154  19.315  0.00  0.00    +0.000 N 
ATOM      2  C   UNL     1       1.888   8.309  19.303  0.00  0.00    +0.000 A 
ATOM      3  N   UNL     1       1.119   8.758  20.272  0.00  0.00    +0.000 NA
ATOM      4  C   UNL     1       0.492   9.935  19.899  0.00  0.00    +0.000 A 
ATOM      5  C   UNL     1       0.802  10.380  18.631  0.00  0.00    +0.000 A 
ATOM      6  S   UNL     1       1.936   9.320  17.903  0.00  0.00    +0.000 S 
ATOM      7  H   UNL     1       3.120   6.973  18.453  0.00  0.00    +0.000 HD
ENDROOT
BRANCH   1  14
ATOM      8  C   UNL     1       0.965   3.454  20.577  0.00  0.00    +0.000 C 
ATOM      9  C   UNL     1       2.459   3.707  20.631  0.00  0.00    +0.000 C 
ATOM     10  C   UNL     1       3.258   2.660  19.852  0.00  0.00    +0.000 C 
ATOM     11  C   UNL     1       4.564   3.362  19.505  0.00  0.00    +0.000 C 
ATOM     12  C   UNL     1       4.155   4.780  19.121  0.00  0.00    +0.000 C 
ATOM     13  C   UNL     1       2.892   4.975  19.925  0.00  0.00    +0.000 C 
ATOM     14  N   UNL     1       2.218   6.075  20.052  0.00  0.00    +0.000 NA
ENDBRANCH   1  14
BRANCH   4  15
ATOM     15  C   UNL     1      -0.403  10.631  20.817  0.00  0.00    +0.000 A 
ATOM     16  C   UNL     1      -1.251  11.633  20.322  0.00  0.00    +0.000 A 
ATOM     17  C   UNL     1      -2.112  12.328  21.176  0.00  0.00    +0.000 A 
ATOM     18  C   UNL     1      -2.124  12.030  22.536  0.00  0.00    +0.000 A 
ATOM     19  I   UNL     1      -3.379  13.082  23.816  0.00  0.00    +0.000 I 
ATOM     20  C   UNL     1      -1.286  11.038  23.047  0.00  0.00    +0.000 A 
ATOM     21  C   UNL     1      -0.430  10.340  22.189  0.00  0.00    +0.000 A 
ENDBRANCH   4  15
TORSDOF 2
ENDMDL
MODEL 8
REMARK VINA RESULT:      -6.9      4.387      8.479
REMARK  Name = 
REMARK  3 active torsions:
REMARK  status: ('A' for Active; 'I' for Inactive)
REMARK    1  A    between atoms: C_1  and  C_2
REMARK    2  A    between atoms: N_7  and  N_8
REMARK    3  A    between atoms: C_11  and  C_12
REMARK                            x       y       z     vdW  Elec       q    Type
REMARK                         _______ _______ _______ _____ _____    ______ ____
ROOT
ATOM      1  N   UNL     1       2.595   7.226  19.321  0.00  0.00    +0.000 N 
ATOM      2  C   UNL     1       1.871   8.382  19.300  0.00  0.00    +0.000 A 
ATOM      3  N   UNL     1       1.094   8.835  20.261  0.00  0.00    +0.000 NA
ATOM      4  C   UNL     1       0.473  10.012  19.881  0.00  0.00    +0.000 A 
ATOM      5  C   UNL     1       0.796  10.455  18.616  0.00  0.00    +0.000 A 
ATOM      6  S   UNL     1       1.934   9.391  17.900  0.00  0.00    +0.000 S 
ATOM      7  H   UNL     1       3.109   7.043  18.464  0.00  0.00    +0.000 HD
ENDROOT
BRANCH   1  14
ATOM      8  C   UNL     1       0.927   3.531  20.571  0.00  0.00    +0.000 C 
ATOM      9  C   UNL     1       2.421   3.781  20.640  0.00  0.00    +0.000 C 
ATOM     10  C   UNL     1       3.226   2.732  19.871  0.00  0.00    +0.000 C 
ATOM     11  C   UNL     1       4.536   3.430  19.536  0.00  0.00    +0.000 C 
ATOM     12  C   UNL     1       4.133   4.849  19.145  0.00  0.00    +0.000 C 
ATOM     13  C   UNL     1       2.863   5.047  19.937  0.00  0.00    +0.000 C 
ATOM     14  N   UNL     1       2.190   6.149  20.055  0.00  0.00    +0.000 NA
ENDBRANCH   1  14
BRANCH   4  15
ATOM     15  C   UNL     1      -0.429  10.711  20.790  0.00  0.00    +0.000 A 
ATOM     16  C   UNL     1      -0.434  10.368  22.151  0.00  0.00    +0.000 A 
ATOM     17  C   UNL     1      -1.293  11.010  23.047  0.00  0.00    +0.000 A 
ATOM     18  C   UNL     1      -2.161  11.997  22.586  0.00  0.00    +0.000 A 
ATOM     19  I   UNL     1      -3.462  12.933  23.908  0.00  0.00    +0.000 I 
ATOM     20  C   UNL     1      -2.170  12.351  21.236  0.00  0.00    +0.000 A 
ATOM     21  C   UNL     1      -1.305  11.710  20.343  0.00  0.00    +0.000 A 
ENDBRANCH   4  15
TORSDOF 2
ENDMDL
MODEL 9
REMARK VINA RESULT:      -6.8      2.700      3.780
REMARK  Name = 
REMARK  3 active torsions:
REMARK  status: ('A' for Active; 'I' for Inactive)
REMARK    1  A    between atoms: C_1  and  C_2
REMARK    2  A    between atoms: N_7  and  N_8
REMARK    3  A    between atoms: C_11  and  C_12
REMARK                            x       y       z     vdW  Elec       q    Type
REMARK                         _______ _______ _______ _____ _____    ______ ____
ROOT
ATOM      1  N   UNL     1      -0.140  10.449  19.004  0.00  0.00    +0.000 N 
ATOM      2  C   UNL     1       0.720   9.418  19.248  0.00  0.00    +0.000 A 
ATOM      3  N   UNL     1       1.434   8.769  18.354  0.00  0.00    +0.000 NA
ATOM      4  C   UNL     1       2.158   7.748  18.946  0.00  0.00    +0.000 A 
ATOM      5  C   UNL     1       1.989   7.635  20.310  0.00  0.00    +0.000 A 
ATOM      6  S   UNL     1       0.929   8.861  20.869  0.00  0.00    +0.000 S 
ATOM      7  H   UNL     1      -0.619  10.794  19.829  0.00  0.00    +0.000 HD
ENDROOT
BRANCH   1  14
ATOM      8  C   UNL     1      -2.661   9.831  15.647  0.00  0.00    +0.000 C 
ATOM      9  C   UNL     1      -2.831  11.042  16.544  0.00  0.00    +0.000 C 
ATOM     10  C   UNL     1      -4.245  11.151  17.118  0.00  0.00    +0.000 C 
ATOM     11  C   UNL     1      -4.077  11.978  18.385  0.00  0.00    +0.000 C 
ATOM     12  C   UNL     1      -2.790  11.461  19.020  0.00  0.00    +0.000 C 
ATOM     13  C   UNL     1      -2.014  10.980  17.818  0.00  0.00    +0.000 C 
ATOM     14  N   UNL     1      -0.786  10.565  17.806  0.00  0.00    +0.000 NA
ENDBRANCH   1  14
BRANCH   4  15
ATOM     15  C   UNL     1       3.039   6.896  18.155  0.00  0.00    +0.000 A 
ATOM     16  C   UNL     1       4.044   7.486  17.374  0.00  0.00    +0.000 A 
ATOM     17  C   UNL     1       4.899   6.700  16.595  0.00  0.00    +0.000 A 
ATOM     18  C   UNL     1       4.747   5.315  16.587  0.00  0.00    +0.000 A 
ATOM     19  I   UNL     1       5.993   4.144  15.406  0.00  0.00    +0.000 I 
ATOM     20  C   UNL     1       3.752   4.711  17.357  0.00  0.00    +0.000 A 
ATOM     21  C   UNL     1       2.903   5.500  18.139  0.00  0.00    +0.000 A 
ENDBRANCH   4  15
TORSDOF 2
ENDMDL
