MODEL 1
REMARK VINA RESULT:      -7.1      0.000      0.000
REMARK  Name = 
REMARK  5 active torsions:
REMARK  status: ('A' for Active; 'I' for Inactive)
REMARK    1  A    between atoms: C_1  and  C_2
REMARK    2  A    between atoms: C_2  and  N_3
REMARK    3  A    between atoms: C_2  and  C_14
REMARK    4  A    between atoms: C_4  and  C_6
REMARK    5  A    between atoms: C_9  and  C_10
REMARK                            x       y       z     vdW  Elec       q    Type
REMARK                         _______ _______ _______ _____ _____    ______ ____
ROOT
ATOM      1  N   UNL     1       4.786   2.976  18.845  0.00  0.00    +0.000 N 
ATOM      2  C   UNL     1       5.353   4.208  18.559  0.00  0.00    +0.000 C 
ATOM      3  O   UNL     1       5.467   5.119  19.364  0.00  0.00    +0.000 OA
ATOM      4  H   UNL     1       4.893   2.225  18.179  0.00  0.00    +0.000 HD
ENDROOT
BRANCH   2   5
ATOM      5  C   UNL     1       5.870   4.371  17.166  0.00  0.00    +0.000 A 
ATOM      6  C   UNL     1       7.187   4.773  16.914  0.00  0.00    +0.000 A 
ATOM      7  C   UNL     1       7.631   4.946  15.602  0.00  0.00    +0.000 A 
ATOM      8  C   UNL     1       6.772   4.698  14.525  0.00  0.00    +0.000 A 
ATOM      9  C   UNL     1       5.462   4.267  14.774  0.00  0.00    +0.000 A 
ATOM     10  C   UNL     1       5.013   4.097  16.087  0.00  0.00    +0.000 A 
BRANCH   8  11
ATOM     11  C   UNL     1       7.228   4.886  13.180  0.00  0.00    +0.000 C 
ATOM     12  N   UNL     1       7.604   5.043  12.087  0.00  0.00    +0.000 NA
ENDBRANCH   8  11
ENDBRANCH   2   5
BRANCH   1  14
ATOM     13  C   UNL     1       5.065   1.472  20.780  0.00  0.00    +0.000 C 
ATOM     14  C   UNL     1       4.276   2.638  20.170  0.00  0.00    +0.000 C 
BRANCH  14  15
ATOM     15  C   UNL     1       2.755   2.323  20.143  0.00  0.00    +0.000 C 
ATOM     16  C   UNL     1       2.077   2.468  18.756  0.00  0.00    +0.000 C 
ATOM     17  C   UNL     1       1.113   3.649  18.957  0.00  0.00    +0.000 C 
ATOM     18  C   UNL     1       1.895   4.941  19.286  0.00  0.00    +0.000 C 
ATOM     19  C   UNL     1       2.287   4.751  20.760  0.00  0.00    +0.000 C 
ATOM     20  C   UNL     1       1.888   3.290  21.013  0.00  0.00    +0.000 C 
ATOM     21  C   UNL     1       0.522   3.276  20.314  0.00  0.00    +0.000 C 
ENDBRANCH  14  15
ENDBRANCH   1  14
TORSDOF 4
ENDMDL
MODEL 2
REMARK VINA RESULT:      -7.0      0.097      1.086
REMARK  Name = 
REMARK  5 active torsions:
REMARK  status: ('A' for Active; 'I' for Inactive)
REMARK    1  A    between atoms: C_1  and  C_2
REMARK    2  A    between atoms: C_2  and  N_3
REMARK    3  A    between atoms: C_2  and  C_14
REMARK    4  A    between atoms: C_4  and  C_6
REMARK    5  A    between atoms: C_9  and  C_10
REMARK                            x       y       z     vdW  Elec       q    Type
REMARK                         _______ _______ _______ _____ _____    ______ ____
ROOT
ATOM      1  N   UNL     1       4.748   3.033  18.837  0.00  0.00    +0.000 N 
ATOM      2  C   UNL     1       5.407   4.219  18.554  0.00  0.00    +0.000 C 
ATOM      3  O   UNL     1       5.657   5.083  19.379  0.00  0.00    +0.000 OA
ATOM      4  H   UNL     1       4.742   2.302  18.140  0.00  0.00    +0.000 HD
ENDROOT
BRANCH   2   5
ATOM      5  C   UNL     1       5.846   4.389  17.135  0.00  0.00    +0.000 A 
ATOM      6  C   UNL     1       4.994   4.100  16.062  0.00  0.00    +0.000 A 
ATOM      7  C   UNL     1       5.444   4.241  14.749  0.00  0.00    +0.000 A 
ATOM      8  C   UNL     1       6.743   4.695  14.491  0.00  0.00    +0.000 A 
ATOM      9  C   UNL     1       7.587   5.014  15.562  0.00  0.00    +0.000 A 
ATOM     10  C   UNL     1       7.141   4.870  16.879  0.00  0.00    +0.000 A 
BRANCH   8  11
ATOM     11  C   UNL     1       7.204   4.830  13.140  0.00  0.00    +0.000 C 
ATOM     12  N   UNL     1       7.579   4.934  12.041  0.00  0.00    +0.000 NA
ENDBRANCH   8  11
ENDBRANCH   2   5
BRANCH   1  14
ATOM     13  C   UNL     1       5.103   1.515  20.749  0.00  0.00    +0.000 C 
ATOM     14  C   UNL     1       4.296   2.690  20.182  0.00  0.00    +0.000 C 
BRANCH  14  15
ATOM     15  C   UNL     1       2.773   2.387  20.221  0.00  0.00    +0.000 C 
ATOM     16  C   UNL     1       2.056   2.435  18.847  0.00  0.00    +0.000 C 
ATOM     17  C   UNL     1       1.105   3.637  18.989  0.00  0.00    +0.000 C 
ATOM     18  C   UNL     1       1.904   4.942  19.199  0.00  0.00    +0.000 C 
ATOM     19  C   UNL     1       2.338   4.858  20.671  0.00  0.00    +0.000 C 
ATOM     20  C   UNL     1       1.938   3.422  21.042  0.00  0.00    +0.000 C 
ATOM     21  C   UNL     1       0.552   3.369  20.385  0.00  0.00    +0.000 C 
ENDBRANCH  14  15
ENDBRANCH   1  14
TORSDOF 4
ENDMDL
MODEL 3
REMARK VINA RESULT:      -6.8      4.297      6.323
REMARK  Name = 
REMARK  5 active torsions:
REMARK  status: ('A' for Active; 'I' for Inactive)
REMARK    1  A    between atoms: C_1  and  C_2
REMARK    2  A    between atoms: C_2  and  N_3
REMARK    3  A    between atoms: C_2  and  C_14
REMARK    4  A    between atoms: C_4  and  C_6
REMARK    5  A    between atoms: C_9  and  C_10
REMARK                            x       y       z     vdW  Elec       q    Type
REMARK                         _______ _______ _______ _____ _____    ______ ____
ROOT
ATOM      1  N   UNL     1       3.254   6.356  19.120  0.00  0.00    +0.000 N 
ATOM      2  C   UNL     1       2.240   6.833  19.935  0.00  0.00    +0.000 C 
ATOM      3  O   UNL     1       1.787   6.232  20.897  0.00  0.00    +0.000 OA
ATOM      4  H   UNL     1       3.687   6.988  18.463  0.00  0.00    +0.000 HD
ENDROOT
BRANCH   2   5
ATOM      5  C   UNL     1       1.720   8.191  19.589  0.00  0.00    +0.000 A 
ATOM      6  C   UNL     1       1.908   8.748  18.318  0.00  0.00    +0.000 A 
ATOM      7  C   UNL     1       1.437  10.031  18.035  0.00  0.00    +0.000 A 
ATOM      8  C   UNL     1       0.751  10.764  19.011  0.00  0.00    +0.000 A 
ATOM      9  C   UNL     1       0.535  10.197  20.273  0.00  0.00    +0.000 A 
ATOM     10  C   UNL     1       1.009   8.914  20.561  0.00  0.00    +0.000 A 
BRANCH   8  11
ATOM     11  C   UNL     1       0.277  12.085  18.720  0.00  0.00    +0.000 C 
ATOM     12  N   UNL     1      -0.109  13.158  18.477  0.00  0.00    +0.000 NA
ENDBRANCH   8  11
ENDBRANCH   2   5
BRANCH   1  14
ATOM     13  C   UNL     1       5.429   5.200  19.261  0.00  0.00    +0.000 C 
ATOM     14  C   UNL     1       3.903   5.069  19.351  0.00  0.00    +0.000 C 
BRANCH  14  15
ATOM     15  C   UNL     1       3.382   3.975  18.377  0.00  0.00    +0.000 C 
ATOM     16  C   UNL     1       1.963   4.224  17.806  0.00  0.00    +0.000 C 
ATOM     17  C   UNL     1       1.133   3.080  18.416  0.00  0.00    +0.000 C 
ATOM     18  C   UNL     1       1.096   3.194  19.956  0.00  0.00    +0.000 C 
ATOM     19  C   UNL     1       2.482   2.684  20.381  0.00  0.00    +0.000 C 
ATOM     20  C   UNL     1       3.210   2.567  19.034  0.00  0.00    +0.000 C 
ATOM     21  C   UNL     1       2.097   1.916  18.202  0.00  0.00    +0.000 C 
ENDBRANCH  14  15
ENDBRANCH   1  14
TORSDOF 4
ENDMDL
MODEL 4
REMARK VINA RESULT:      -6.8      4.311      6.382
REMARK  Name = 
REMARK  5 active torsions:
REMARK  status: ('A' for Active; 'I' for Inactive)
REMARK    1  A    between atoms: C_1  and  C_2
REMARK    2  A    between atoms: C_2  and  N_3
REMARK    3  A    between atoms: C_2  and  C_14
REMARK    4  A    between atoms: C_4  and  C_6
REMARK    5  A    between atoms: C_9  and  C_10
REMARK                            x       y       z     vdW  Elec       q    Type
REMARK                         _______ _______ _______ _____ _____    ______ ____
ROOT
ATOM      1  N   UNL     1       3.205   6.401  19.125  0.00  0.00    +0.000 N 
ATOM      2  C   UNL     1       2.215   6.853  19.984  0.00  0.00    +0.000 C 
ATOM      3  O   UNL     1       1.807   6.234  20.954  0.00  0.00    +0.000 OA
ATOM      4  H   UNL     1       3.604   7.048  18.460  0.00  0.00    +0.000 HD
ENDROOT
BRANCH   2   5
ATOM      5  C   UNL     1       1.662   8.207  19.674  0.00  0.00    +0.000 A 
ATOM      6  C   UNL     1       0.956   8.948  20.630  0.00  0.00    +0.000 A 
ATOM      7  C   UNL     1       0.425  10.197  20.301  0.00  0.00    +0.000 A 
ATOM      8  C   UNL     1       0.614  10.730  19.020  0.00  0.00    +0.000 A 
ATOM      9  C   UNL     1       1.347  10.005  18.072  0.00  0.00    +0.000 A 
ATOM     10  C   UNL     1       1.875   8.752  18.398  0.00  0.00    +0.000 A 
BRANCH   8  11
ATOM     11  C   UNL     1       0.061  12.009  18.683  0.00  0.00    +0.000 C 
ATOM     12  N   UNL     1      -0.385  13.051  18.409  0.00  0.00    +0.000 NA
ENDBRANCH   8  11
ENDBRANCH   2   5
BRANCH   1  14
ATOM     13  C   UNL     1       5.404   5.289  19.236  0.00  0.00    +0.000 C 
ATOM     14  C   UNL     1       3.881   5.122  19.315  0.00  0.00    +0.000 C 
BRANCH  14  15
ATOM     15  C   UNL     1       3.388   4.050  18.303  0.00  0.00    +0.000 C 
ATOM     16  C   UNL     1       1.951   4.266  17.764  0.00  0.00    +0.000 C 
ATOM     17  C   UNL     1       1.177   3.066  18.335  0.00  0.00    +0.000 C 
ATOM     18  C   UNL     1       1.160   3.113  19.879  0.00  0.00    +0.000 C 
ATOM     19  C   UNL     1       2.571   2.640  20.262  0.00  0.00    +0.000 C 
ATOM     20  C   UNL     1       3.281   2.610  18.901  0.00  0.00    +0.000 C 
ATOM     21  C   UNL     1       2.181   1.951  18.058  0.00  0.00    +0.000 C 
ENDBRANCH  14  15
ENDBRANCH   1  14
TORSDOF 4
ENDMDL
MODEL 5
REMARK VINA RESULT:      -6.8      3.988      7.435
REMARK  Name = 
REMARK  5 active torsions:
REMARK  status: ('A' for Active; 'I' for Inactive)
REMARK    1  A    between atoms: C_1  and  C_2
REMARK    2  A    between atoms: C_2  and  N_3
REMARK    3  A    between atoms: C_2  and  C_14
REMARK    4  A    between atoms: C_4  and  C_6
REMARK    5  A    between atoms: C_9  and  C_10
REMARK                            x       y       z     vdW  Elec       q    Type
REMARK                         _______ _______ _______ _____ _____    ______ ____
ROOT
ATOM      1  N   UNL     1       2.800   5.924  18.512  0.00  0.00    +0.000 N 
ATOM      2  C   UNL     1       2.675   7.274  18.225  0.00  0.00    +0.000 C 
ATOM      3  O   UNL     1       3.090   7.804  17.207  0.00  0.00    +0.000 OA
ATOM      4  H   UNL     1       2.275   5.540  19.285  0.00  0.00    +0.000 HD
ENDROOT
BRANCH   2   5
ATOM      5  C   UNL     1       1.949   8.086  19.249  0.00  0.00    +0.000 A 
ATOM      6  C   UNL     1       1.395   9.334  18.939  0.00  0.00    +0.000 A 
ATOM      7  C   UNL     1       0.750  10.082  19.925  0.00  0.00    +0.000 A 
ATOM      8  C   UNL     1       0.630   9.582  21.227  0.00  0.00    +0.000 A 
ATOM      9  C   UNL     1       1.157   8.321  21.533  0.00  0.00    +0.000 A 
ATOM     10  C   UNL     1       1.808   7.571  20.548  0.00  0.00    +0.000 A 
BRANCH   8  11
ATOM     11  C   UNL     1      -0.025  10.357  22.239  0.00  0.00    +0.000 C 
ATOM     12  N   UNL     1      -0.558  10.993  23.060  0.00  0.00    +0.000 NA
ENDBRANCH   8  11
ENDBRANCH   2   5
BRANCH   1  14
ATOM     13  C   UNL     1       2.527   3.783  17.317  0.00  0.00    +0.000 C 
ATOM     14  C   UNL     1       3.439   4.985  17.596  0.00  0.00    +0.000 C 
BRANCH  14  15
ATOM     15  C   UNL     1       4.826   4.518  18.118  0.00  0.00    +0.000 C 
ATOM     16  C   UNL     1       5.491   5.461  19.154  0.00  0.00    +0.000 C 
ATOM     17  C   UNL     1       6.732   5.981  18.409  0.00  0.00    +0.000 C 
ATOM     18  C   UNL     1       6.319   6.795  17.163  0.00  0.00    +0.000 C 
ATOM     19  C   UNL     1       5.919   5.710  16.149  0.00  0.00    +0.000 C 
ATOM     20  C   UNL     1       5.931   4.442  17.015  0.00  0.00    +0.000 C 
ATOM     21  C   UNL     1       7.232   4.678  17.793  0.00  0.00    +0.000 C 
ENDBRANCH  14  15
ENDBRANCH   1  14
TORSDOF 4
ENDMDL
MODEL 6
REMARK VINA RESULT:      -6.8      3.929      7.382
REMARK  Name = 
REMARK  5 active torsions:
REMARK  status: ('A' for Active; 'I' for Inactive)
REMARK    1  A    between atoms: C_1  and  C_2
REMARK    2  A    between atoms: C_2  and  N_3
REMARK    3  A    between atoms: C_2  and  C_14
REMARK    4  A    between atoms: C_4  and  C_6
REMARK    5  A    between atoms: C_9  and  C_10
REMARK                            x       y       z     vdW  Elec       q    Type
REMARK                         _______ _______ _______ _____ _____    ______ ____
ROOT
ATOM      1  N   UNL     1       2.918   5.836  18.516  0.00  0.00    +0.000 N 
ATOM      2  C   UNL     1       2.698   7.169  18.207  0.00  0.00    +0.000 C 
ATOM      3  O   UNL     1       2.999   7.689  17.144  0.00  0.00    +0.000 OA
ATOM      4  H   UNL     1       2.481   5.449  19.340  0.00  0.00    +0.000 HD
ENDROOT
BRANCH   2   5
ATOM      5  C   UNL     1       2.018   7.973  19.267  0.00  0.00    +0.000 A 
ATOM      6  C   UNL     1       1.894   7.503  20.580  0.00  0.00    +0.000 A 
ATOM      7  C   UNL     1       1.226   8.264  21.541  0.00  0.00    +0.000 A 
ATOM      8  C   UNL     1       0.694   9.515  21.207  0.00  0.00    +0.000 A 
ATOM      9  C   UNL     1       0.843  10.002  19.902  0.00  0.00    +0.000 A 
ATOM     10  C   UNL     1       1.508   9.239  18.936  0.00  0.00    +0.000 A 
BRANCH   8  11
ATOM     11  C   UNL     1       0.001  10.290  22.193  0.00  0.00    +0.000 C 
ATOM     12  N   UNL     1      -0.560  10.926  22.994  0.00  0.00    +0.000 NA
ENDBRANCH   8  11
ENDBRANCH   2   5
BRANCH   1  14
ATOM     13  C   UNL     1       2.608   3.705  17.314  0.00  0.00    +0.000 C 
ATOM     14  C   UNL     1       3.529   4.904  17.573  0.00  0.00    +0.000 C 
BRANCH  14  15
ATOM     15  C   UNL     1       4.931   4.433  18.049  0.00  0.00    +0.000 C 
ATOM     16  C   UNL     1       5.586   5.316  19.142  0.00  0.00    +0.000 C 
ATOM     17  C   UNL     1       6.807   5.916  18.425  0.00  0.00    +0.000 C 
ATOM     18  C   UNL     1       6.363   6.805  17.242  0.00  0.00    +0.000 C 
ATOM     19  C   UNL     1       5.976   5.786  16.159  0.00  0.00    +0.000 C 
ATOM     20  C   UNL     1       6.025   4.460  16.933  0.00  0.00    +0.000 C 
ATOM     21  C   UNL     1       7.330   4.671  17.713  0.00  0.00    +0.000 C 
ENDBRANCH  14  15
ENDBRANCH   1  14
TORSDOF 4
ENDMDL
MODEL 7
REMARK VINA RESULT:      -6.6      3.875      6.002
REMARK  Name = 
REMARK  5 active torsions:
REMARK  status: ('A' for Active; 'I' for Inactive)
REMARK    1  A    between atoms: C_1  and  C_2
REMARK    2  A    between atoms: C_2  and  N_3
REMARK    3  A    between atoms: C_2  and  C_14
REMARK    4  A    between atoms: C_4  and  C_6
REMARK    5  A    between atoms: C_9  and  C_10
REMARK                            x       y       z     vdW  Elec       q    Type
REMARK                         _______ _______ _______ _____ _____    ______ ____
ROOT
ATOM      1  N   UNL     1       3.024   5.676  17.802  0.00  0.00    +0.000 N 
ATOM      2  C   UNL     1       3.051   6.395  18.986  0.00  0.00    +0.000 C 
ATOM      3  O   UNL     1       3.627   6.033  20.000  0.00  0.00    +0.000 OA
ATOM      4  H   UNL     1       2.680   6.128  16.967  0.00  0.00    +0.000 HD
ENDROOT
BRANCH   2   5
ATOM      5  C   UNL     1       2.338   7.708  18.960  0.00  0.00    +0.000 A 
ATOM      6  C   UNL     1       2.347   8.527  17.824  0.00  0.00    +0.000 A 
ATOM      7  C   UNL     1       1.696   9.762  17.841  0.00  0.00    +0.000 A 
ATOM      8  C   UNL     1       1.008  10.183  18.986  0.00  0.00    +0.000 A 
ATOM      9  C   UNL     1       0.972   9.352  20.113  0.00  0.00    +0.000 A 
ATOM     10  C   UNL     1       1.627   8.117  20.100  0.00  0.00    +0.000 A 
BRANCH   8  11
ATOM     11  C   UNL     1       0.349  11.455  19.003  0.00  0.00    +0.000 C 
ATOM     12  N   UNL     1      -0.191  12.489  19.021  0.00  0.00    +0.000 NA
ENDBRANCH   8  11
ENDBRANCH   2   5
BRANCH   1  14
ATOM     13  C   UNL     1       4.662   4.430  16.442  0.00  0.00    +0.000 C 
ATOM     14  C   UNL     1       3.712   4.398  17.646  0.00  0.00    +0.000 C 
BRANCH  14  15
ATOM     15  C   UNL     1       2.713   3.213  17.533  0.00  0.00    +0.000 C 
ATOM     16  C   UNL     1       1.243   3.556  17.885  0.00  0.00    +0.000 C 
ATOM     17  C   UNL     1       0.985   2.732  19.159  0.00  0.00    +0.000 C 
ATOM     18  C   UNL     1       1.910   3.197  20.305  0.00  0.00    +0.000 C 
ATOM     19  C   UNL     1       3.267   2.576  19.938  0.00  0.00    +0.000 C 
ATOM     20  C   UNL     1       3.003   2.039  18.523  0.00  0.00    +0.000 C 
ATOM     21  C   UNL     1       1.622   1.408  18.747  0.00  0.00    +0.000 C 
ENDBRANCH  14  15
ENDBRANCH   1  14
TORSDOF 4
ENDMDL
MODEL 8
REMARK VINA RESULT:      -6.6      4.634      7.567
REMARK  Name = 
REMARK  5 active torsions:
REMARK  status: ('A' for Active; 'I' for Inactive)
REMARK    1  A    between atoms: C_1  and  C_2
REMARK    2  A    between atoms: C_2  and  N_3
REMARK    3  A    between atoms: C_2  and  C_14
REMARK    4  A    between atoms: C_4  and  C_6
REMARK    5  A    between atoms: C_9  and  C_10
REMARK                            x       y       z     vdW  Elec       q    Type
REMARK                         _______ _______ _______ _____ _____    ______ ____
ROOT
ATOM      1  N   UNL     1       2.544   6.601  20.246  0.00  0.00    +0.000 N 
ATOM      2  C   UNL     1       2.006   7.641  19.504  0.00  0.00    +0.000 C 
ATOM      3  O   UNL     1       2.080   7.732  18.289  0.00  0.00    +0.000 OA
ATOM      4  H   UNL     1       2.284   6.512  21.217  0.00  0.00    +0.000 HD
ENDROOT
BRANCH   2   5
ATOM      5  C   UNL     1       1.271   8.680  20.289  0.00  0.00    +0.000 A 
ATOM      6  C   UNL     1       0.661   9.776  19.666  0.00  0.00    +0.000 A 
ATOM      7  C   UNL     1       0.008  10.745  20.430  0.00  0.00    +0.000 A 
ATOM      8  C   UNL     1      -0.064  10.618  21.822  0.00  0.00    +0.000 A 
ATOM      9  C   UNL     1       0.518   9.507  22.444  0.00  0.00    +0.000 A 
ATOM     10  C   UNL     1       1.177   8.537  21.683  0.00  0.00    +0.000 A 
BRANCH   8  11
ATOM     11  C   UNL     1      -0.728  11.620  22.603  0.00  0.00    +0.000 C 
ATOM     12  N   UNL     1      -1.265  12.440  23.236  0.00  0.00    +0.000 NA
ENDBRANCH   8  11
ENDBRANCH   2   5
BRANCH   1  14
ATOM     13  C   UNL     1       4.155   5.968  18.488  0.00  0.00    +0.000 C 
ATOM     14  C   UNL     1       3.250   5.483  19.628  0.00  0.00    +0.000 C 
BRANCH  14  15
ATOM     15  C   UNL     1       2.271   4.384  19.129  0.00  0.00    +0.000 C 
ATOM     16  C   UNL     1       1.018   4.167  20.015  0.00  0.00    +0.000 C 
ATOM     17  C   UNL     1       1.220   2.746  20.568  0.00  0.00    +0.000 C 
ATOM     18  C   UNL     1       2.489   2.677  21.445  0.00  0.00    +0.000 C 
ATOM     19  C   UNL     1       3.630   2.654  20.416  0.00  0.00    +0.000 C 
ATOM     20  C   UNL     1       2.885   2.947  19.104  0.00  0.00    +0.000 C 
ATOM     21  C   UNL     1       1.668   2.032  19.295  0.00  0.00    +0.000 C 
ENDBRANCH  14  15
ENDBRANCH   1  14
TORSDOF 4
ENDMDL
MODEL 9
REMARK VINA RESULT:      -6.6      4.641      7.564
REMARK  Name = 
REMARK  5 active torsions:
REMARK  status: ('A' for Active; 'I' for Inactive)
REMARK    1  A    between atoms: C_1  and  C_2
REMARK    2  A    between atoms: C_2  and  N_3
REMARK    3  A    between atoms: C_2  and  C_14
REMARK    4  A    between atoms: C_4  and  C_6
REMARK    5  A    between atoms: C_9  and  C_10
REMARK                            x       y       z     vdW  Elec       q    Type
REMARK                         _______ _______ _______ _____ _____    ______ ____
ROOT
ATOM      1  N   UNL     1       2.568   6.581  20.272  0.00  0.00    +0.000 N 
ATOM      2  C   UNL     1       2.017   7.641  19.569  0.00  0.00    +0.000 C 
ATOM      3  O   UNL     1       2.058   7.758  18.354  0.00  0.00    +0.000 OA
ATOM      4  H   UNL     1       2.335   6.472  21.248  0.00  0.00    +0.000 HD
ENDROOT
BRANCH   2   5
ATOM      5  C   UNL     1       1.311   8.666  20.397  0.00  0.00    +0.000 A 
ATOM      6  C   UNL     1       1.146   8.508  21.778  0.00  0.00    +0.000 A 
ATOM      7  C   UNL     1       0.456   9.469  22.519  0.00  0.00    +0.000 A 
ATOM      8  C   UNL     1      -0.057  10.611  21.892  0.00  0.00    +0.000 A 
ATOM      9  C   UNL     1       0.134  10.787  20.515  0.00  0.00    +0.000 A 
ATOM     10  C   UNL     1       0.821   9.823  19.770  0.00  0.00    +0.000 A 
BRANCH   8  11
ATOM     11  C   UNL     1      -0.773  11.591  22.654  0.00  0.00    +0.000 C 
ATOM     12  N   UNL     1      -1.357  12.392  23.269  0.00  0.00    +0.000 NA
ENDBRANCH   8  11
ENDBRANCH   2   5
BRANCH   1  14
ATOM     13  C   UNL     1       4.106   5.975  18.441  0.00  0.00    +0.000 C 
ATOM     14  C   UNL     1       3.249   5.473  19.610  0.00  0.00    +0.000 C 
BRANCH  14  15
ATOM     15  C   UNL     1       2.251   4.379  19.137  0.00  0.00    +0.000 C 
ATOM     16  C   UNL     1       1.006   4.190  20.040  0.00  0.00    +0.000 C 
ATOM     17  C   UNL     1       1.196   2.774  20.609  0.00  0.00    +0.000 C 
ATOM     18  C   UNL     1       2.474   2.701  21.474  0.00  0.00    +0.000 C 
ATOM     19  C   UNL     1       3.603   2.650  20.432  0.00  0.00    +0.000 C 
ATOM     20  C   UNL     1       2.847   2.935  19.125  0.00  0.00    +0.000 C 
ATOM     21  C   UNL     1       1.621   2.038  19.342  0.00  0.00    +0.000 C 
ENDBRANCH  14  15
ENDBRANCH   1  14
TORSDOF 4
ENDMDL
