MODEL 1
REMARK VINA RESULT:      -5.7      0.000      0.000
REMARK  Name = 
REMARK  6 active torsions:
REMARK  status: ('A' for Active; 'I' for Inactive)
REMARK    1  A    between atoms: C_1  and  C_2
REMARK    2  A    between atoms: C_2  and  O_3
REMARK    3  A    between atoms: C_2  and  C_4
REMARK    4  A    between atoms: C_4  and  C_5
REMARK    5  A    between atoms: C_7  and  O_8
REMARK    6  A    between atoms: C_9  and  C_10
REMARK                            x       y       z     vdW  Elec       q    Type
REMARK                         _______ _______ _______ _____ _____    ______ ____
ROOT
ATOM      1  C   UNL     1       5.126   5.451  17.668  0.00  0.00    +0.000 C 
ATOM      2  C   UNL     1       4.843   4.940  18.880  0.00  0.00    +0.000 C 
ATOM      3  C   UNL     1       4.277   3.586  19.097  0.00  0.00    +0.000 C 
ATOM      4  C   UNL     1       3.833   2.881  17.804  0.00  0.00    +0.000 C 
ATOM      5  C   UNL     1       2.314   2.907  17.634  0.00  0.00    +0.000 C 
ATOM      6  O   UNL     1       4.438   3.394  16.592  0.00  0.00    +0.000 OA
ATOM      7  C   UNL     1       4.878   4.664  16.437  0.00  0.00    +0.000 C 
ATOM      8  O   UNL     1       5.099   5.138  15.329  0.00  0.00    +0.000 OA
ENDROOT
BRANCH   3   9
ATOM      9  O   UNL     1       5.283   2.825  19.763  0.00  0.00    +0.000 OA
ATOM     10  H   UNL     1       5.916   3.453  20.155  0.00  0.00    +0.000 HD
ENDBRANCH   3   9
BRANCH   1  11
ATOM     11  C   UNL     1       5.735   6.823  17.495  0.00  0.00    +0.000 C 
BRANCH  11  13
ATOM     12  C   UNL     1       7.888   8.146  17.703  0.00  0.00    +0.000 C 
ATOM     13  C   UNL     1       7.270   6.784  17.407  0.00  0.00    +0.000 C 
BRANCH  13  14
ATOM     14  O   UNL     1       7.709   6.375  16.114  0.00  0.00    +0.000 OA
ATOM     15  H   UNL     1       6.942   6.019  15.626  0.00  0.00    +0.000 HD
ENDBRANCH  13  14
ENDBRANCH  11  13
ENDBRANCH   1  11
TORSDOF 4
ENDMDL
MODEL 2
REMARK VINA RESULT:      -5.6      2.592      3.469
REMARK  Name = 
REMARK  6 active torsions:
REMARK  status: ('A' for Active; 'I' for Inactive)
REMARK    1  A    between atoms: C_1  and  C_2
REMARK    2  A    between atoms: C_2  and  O_3
REMARK    3  A    between atoms: C_2  and  C_4
REMARK    4  A    between atoms: C_4  and  C_5
REMARK    5  A    between atoms: C_7  and  O_8
REMARK    6  A    between atoms: C_9  and  C_10
REMARK                            x       y       z     vdW  Elec       q    Type
REMARK                         _______ _______ _______ _____ _____    ______ ____
ROOT
ATOM      1  C   UNL     1       4.355   4.284  19.259  0.00  0.00    +0.000 C 
ATOM      2  C   UNL     1       3.425   5.257  19.229  0.00  0.00    +0.000 C 
ATOM      3  C   UNL     1       2.130   5.188  19.951  0.00  0.00    +0.000 C 
ATOM      4  C   UNL     1       1.835   3.813  20.574  0.00  0.00    +0.000 C 
ATOM      5  C   UNL     1       0.812   3.026  19.756  0.00  0.00    +0.000 C 
ATOM      6  O   UNL     1       2.999   2.976  20.779  0.00  0.00    +0.000 OA
ATOM      7  C   UNL     1       4.130   3.046  20.041  0.00  0.00    +0.000 C 
ATOM      8  O   UNL     1       4.957   2.141  20.042  0.00  0.00    +0.000 OA
ENDROOT
BRANCH   3   9
ATOM      9  O   UNL     1       2.172   6.197  20.959  0.00  0.00    +0.000 OA
ATOM     10  H   UNL     1       1.352   6.128  21.479  0.00  0.00    +0.000 HD
ENDBRANCH   3   9
BRANCH   1  11
ATOM     11  C   UNL     1       5.675   4.411  18.535  0.00  0.00    +0.000 C 
BRANCH  11  13
ATOM     12  C   UNL     1       7.375   6.183  17.905  0.00  0.00    +0.000 C 
ATOM     13  C   UNL     1       6.503   5.614  19.019  0.00  0.00    +0.000 C 
BRANCH  13  14
ATOM     14  O   UNL     1       7.354   5.259  20.105  0.00  0.00    +0.000 OA
ATOM     15  H   UNL     1       8.128   5.854  20.098  0.00  0.00    +0.000 HD
ENDBRANCH  13  14
ENDBRANCH  11  13
ENDBRANCH   1  11
TORSDOF 4
ENDMDL
MODEL 3
REMARK VINA RESULT:      -5.6      1.912      2.173
REMARK  Name = 
REMARK  6 active torsions:
REMARK  status: ('A' for Active; 'I' for Inactive)
REMARK    1  A    between atoms: C_1  and  C_2
REMARK    2  A    between atoms: C_2  and  O_3
REMARK    3  A    between atoms: C_2  and  C_4
REMARK    4  A    between atoms: C_4  and  C_5
REMARK    5  A    between atoms: C_7  and  O_8
REMARK    6  A    between atoms: C_9  and  C_10
REMARK                            x       y       z     vdW  Elec       q    Type
REMARK                         _______ _______ _______ _____ _____    ______ ____
ROOT
ATOM      1  C   UNL     1       4.392   4.130  18.875  0.00  0.00    +0.000 C 
ATOM      2  C   UNL     1       4.378   2.891  19.400  0.00  0.00    +0.000 C 
ATOM      3  C   UNL     1       3.438   1.823  18.978  0.00  0.00    +0.000 C 
ATOM      4  C   UNL     1       2.325   2.308  18.033  0.00  0.00    +0.000 C 
ATOM      5  C   UNL     1       0.989   2.460  18.759  0.00  0.00    +0.000 C 
ATOM      6  O   UNL     1       2.613   3.547  17.339  0.00  0.00    +0.000 OA
ATOM      7  C   UNL     1       3.434   4.512  17.811  0.00  0.00    +0.000 C 
ATOM      8  O   UNL     1       3.418   5.651  17.356  0.00  0.00    +0.000 OA
ENDROOT
BRANCH   3   9
ATOM      9  O   UNL     1       4.225   0.813  18.349  0.00  0.00    +0.000 OA
ATOM     10  H   UNL     1       4.407   1.105  17.439  0.00  0.00    +0.000 HD
ENDBRANCH   3   9
BRANCH   1  11
ATOM     11  C   UNL     1       5.390   5.178  19.311  0.00  0.00    +0.000 C 
BRANCH  11  13
ATOM     12  C   UNL     1       7.850   5.777  19.193  0.00  0.00    +0.000 C 
ATOM     13  C   UNL     1       6.663   5.179  18.447  0.00  0.00    +0.000 C 
BRANCH  13  14
ATOM     14  O   UNL     1       6.478   5.924  17.246  0.00  0.00    +0.000 OA
ATOM     15  H   UNL     1       5.968   6.730  17.458  0.00  0.00    +0.000 HD
ENDBRANCH  13  14
ENDBRANCH  11  13
ENDBRANCH   1  11
TORSDOF 4
ENDMDL
MODEL 4
REMARK VINA RESULT:      -5.6      1.819      4.788
REMARK  Name = 
REMARK  6 active torsions:
REMARK  status: ('A' for Active; 'I' for Inactive)
REMARK    1  A    between atoms: C_1  and  C_2
REMARK    2  A    between atoms: C_2  and  O_3
REMARK    3  A    between atoms: C_2  and  C_4
REMARK    4  A    between atoms: C_4  and  C_5
REMARK    5  A    between atoms: C_7  and  O_8
REMARK    6  A    between atoms: C_9  and  C_10
REMARK                            x       y       z     vdW  Elec       q    Type
REMARK                         _______ _______ _______ _____ _____    ______ ____
ROOT
ATOM      1  C   UNL     1       4.695   4.153  17.305  0.00  0.00    +0.000 C 
ATOM      2  C   UNL     1       5.066   4.729  16.147  0.00  0.00    +0.000 C 
ATOM      3  C   UNL     1       6.404   5.326  15.910  0.00  0.00    +0.000 C 
ATOM      4  C   UNL     1       7.275   5.429  17.173  0.00  0.00    +0.000 C 
ATOM      5  C   UNL     1       7.323   6.857  17.717  0.00  0.00    +0.000 C 
ATOM      6  O   UNL     1       6.889   4.542  18.252  0.00  0.00    +0.000 OA
ATOM      7  C   UNL     1       5.633   4.082  18.450  0.00  0.00    +0.000 C 
ATOM      8  O   UNL     1       5.287   3.593  19.520  0.00  0.00    +0.000 OA
ENDROOT
BRANCH   3   9
ATOM      9  O   UNL     1       7.044   4.516  14.925  0.00  0.00    +0.000 OA
ATOM     10  H   UNL     1       7.818   4.100  15.343  0.00  0.00    +0.000 HD
ENDBRANCH   3   9
BRANCH   1  11
ATOM     11  C   UNL     1       3.333   3.527  17.492  0.00  0.00    +0.000 C 
BRANCH  11  13
ATOM     12  C   UNL     1       2.006   4.679  19.320  0.00  0.00    +0.000 C 
ATOM     13  C   UNL     1       2.244   4.564  17.818  0.00  0.00    +0.000 C 
BRANCH  13  14
ATOM     14  O   UNL     1       1.004   4.230  17.202  0.00  0.00    +0.000 OA
ATOM     15  H   UNL     1       0.577   3.526  17.727  0.00  0.00    +0.000 HD
ENDBRANCH  13  14
ENDBRANCH  11  13
ENDBRANCH   1  11
TORSDOF 4
ENDMDL
MODEL 5
REMARK VINA RESULT:      -5.5      1.891      2.879
REMARK  Name = 
REMARK  6 active torsions:
REMARK  status: ('A' for Active; 'I' for Inactive)
REMARK    1  A    between atoms: C_1  and  C_2
REMARK    2  A    between atoms: C_2  and  O_3
REMARK    3  A    between atoms: C_2  and  C_4
REMARK    4  A    between atoms: C_4  and  C_5
REMARK    5  A    between atoms: C_7  and  O_8
REMARK    6  A    between atoms: C_9  and  C_10
REMARK                            x       y       z     vdW  Elec       q    Type
REMARK                         _______ _______ _______ _____ _____    ______ ____
ROOT
ATOM      1  C   UNL     1       3.831   3.928  17.927  0.00  0.00    +0.000 C 
ATOM      2  C   UNL     1       4.710   3.604  18.893  0.00  0.00    +0.000 C 
ATOM      3  C   UNL     1       4.362   2.807  20.096  0.00  0.00    +0.000 C 
ATOM      4  C   UNL     1       2.854   2.555  20.263  0.00  0.00    +0.000 C 
ATOM      5  C   UNL     1       2.242   3.453  21.337  0.00  0.00    +0.000 C 
ATOM      6  O   UNL     1       2.075   2.697  19.049  0.00  0.00    +0.000 OA
ATOM      7  C   UNL     1       2.417   3.493  18.011  0.00  0.00    +0.000 C 
ATOM      8  O   UNL     1       1.605   3.817  17.153  0.00  0.00    +0.000 OA
ENDROOT
BRANCH   3   9
ATOM      9  O   UNL     1       5.067   1.572  19.984  0.00  0.00    +0.000 OA
ATOM     10  H   UNL     1       4.585   1.013  19.349  0.00  0.00    +0.000 HD
ENDBRANCH   3   9
BRANCH   1  11
ATOM     11  C   UNL     1       4.237   4.713  16.701  0.00  0.00    +0.000 C 
BRANCH  11  13
ATOM     12  C   UNL     1       3.733   7.023  17.617  0.00  0.00    +0.000 C 
ATOM     13  C   UNL     1       4.805   6.101  17.048  0.00  0.00    +0.000 C 
BRANCH  13  14
ATOM     14  O   UNL     1       5.369   6.735  15.904  0.00  0.00    +0.000 OA
ATOM     15  H   UNL     1       6.252   6.350  15.741  0.00  0.00    +0.000 HD
ENDBRANCH  13  14
ENDBRANCH  11  13
ENDBRANCH   1  11
TORSDOF 4
ENDMDL
MODEL 6
REMARK VINA RESULT:      -5.5      2.207      4.597
REMARK  Name = 
REMARK  6 active torsions:
REMARK  status: ('A' for Active; 'I' for Inactive)
REMARK    1  A    between atoms: C_1  and  C_2
REMARK    2  A    between atoms: C_2  and  O_3
REMARK    3  A    between atoms: C_2  and  C_4
REMARK    4  A    between atoms: C_4  and  C_5
REMARK    5  A    between atoms: C_7  and  O_8
REMARK    6  A    between atoms: C_9  and  C_10
REMARK                            x       y       z     vdW  Elec       q    Type
REMARK                         _______ _______ _______ _____ _____    ______ ____
ROOT
ATOM      1  C   UNL     1       3.570   5.086  17.591  0.00  0.00    +0.000 C 
ATOM      2  C   UNL     1       4.231   6.209  17.258  0.00  0.00    +0.000 C 
ATOM      3  C   UNL     1       5.517   6.225  16.516  0.00  0.00    +0.000 C 
ATOM      4  C   UNL     1       6.154   4.837  16.340  0.00  0.00    +0.000 C 
ATOM      5  C   UNL     1       7.323   4.620  17.301  0.00  0.00    +0.000 C 
ATOM      6  O   UNL     1       5.235   3.724  16.480  0.00  0.00    +0.000 OA
ATOM      7  C   UNL     1       4.108   3.754  17.226  0.00  0.00    +0.000 C 
ATOM      8  O   UNL     1       3.529   2.726  17.561  0.00  0.00    +0.000 OA
ENDROOT
BRANCH   3   9
ATOM      9  O   UNL     1       5.248   6.818  15.247  0.00  0.00    +0.000 OA
ATOM     10  H   UNL     1       5.984   6.589  14.653  0.00  0.00    +0.000 HD
ENDBRANCH   3   9
BRANCH   1  11
ATOM     11  C   UNL     1       2.246   5.117  18.318  0.00  0.00    +0.000 C 
BRANCH  11  13
ATOM     12  C   UNL     1       1.276   4.333  20.525  0.00  0.00    +0.000 C 
ATOM     13  C   UNL     1       2.409   5.095  19.848  0.00  0.00    +0.000 C 
BRANCH  13  14
ATOM     14  O   UNL     1       2.436   6.413  20.388  0.00  0.00    +0.000 OA
ATOM     15  H   UNL     1       2.981   6.404  21.199  0.00  0.00    +0.000 HD
ENDBRANCH  13  14
ENDBRANCH  11  13
ENDBRANCH   1  11
TORSDOF 4
ENDMDL
MODEL 7
REMARK VINA RESULT:      -5.5      2.083      2.536
REMARK  Name = 
REMARK  6 active torsions:
REMARK  status: ('A' for Active; 'I' for Inactive)
REMARK    1  A    between atoms: C_1  and  C_2
REMARK    2  A    between atoms: C_2  and  O_3
REMARK    3  A    between atoms: C_2  and  C_4
REMARK    4  A    between atoms: C_4  and  C_5
REMARK    5  A    between atoms: C_7  and  O_8
REMARK    6  A    between atoms: C_9  and  C_10
REMARK                            x       y       z     vdW  Elec       q    Type
REMARK                         _______ _______ _______ _____ _____    ______ ____
ROOT
ATOM      1  C   UNL     1       4.460   4.523  17.490  0.00  0.00    +0.000 C 
ATOM      2  C   UNL     1       4.144   3.258  17.821  0.00  0.00    +0.000 C 
ATOM      3  C   UNL     1       2.842   2.855  18.407  0.00  0.00    +0.000 C 
ATOM      4  C   UNL     1       1.947   4.039  18.811  0.00  0.00    +0.000 C 
ATOM      5  C   UNL     1       1.952   4.267  20.322  0.00  0.00    +0.000 C 
ATOM      6  O   UNL     1       2.264   5.293  18.158  0.00  0.00    +0.000 OA
ATOM      7  C   UNL     1       3.493   5.626  17.701  0.00  0.00    +0.000 C 
ATOM      8  O   UNL     1       3.790   6.785  17.437  0.00  0.00    +0.000 OA
ENDROOT
BRANCH   3   9
ATOM      9  O   UNL     1       2.190   2.043  17.432  0.00  0.00    +0.000 OA
ATOM     10  H   UNL     1       2.863   1.463  17.034  0.00  0.00    +0.000 HD
ENDBRANCH   3   9
BRANCH   1  11
ATOM     11  C   UNL     1       5.787   4.884  16.864  0.00  0.00    +0.000 C 
BRANCH  11  13
ATOM     12  C   UNL     1       7.427   6.114  18.355  0.00  0.00    +0.000 C 
ATOM     13  C   UNL     1       6.962   4.754  17.848  0.00  0.00    +0.000 C 
BRANCH  13  14
ATOM     14  O   UNL     1       8.078   4.104  17.247  0.00  0.00    +0.000 OA
ATOM     15  H   UNL     1       8.463   3.485  17.896  0.00  0.00    +0.000 HD
ENDBRANCH  13  14
ENDBRANCH  11  13
ENDBRANCH   1  11
TORSDOF 4
ENDMDL
MODEL 8
REMARK VINA RESULT:      -5.5      1.200      1.273
REMARK  Name = 
REMARK  6 active torsions:
REMARK  status: ('A' for Active; 'I' for Inactive)
REMARK    1  A    between atoms: C_1  and  C_2
REMARK    2  A    between atoms: C_2  and  O_3
REMARK    3  A    between atoms: C_2  and  C_4
REMARK    4  A    between atoms: C_4  and  C_5
REMARK    5  A    between atoms: C_7  and  O_8
REMARK    6  A    between atoms: C_9  and  C_10
REMARK                            x       y       z     vdW  Elec       q    Type
REMARK                         _______ _______ _______ _____ _____    ______ ____
ROOT
ATOM      1  C   UNL     1       5.959   4.701  17.610  0.00  0.00    +0.000 C 
ATOM      2  C   UNL     1       5.588   4.347  18.854  0.00  0.00    +0.000 C 
ATOM      3  C   UNL     1       4.372   3.552  19.162  0.00  0.00    +0.000 C 
ATOM      4  C   UNL     1       3.442   3.342  17.956  0.00  0.00    +0.000 C 
ATOM      5  C   UNL     1       2.216   4.251  18.017  0.00  0.00    +0.000 C 
ATOM      6  O   UNL     1       4.074   3.513  16.663  0.00  0.00    +0.000 OA
ATOM      7  C   UNL     1       5.146   4.305  16.436  0.00  0.00    +0.000 C 
ATOM      8  O   UNL     1       5.459   4.657  15.304  0.00  0.00    +0.000 OA
ENDROOT
BRANCH   3   9
ATOM      9  O   UNL     1       4.824   2.299  19.672  0.00  0.00    +0.000 OA
ATOM     10  H   UNL     1       4.233   2.049  20.405  0.00  0.00    +0.000 HD
ENDBRANCH   3   9
BRANCH   1  11
ATOM     11  C   UNL     1       7.223   5.482  17.339  0.00  0.00    +0.000 C 
BRANCH  11  13
ATOM     12  C   UNL     1       7.764   7.951  17.533  0.00  0.00    +0.000 C 
ATOM     13  C   UNL     1       7.394   6.680  18.289  0.00  0.00    +0.000 C 
BRANCH  13  14
ATOM     14  O   UNL     1       8.407   6.436  19.260  0.00  0.00    +0.000 OA
ATOM     15  H   UNL     1       9.210   6.127  18.799  0.00  0.00    +0.000 HD
ENDBRANCH  13  14
ENDBRANCH  11  13
ENDBRANCH   1  11
TORSDOF 4
ENDMDL
MODEL 9
REMARK VINA RESULT:      -5.5      2.699      3.811
REMARK  Name = 
REMARK  6 active torsions:
REMARK  status: ('A' for Active; 'I' for Inactive)
REMARK    1  A    between atoms: C_1  and  C_2
REMARK    2  A    between atoms: C_2  and  O_3
REMARK    3  A    between atoms: C_2  and  C_4
REMARK    4  A    between atoms: C_4  and  C_5
REMARK    5  A    between atoms: C_7  and  O_8
REMARK    6  A    between atoms: C_9  and  C_10
REMARK                            x       y       z     vdW  Elec       q    Type
REMARK                         _______ _______ _______ _____ _____    ______ ____
ROOT
ATOM      1  C   UNL     1       3.009   3.992  18.145  0.00  0.00    +0.000 C 
ATOM      2  C   UNL     1       2.532   2.735  18.202  0.00  0.00    +0.000 C 
ATOM      3  C   UNL     1       1.491   2.287  19.161  0.00  0.00    +0.000 C 
ATOM      4  C   UNL     1       1.146   3.327  20.240  0.00  0.00    +0.000 C 
ATOM      5  C   UNL     1       1.779   2.981  21.587  0.00  0.00    +0.000 C 
ATOM      6  O   UNL     1       1.501   4.692  19.905  0.00  0.00    +0.000 OA
ATOM      7  C   UNL     1       2.506   5.036  19.069  0.00  0.00    +0.000 C 
ATOM      8  O   UNL     1       2.965   6.173  19.046  0.00  0.00    +0.000 OA
ENDROOT
BRANCH   3   9
ATOM      9  O   UNL     1       0.337   1.965  18.387  0.00  0.00    +0.000 OA
ATOM     10  H   UNL     1       0.007   2.791  17.992  0.00  0.00    +0.000 HD
ENDBRANCH   3   9
BRANCH   1  11
ATOM     11  C   UNL     1       4.046   4.414  17.130  0.00  0.00    +0.000 C 
BRANCH  11  13
ATOM     12  C   UNL     1       6.538   4.503  16.671  0.00  0.00    +0.000 C 
ATOM     13  C   UNL     1       5.452   4.549  17.740  0.00  0.00    +0.000 C 
BRANCH  13  14
ATOM     14  O   UNL     1       5.716   3.511  18.679  0.00  0.00    +0.000 OA
ATOM     15  H   UNL     1       5.193   3.684  19.486  0.00  0.00    +0.000 HD
ENDBRANCH  13  14
ENDBRANCH  11  13
ENDBRANCH   1  11
TORSDOF 4
ENDMDL
