MODEL 1
REMARK VINA RESULT:      -7.9      0.000      0.000
REMARK  Name = 
REMARK  4 active torsions:
REMARK  status: ('A' for Active; 'I' for Inactive)
REMARK    1  A    between atoms: C_2  and  O_3
REMARK    2  A    between atoms: C_2  and  C_4
REMARK    3  A    between atoms: N_9  and  C_10
REMARK    4  A    between atoms: C_23  and  O_24
REMARK                            x       y       z     vdW  Elec       q    Type
REMARK                         _______ _______ _______ _____ _____    ______ ____
ROOT
ATOM      1  C   UNL     1      -0.390  11.006  21.675  0.00  0.00    +0.000 A 
ATOM      2  C   UNL     1       0.030  10.979  20.312  0.00  0.00    +0.000 A 
ATOM      3  C   UNL     1       0.775   9.852  19.832  0.00  0.00    +0.000 A 
ATOM      4  S   UNL     1       1.442   9.431  18.262  0.00  0.00    +0.000 S 
ATOM      5  C   UNL     1       2.146   7.942  18.894  0.00  0.00    +0.000 A 
ATOM      6  N   UNL     1       3.280   7.341  18.418  0.00  0.00    +0.000 N 
ATOM      7  N   UNL     1       1.834   7.757  20.155  0.00  0.00    +0.000 NA
ATOM      8  C   UNL     1       1.117   8.813  20.696  0.00  0.00    +0.000 A 
ATOM      9  C   UNL     1       0.745   8.893  22.054  0.00  0.00    +0.000 A 
ATOM     10  C   UNL     1      -0.012   9.965  22.524  0.00  0.00    +0.000 A 
ATOM     11  H   UNL     1       3.832   7.122  19.245  0.00  0.00    +0.000 HD
ENDROOT
BRANCH   6  12
ATOM     12  C   UNL     1       3.615   6.237  17.529  0.00  0.00    +0.000 A 
ATOM     13  C   UNL     1       4.830   6.443  16.870  0.00  0.00    +0.000 A 
ATOM     14  C   UNL     1       5.760   5.423  16.765  0.00  0.00    +0.000 A 
ATOM     15  C   UNL     1       5.279   4.137  16.637  0.00  0.00    +0.000 A 
ATOM     16  C   UNL     1       4.005   3.846  17.078  0.00  0.00    +0.000 A 
ATOM     17  C   UNL     1       3.674   2.470  17.045  0.00  0.00    +0.000 A 
ATOM     18  C   UNL     1       2.550   2.035  17.727  0.00  0.00    +0.000 A 
ATOM     19  C   UNL     1       1.802   2.949  18.466  0.00  0.00    +0.000 A 
ATOM     20  C   UNL     1       2.103   4.333  18.426  0.00  0.00    +0.000 A 
ATOM     21  C   UNL     1       3.191   4.855  17.685  0.00  0.00    +0.000 A 
ENDBRANCH   6  12
BRANCH   1  23
ATOM     22  O   UNL     1      -2.351  12.378  21.748  0.00  0.00    +0.000 OA
ATOM     23  C   UNL     1      -1.234  12.154  22.172  0.00  0.00    +0.000 C 
BRANCH  23  24
ATOM     24  O   UNL     1      -0.659  12.887  23.155  0.00  0.00    +0.000 OA
ATOM     25  H   UNL     1      -1.206  12.965  23.946  0.00  0.00    +0.000 HD
ENDBRANCH  23  24
ENDBRANCH   1  23
BRANCH  10  26
ATOM     26  O   UNL     1      -0.393   9.970  23.845  0.00  0.00    +0.000 OA
ATOM     27  H   UNL     1      -1.366  10.067  23.905  0.00  0.00    +0.000 HD
ENDBRANCH  10  26
TORSDOF 4
ENDMDL
MODEL 2
REMARK VINA RESULT:      -7.8      1.382      2.758
REMARK  Name = 
REMARK  4 active torsions:
REMARK  status: ('A' for Active; 'I' for Inactive)
REMARK    1  A    between atoms: C_2  and  O_3
REMARK    2  A    between atoms: C_2  and  C_4
REMARK    3  A    between atoms: N_9  and  C_10
REMARK    4  A    between atoms: C_23  and  O_24
REMARK                            x       y       z     vdW  Elec       q    Type
REMARK                         _______ _______ _______ _____ _____    ______ ____
ROOT
ATOM      1  C   UNL     1      -0.748  12.438  21.189  0.00  0.00    +0.000 A 
ATOM      2  C   UNL     1      -0.110  11.818  20.075  0.00  0.00    +0.000 A 
ATOM      3  C   UNL     1       0.392  10.483  20.210  0.00  0.00    +0.000 A 
ATOM      4  S   UNL     1       1.199   9.382  19.103  0.00  0.00    +0.000 S 
ATOM      5  C   UNL     1       1.370   8.152  20.355  0.00  0.00    +0.000 A 
ATOM      6  N   UNL     1       2.378   7.227  20.422  0.00  0.00    +0.000 N 
ATOM      7  N   UNL     1       0.800   8.522  21.478  0.00  0.00    +0.000 NA
ATOM      8  C   UNL     1       0.294   9.812  21.428  0.00  0.00    +0.000 A 
ATOM      9  C   UNL     1      -0.283  10.471  22.534  0.00  0.00    +0.000 A 
ATOM     10  C   UNL     1      -0.810  11.754  22.404  0.00  0.00    +0.000 A 
ATOM     11  H   UNL     1       2.696   7.250  21.388  0.00  0.00    +0.000 HD
ENDROOT
BRANCH   6  12
ATOM     12  C   UNL     1       2.571   5.827  20.072  0.00  0.00    +0.000 A 
ATOM     13  C   UNL     1       1.607   5.001  20.657  0.00  0.00    +0.000 A 
ATOM     14  C   UNL     1       0.987   4.006  19.922  0.00  0.00    +0.000 A 
ATOM     15  C   UNL     1       1.737   3.371  18.954  0.00  0.00    +0.000 A 
ATOM     16  C   UNL     1       2.841   4.010  18.429  0.00  0.00    +0.000 A 
ATOM     17  C   UNL     1       3.441   3.340  17.336  0.00  0.00    +0.000 A 
ATOM     18  C   UNL     1       4.360   4.020  16.555  0.00  0.00    +0.000 A 
ATOM     19  C   UNL     1       4.636   5.357  16.833  0.00  0.00    +0.000 A 
ATOM     20  C   UNL     1       4.085   5.990  17.975  0.00  0.00    +0.000 A 
ATOM     21  C   UNL     1       3.200   5.328  18.860  0.00  0.00    +0.000 A 
ENDBRANCH   6  12
BRANCH   1  23
ATOM     22  O   UNL     1      -1.012  14.754  21.735  0.00  0.00    +0.000 OA
ATOM     23  C   UNL     1      -1.342  13.816  21.036  0.00  0.00    +0.000 C 
BRANCH  23  24
ATOM     24  O   UNL     1      -2.245  13.928  20.031  0.00  0.00    +0.000 OA
ATOM     25  H   UNL     1      -2.185  14.765  19.553  0.00  0.00    +0.000 HD
ENDBRANCH  23  24
ENDBRANCH   1  23
BRANCH  10  26
ATOM     26  O   UNL     1      -1.408  12.332  23.499  0.00  0.00    +0.000 OA
ATOM     27  H   UNL     1      -2.361  12.464  23.320  0.00  0.00    +0.000 HD
ENDBRANCH  10  26
TORSDOF 4
ENDMDL
MODEL 3
REMARK VINA RESULT:      -7.8      1.894      3.138
REMARK  Name = 
REMARK  4 active torsions:
REMARK  status: ('A' for Active; 'I' for Inactive)
REMARK    1  A    between atoms: C_2  and  O_3
REMARK    2  A    between atoms: C_2  and  C_4
REMARK    3  A    between atoms: N_9  and  C_10
REMARK    4  A    between atoms: C_23  and  O_24
REMARK                            x       y       z     vdW  Elec       q    Type
REMARK                         _______ _______ _______ _____ _____    ______ ____
ROOT
ATOM      1  C   UNL     1       0.131  11.895  19.344  0.00  0.00    +0.000 A 
ATOM      2  C   UNL     1       0.875  10.994  18.527  0.00  0.00    +0.000 A 
ATOM      3  C   UNL     1       1.208   9.698  19.040  0.00  0.00    +0.000 A 
ATOM      4  S   UNL     1       2.068   8.321  18.366  0.00  0.00    +0.000 S 
ATOM      5  C   UNL     1       1.904   7.408  19.866  0.00  0.00    +0.000 A 
ATOM      6  N   UNL     1       2.787   6.462  20.316  0.00  0.00    +0.000 N 
ATOM      7  N   UNL     1       1.199   8.065  20.757  0.00  0.00    +0.000 NA
ATOM      8  C   UNL     1       0.843   9.336  20.336  0.00  0.00    +0.000 A 
ATOM      9  C   UNL     1       0.164  10.269  21.147  0.00  0.00    +0.000 A 
ATOM     10  C   UNL     1      -0.200  11.518  20.646  0.00  0.00    +0.000 A 
ATOM     11  H   UNL     1       2.943   6.690  21.295  0.00  0.00    +0.000 HD
ENDROOT
BRANCH   6  12
ATOM     12  C   UNL     1       2.889   5.010  20.321  0.00  0.00    +0.000 A 
ATOM     13  C   UNL     1       2.072   4.429  21.294  0.00  0.00    +0.000 A 
ATOM     14  C   UNL     1       1.299   3.319  20.998  0.00  0.00    +0.000 A 
ATOM     15  C   UNL     1       1.814   2.408  20.101  0.00  0.00    +0.000 A 
ATOM     16  C   UNL     1       2.781   2.816  19.205  0.00  0.00    +0.000 A 
ATOM     17  C   UNL     1       3.122   1.847  18.231  0.00  0.00    +0.000 A 
ATOM     18  C   UNL     1       3.852   2.240  17.122  0.00  0.00    +0.000 A 
ATOM     19  C   UNL     1       4.191   3.582  16.967  0.00  0.00    +0.000 A 
ATOM     20  C   UNL     1       3.908   4.524  17.988  0.00  0.00    +0.000 A 
ATOM     21  C   UNL     1       3.234   4.173  19.182  0.00  0.00    +0.000 A 
ENDBRANCH   6  12
BRANCH   1  23
ATOM     22  O   UNL     1      -0.041  14.283  19.351  0.00  0.00    +0.000 OA
ATOM     23  C   UNL     1      -0.286  13.235  18.788  0.00  0.00    +0.000 C 
BRANCH  23  24
ATOM     24  O   UNL     1      -0.920  13.172  17.592  0.00  0.00    +0.000 OA
ATOM     25  H   UNL     1      -0.802  12.328  17.139  0.00  0.00    +0.000 HD
ENDBRANCH  23  24
ENDBRANCH   1  23
BRANCH  10  26
ATOM     26  O   UNL     1      -0.906  12.371  21.460  0.00  0.00    +0.000 OA
ATOM     27  H   UNL     1      -1.477  12.949  20.913  0.00  0.00    +0.000 HD
ENDBRANCH  10  26
TORSDOF 4
ENDMDL
MODEL 4
REMARK VINA RESULT:      -7.7      1.030      2.451
REMARK  Name = 
REMARK  4 active torsions:
REMARK  status: ('A' for Active; 'I' for Inactive)
REMARK    1  A    between atoms: C_2  and  O_3
REMARK    2  A    between atoms: C_2  and  C_4
REMARK    3  A    between atoms: N_9  and  C_10
REMARK    4  A    between atoms: C_23  and  O_24
REMARK                            x       y       z     vdW  Elec       q    Type
REMARK                         _______ _______ _______ _____ _____    ______ ____
ROOT
ATOM      1  C   UNL     1      -0.683  11.701  21.016  0.00  0.00    +0.000 A 
ATOM      2  C   UNL     1      -0.060  11.294  19.800  0.00  0.00    +0.000 A 
ATOM      3  C   UNL     1       0.617  10.032  19.748  0.00  0.00    +0.000 A 
ATOM      4  S   UNL     1       1.470   9.176  18.472  0.00  0.00    +0.000 S 
ATOM      5  C   UNL     1       1.891   7.853  19.560  0.00  0.00    +0.000 A 
ATOM      6  N   UNL     1       3.010   7.070  19.456  0.00  0.00    +0.000 N 
ATOM      7  N   UNL     1       1.366   8.021  20.751  0.00  0.00    +0.000 NA
ATOM      8  C   UNL     1       0.699   9.228  20.883  0.00  0.00    +0.000 A 
ATOM      9  C   UNL     1       0.130   9.681  22.092  0.00  0.00    +0.000 A 
ATOM     10  C   UNL     1      -0.564  10.888  22.145  0.00  0.00    +0.000 A 
ATOM     11  H   UNL     1       3.396   7.033  20.397  0.00  0.00    +0.000 HD
ENDROOT
BRANCH   6  12
ATOM     12  C   UNL     1       3.352   5.754  18.935  0.00  0.00    +0.000 A 
ATOM     13  C   UNL     1       2.291   4.853  19.047  0.00  0.00    +0.000 A 
ATOM     14  C   UNL     1       1.956   4.019  17.994  0.00  0.00    +0.000 A 
ATOM     15  C   UNL     1       2.983   3.559  17.197  0.00  0.00    +0.000 A 
ATOM     16  C   UNL     1       4.167   4.264  17.150  0.00  0.00    +0.000 A 
ATOM     17  C   UNL     1       5.090   3.794  16.184  0.00  0.00    +0.000 A 
ATOM     18  C   UNL     1       6.172   4.590  15.848  0.00  0.00    +0.000 A 
ATOM     19  C   UNL     1       6.302   5.849  16.431  0.00  0.00    +0.000 A 
ATOM     20  C   UNL     1       5.413   6.272  17.450  0.00  0.00    +0.000 A 
ATOM     21  C   UNL     1       4.331   5.474  17.896  0.00  0.00    +0.000 A 
ENDBRANCH   6  12
BRANCH   1  23
ATOM     22  O   UNL     1      -1.557  13.665  22.070  0.00  0.00    +0.000 OA
ATOM     23  C   UNL     1      -1.458  12.994  21.061  0.00  0.00    +0.000 C 
BRANCH  23  24
ATOM     24  O   UNL     1      -2.000  13.364  19.876  0.00  0.00    +0.000 OA
ATOM     25  H   UNL     1      -2.820  12.898  19.666  0.00  0.00    +0.000 HD
ENDBRANCH  23  24
ENDBRANCH   1  23
BRANCH  10  26
ATOM     26  O   UNL     1      -1.145  11.260  23.334  0.00  0.00    +0.000 OA
ATOM     27  H   UNL     1      -0.506  11.780  23.863  0.00  0.00    +0.000 HD
ENDBRANCH  10  26
TORSDOF 4
ENDMDL
MODEL 5
REMARK VINA RESULT:      -7.6      4.494      8.450
REMARK  Name = 
REMARK  4 active torsions:
REMARK  status: ('A' for Active; 'I' for Inactive)
REMARK    1  A    between atoms: C_2  and  O_3
REMARK    2  A    between atoms: C_2  and  C_4
REMARK    3  A    between atoms: N_9  and  C_10
REMARK    4  A    between atoms: C_23  and  O_24
REMARK                            x       y       z     vdW  Elec       q    Type
REMARK                         _______ _______ _______ _____ _____    ______ ____
ROOT
ATOM      1  C   UNL     1       5.005   5.509  18.297  0.00  0.00    +0.000 A 
ATOM      2  C   UNL     1       4.094   5.694  19.378  0.00  0.00    +0.000 A 
ATOM      3  C   UNL     1       3.084   6.705  19.278  0.00  0.00    +0.000 A 
ATOM      4  S   UNL     1       1.790   7.224  20.347  0.00  0.00    +0.000 S 
ATOM      5  C   UNL     1       1.300   8.501  19.233  0.00  0.00    +0.000 A 
ATOM      6  N   UNL     1       0.718   9.686  19.597  0.00  0.00    +0.000 N 
ATOM      7  N   UNL     1       2.009   8.477  18.129  0.00  0.00    +0.000 NA
ATOM      8  C   UNL     1       3.016   7.525  18.153  0.00  0.00    +0.000 A 
ATOM      9  C   UNL     1       3.969   7.367  17.125  0.00  0.00    +0.000 A 
ATOM     10  C   UNL     1       4.931   6.361  17.193  0.00  0.00    +0.000 A 
ATOM     11  H   UNL     1       1.228  10.401  19.083  0.00  0.00    +0.000 HD
ENDROOT
BRANCH   6  12
ATOM     12  C   UNL     1      -0.625  10.248  19.649  0.00  0.00    +0.000 A 
ATOM     13  C   UNL     1      -0.772  11.161  20.697  0.00  0.00    +0.000 A 
ATOM     14  C   UNL     1      -1.414  12.371  20.496  0.00  0.00    +0.000 A 
ATOM     15  C   UNL     1      -2.461  12.393  19.599  0.00  0.00    +0.000 A 
ATOM     16  C   UNL     1      -2.535  11.419  18.624  0.00  0.00    +0.000 A 
ATOM     17  C   UNL     1      -3.555  11.628  17.665  0.00  0.00    +0.000 A 
ATOM     18  C   UNL     1      -3.536  10.889  16.495  0.00  0.00    +0.000 A 
ATOM     19  C   UNL     1      -2.491   9.995  16.268  0.00  0.00    +0.000 A 
ATOM     20  C   UNL     1      -1.522   9.743  17.270  0.00  0.00    +0.000 A 
ATOM     21  C   UNL     1      -1.528  10.407  18.521  0.00  0.00    +0.000 A 
ENDBRANCH   6  12
BRANCH   1  23
ATOM     22  O   UNL     1       7.185   4.556  18.028  0.00  0.00    +0.000 OA
ATOM     23  C   UNL     1       6.027   4.401  18.363  0.00  0.00    +0.000 C 
BRANCH  23  24
ATOM     24  O   UNL     1       5.555   3.233  18.862  0.00  0.00    +0.000 OA
ATOM     25  H   UNL     1       4.847   2.847  18.331  0.00  0.00    +0.000 HD
ENDBRANCH  23  24
ENDBRANCH   1  23
BRANCH  10  26
ATOM     26  O   UNL     1       5.803   6.215  16.141  0.00  0.00    +0.000 OA
ATOM     27  H   UNL     1       6.676   6.587  16.384  0.00  0.00    +0.000 HD
ENDBRANCH  10  26
TORSDOF 4
ENDMDL
MODEL 6
REMARK VINA RESULT:      -7.6      3.978      8.453
REMARK  Name = 
REMARK  4 active torsions:
REMARK  status: ('A' for Active; 'I' for Inactive)
REMARK    1  A    between atoms: C_2  and  O_3
REMARK    2  A    between atoms: C_2  and  C_4
REMARK    3  A    between atoms: N_9  and  C_10
REMARK    4  A    between atoms: C_23  and  O_24
REMARK                            x       y       z     vdW  Elec       q    Type
REMARK                         _______ _______ _______ _____ _____    ______ ____
ROOT
ATOM      1  C   UNL     1       3.268   3.547  19.369  0.00  0.00    +0.000 A 
ATOM      2  C   UNL     1       3.338   4.706  18.541  0.00  0.00    +0.000 A 
ATOM      3  C   UNL     1       2.780   5.939  19.014  0.00  0.00    +0.000 A 
ATOM      4  S   UNL     1       2.682   7.555  18.331  0.00  0.00    +0.000 S 
ATOM      5  C   UNL     1       1.775   8.152  19.721  0.00  0.00    +0.000 A 
ATOM      6  N   UNL     1       0.859   9.170  19.689  0.00  0.00    +0.000 N 
ATOM      7  N   UNL     1       1.633   7.225  20.640  0.00  0.00    +0.000 NA
ATOM      8  C   UNL     1       2.142   5.996  20.251  0.00  0.00    +0.000 A 
ATOM      9  C   UNL     1       2.029   4.821  21.024  0.00  0.00    +0.000 A 
ATOM     10  C   UNL     1       2.601   3.626  20.593  0.00  0.00    +0.000 A 
ATOM     11  H   UNL     1       0.054   8.819  20.204  0.00  0.00    +0.000 HD
ENDROOT
BRANCH   6  12
ATOM     12  C   UNL     1       0.827  10.591  20.006  0.00  0.00    +0.000 A 
ATOM     13  C   UNL     1       1.124  11.384  18.895  0.00  0.00    +0.000 A 
ATOM     14  C   UNL     1       0.371  12.508  18.606  0.00  0.00    +0.000 A 
ATOM     15  C   UNL     1      -0.134  13.225  19.670  0.00  0.00    +0.000 A 
ATOM     16  C   UNL     1      -0.295  12.599  20.889  0.00  0.00    +0.000 A 
ATOM     17  C   UNL     1      -0.966  13.378  21.863  0.00  0.00    +0.000 A 
ATOM     18  C   UNL     1      -1.437  12.759  23.007  0.00  0.00    +0.000 A 
ATOM     19  C   UNL     1      -1.283  11.382  23.153  0.00  0.00    +0.000 A 
ATOM     20  C   UNL     1      -0.544  10.630  22.205  0.00  0.00    +0.000 A 
ATOM     21  C   UNL     1       0.032  11.215  21.052  0.00  0.00    +0.000 A 
ENDBRANCH   6  12
BRANCH   1  23
ATOM     22  O   UNL     1       3.549   1.663  17.919  0.00  0.00    +0.000 OA
ATOM     23  C   UNL     1       3.914   2.263  18.911  0.00  0.00    +0.000 C 
BRANCH  23  24
ATOM     24  O   UNL     1       4.957   1.858  19.675  0.00  0.00    +0.000 OA
ATOM     25  H   UNL     1       5.683   1.479  19.163  0.00  0.00    +0.000 HD
ENDBRANCH  23  24
ENDBRANCH   1  23
BRANCH  10  26
ATOM     26  O   UNL     1       2.508   2.523  21.407  0.00  0.00    +0.000 OA
ATOM     27  H   UNL     1       1.713   2.004  21.167  0.00  0.00    +0.000 HD
ENDBRANCH  10  26
TORSDOF 4
ENDMDL
MODEL 7
REMARK VINA RESULT:      -7.5      1.466      1.927
REMARK  Name = 
REMARK  4 active torsions:
REMARK  status: ('A' for Active; 'I' for Inactive)
REMARK    1  A    between atoms: C_2  and  O_3
REMARK    2  A    between atoms: C_2  and  C_4
REMARK    3  A    between atoms: N_9  and  C_10
REMARK    4  A    between atoms: C_23  and  O_24
REMARK                            x       y       z     vdW  Elec       q    Type
REMARK                         _______ _______ _______ _____ _____    ______ ____
ROOT
ATOM      1  C   UNL     1       0.004  12.622  20.638  0.00  0.00    +0.000 A 
ATOM      2  C   UNL     1       0.553  12.140  19.413  0.00  0.00    +0.000 A 
ATOM      3  C   UNL     1       0.957  10.768  19.319  0.00  0.00    +0.000 A 
ATOM      4  S   UNL     1       1.639   9.801  18.020  0.00  0.00    +0.000 S 
ATOM      5  C   UNL     1       1.758   8.381  19.060  0.00  0.00    +0.000 A 
ATOM      6  N   UNL     1       2.694   7.389  18.937  0.00  0.00    +0.000 N 
ATOM      7  N   UNL     1       1.257   8.610  20.251  0.00  0.00    +0.000 NA
ATOM      8  C   UNL     1       0.850   9.924  20.423  0.00  0.00    +0.000 A 
ATOM      9  C   UNL     1       0.364  10.440  21.642  0.00  0.00    +0.000 A 
ATOM     10  C   UNL     1      -0.068  11.762  21.735  0.00  0.00    +0.000 A 
ATOM     11  H   UNL     1       3.047   7.238  19.880  0.00  0.00    +0.000 HD
ENDROOT
BRANCH   6  12
ATOM     12  C   UNL     1       2.768   6.050  18.368  0.00  0.00    +0.000 A 
ATOM     13  C   UNL     1       3.791   5.936  17.424  0.00  0.00    +0.000 A 
ATOM     14  C   UNL     1       4.635   4.839  17.423  0.00  0.00    +0.000 A 
ATOM     15  C   UNL     1       4.097   3.625  17.797  0.00  0.00    +0.000 A 
ATOM     16  C   UNL     1       2.961   3.603  18.579  0.00  0.00    +0.000 A 
ATOM     17  C   UNL     1       2.589   2.315  19.034  0.00  0.00    +0.000 A 
ATOM     18  C   UNL     1       1.653   2.208  20.048  0.00  0.00    +0.000 A 
ATOM     19  C   UNL     1       1.136   3.365  20.627  0.00  0.00    +0.000 A 
ATOM     20  C   UNL     1       1.461   4.643  20.109  0.00  0.00    +0.000 A 
ATOM     21  C   UNL     1       2.351   4.820  19.022  0.00  0.00    +0.000 A 
ENDBRANCH   6  12
BRANCH   1  23
ATOM     22  O   UNL     1      -0.119  14.815  21.590  0.00  0.00    +0.000 OA
ATOM     23  C   UNL     1      -0.488  14.045  20.726  0.00  0.00    +0.000 C 
BRANCH  23  24
ATOM     24  O   UNL     1      -1.346  14.403  19.739  0.00  0.00    +0.000 OA
ATOM     25  H   UNL     1      -2.102  13.809  19.654  0.00  0.00    +0.000 HD
ENDBRANCH  23  24
ENDBRANCH   1  23
BRANCH  10  26
ATOM     26  O   UNL     1      -0.582  12.202  22.932  0.00  0.00    +0.000 OA
ATOM     27  H   UNL     1      -0.143  11.732  23.670  0.00  0.00    +0.000 HD
ENDBRANCH  10  26
TORSDOF 4
ENDMDL
MODEL 8
REMARK VINA RESULT:      -7.5      4.482      8.559
REMARK  Name = 
REMARK  4 active torsions:
REMARK  status: ('A' for Active; 'I' for Inactive)
REMARK    1  A    between atoms: C_2  and  O_3
REMARK    2  A    between atoms: C_2  and  C_4
REMARK    3  A    between atoms: N_9  and  C_10
REMARK    4  A    between atoms: C_23  and  O_24
REMARK                            x       y       z     vdW  Elec       q    Type
REMARK                         _______ _______ _______ _____ _____    ______ ____
ROOT
ATOM      1  C   UNL     1       4.006   3.497  19.265  0.00  0.00    +0.000 A 
ATOM      2  C   UNL     1       3.074   4.132  20.138  0.00  0.00    +0.000 A 
ATOM      3  C   UNL     1       2.602   5.448  19.820  0.00  0.00    +0.000 A 
ATOM      4  S   UNL     1       1.467   6.540  20.599  0.00  0.00    +0.000 S 
ATOM      5  C   UNL     1       1.750   7.792  19.389  0.00  0.00    +0.000 A 
ATOM      6  N   UNL     1       1.649   9.140  19.610  0.00  0.00    +0.000 N 
ATOM      7  N   UNL     1       2.570   7.382  18.451  0.00  0.00    +0.000 NA
ATOM      8  C   UNL     1       3.077   6.114  18.692  0.00  0.00    +0.000 A 
ATOM      9  C   UNL     1       4.047   5.491  17.879  0.00  0.00    +0.000 A 
ATOM     10  C   UNL     1       4.484   4.197  18.156  0.00  0.00    +0.000 A 
ATOM     11  H   UNL     1       2.490   9.540  19.198  0.00  0.00    +0.000 HD
ENDROOT
BRANCH   6  12
ATOM     12  C   UNL     1       0.670  10.193  19.381  0.00  0.00    +0.000 A 
ATOM     13  C   UNL     1       0.129  10.137  18.094  0.00  0.00    +0.000 A 
ATOM     14  C   UNL     1      -1.233  10.279  17.891  0.00  0.00    +0.000 A 
ATOM     15  C   UNL     1      -1.914  11.132  18.734  0.00  0.00    +0.000 A 
ATOM     16  C   UNL     1      -1.381  11.424  19.973  0.00  0.00    +0.000 A 
ATOM     17  C   UNL     1      -2.235  12.177  20.814  0.00  0.00    +0.000 A 
ATOM     18  C   UNL     1      -1.931  12.276  22.161  0.00  0.00    +0.000 A 
ATOM     19  C   UNL     1      -0.825  11.595  22.664  0.00  0.00    +0.000 A 
ATOM     20  C   UNL     1       0.061  10.909  21.797  0.00  0.00    +0.000 A 
ATOM     21  C   UNL     1      -0.148  10.835  20.398  0.00  0.00    +0.000 A 
ENDBRANCH   6  12
BRANCH   1  23
ATOM     22  O   UNL     1       5.059   1.783  20.562  0.00  0.00    +0.000 OA
ATOM     23  C   UNL     1       4.454   2.085  19.553  0.00  0.00    +0.000 C 
BRANCH  23  24
ATOM     24  O   UNL     1       4.092   1.180  18.611  0.00  0.00    +0.000 OA
ATOM     25  H   UNL     1       4.779   0.528  18.422  0.00  0.00    +0.000 HD
ENDBRANCH  23  24
ENDBRANCH   1  23
BRANCH  10  26
ATOM     26  O   UNL     1       5.392   3.614  17.303  0.00  0.00    +0.000 OA
ATOM     27  H   UNL     1       5.579   4.222  16.559  0.00  0.00    +0.000 HD
ENDBRANCH  10  26
TORSDOF 4
ENDMDL
MODEL 9
REMARK VINA RESULT:      -7.5      4.173      8.636
REMARK  Name = 
REMARK  4 active torsions:
REMARK  status: ('A' for Active; 'I' for Inactive)
REMARK    1  A    between atoms: C_2  and  O_3
REMARK    2  A    between atoms: C_2  and  C_4
REMARK    3  A    between atoms: N_9  and  C_10
REMARK    4  A    between atoms: C_23  and  O_24
REMARK                            x       y       z     vdW  Elec       q    Type
REMARK                         _______ _______ _______ _____ _____    ______ ____
ROOT
ATOM      1  C   UNL     1       3.804   5.088  18.816  0.00  0.00    +0.000 A 
ATOM      2  C   UNL     1       2.989   5.595  19.871  0.00  0.00    +0.000 A 
ATOM      3  C   UNL     1       2.355   6.870  19.714  0.00  0.00    +0.000 A 
ATOM      4  S   UNL     1       1.284   7.816  20.738  0.00  0.00    +0.000 S 
ATOM      5  C   UNL     1       1.237   9.137  19.570  0.00  0.00    +0.000 A 
ATOM      6  N   UNL     1       1.060  10.459  19.880  0.00  0.00    +0.000 N 
ATOM      7  N   UNL     1       1.911   8.846  18.483  0.00  0.00    +0.000 NA
ATOM      8  C   UNL     1       2.563   7.625  18.561  0.00  0.00    +0.000 A 
ATOM      9  C   UNL     1       3.424   7.131  17.559  0.00  0.00    +0.000 A 
ATOM     10  C   UNL     1       4.015   5.875  17.682  0.00  0.00    +0.000 A 
ATOM     11  H   UNL     1       1.776  10.954  19.353  0.00  0.00    +0.000 HD
ENDROOT
BRANCH   6  12
ATOM     12  C   UNL     1      -0.034  11.421  19.884  0.00  0.00    +0.000 A 
ATOM     13  C   UNL     1      -0.515  11.674  18.597  0.00  0.00    +0.000 A 
ATOM     14  C   UNL     1      -1.876  11.720  18.346  0.00  0.00    +0.000 A 
ATOM     15  C   UNL     1      -2.688  12.219  19.343  0.00  0.00    +0.000 A 
ATOM     16  C   UNL     1      -2.242  12.204  20.648  0.00  0.00    +0.000 A 
ATOM     17  C   UNL     1      -3.213  12.590  21.603  0.00  0.00    +0.000 A 
ATOM     18  C   UNL     1      -2.974  12.335  22.942  0.00  0.00    +0.000 A 
ATOM     19  C   UNL     1      -1.811  11.664  23.314  0.00  0.00    +0.000 A 
ATOM     20  C   UNL     1      -0.816  11.352  22.354  0.00  0.00    +0.000 A 
ATOM     21  C   UNL     1      -0.962  11.656  20.979  0.00  0.00    +0.000 A 
ENDBRANCH   6  12
BRANCH   1  23
ATOM     22  O   UNL     1       3.756   2.716  19.133  0.00  0.00    +0.000 OA
ATOM     23  C   UNL     1       4.419   3.716  18.941  0.00  0.00    +0.000 C 
BRANCH  23  24
ATOM     24  O   UNL     1       5.764   3.689  18.785  0.00  0.00    +0.000 OA
ATOM     25  H   UNL     1       6.245   4.065  19.533  0.00  0.00    +0.000 HD
ENDBRANCH  23  24
ENDBRANCH   1  23
BRANCH  10  26
ATOM     26  O   UNL     1       4.805   5.417  16.654  0.00  0.00    +0.000 OA
ATOM     27  H   UNL     1       4.311   4.751  16.133  0.00  0.00    +0.000 HD
ENDBRANCH  10  26
TORSDOF 4
ENDMDL
