MODEL 1
REMARK VINA RESULT:      -4.0      0.000      0.000
REMARK  Name = 
REMARK  9 active torsions:
REMARK  status: ('A' for Active; 'I' for Inactive)
REMARK    1  A    between atoms: C_1  and  C_2
REMARK    2  A    between atoms: C_2  and  O_3
REMARK    3  A    between atoms: O_3  and  C_4
REMARK    4  A    between atoms: C_4  and  C_5
REMARK    5  A    between atoms: C_5  and  C_6
REMARK    6  A    between atoms: C_5  and  N_7
REMARK    7  A    between atoms: N_7  and  C_8
REMARK    8  A    between atoms: N_7  and  C_9
REMARK    9  A    between atoms: N_7  and  C_10
REMARK                            x       y       z     vdW  Elec       q    Type
REMARK                         _______ _______ _______ _____ _____    ______ ____
ROOT
ATOM      1  C   UNL     1       5.735   5.137  16.248  0.00  0.00    +0.000 C 
ATOM      2  C   UNL     1       5.686   4.040  15.176  0.00  0.00    +0.000 C 
ENDROOT
BRANCH   1   3
ATOM      3  N   UNL     1       4.707   4.863  17.418  0.00  0.00    +0.000 N 
ATOM      4  C   UNL     1       3.688   3.773  17.082  0.00  0.00    +0.000 C 
ATOM      5  C   UNL     1       5.461   4.436  18.680  0.00  0.00    +0.000 C 
ATOM      6  C   UNL     1       3.939   6.143  17.763  0.00  0.00    +0.000 C 
ENDBRANCH   1   3
BRANCH   1   7
ATOM      7  C   UNL     1       7.195   5.344  16.739  0.00  0.00    +0.000 C 
BRANCH   7   8
ATOM      8  O   UNL     1       7.569   6.719  16.665  0.00  0.00    +0.000 OA
BRANCH   8  10
ATOM      9  C   UNL     1       8.021   8.779  17.787  0.00  0.00    +0.000 C 
ATOM     10  C   UNL     1       7.761   7.294  17.959  0.00  0.00    +0.000 C 
ENDBRANCH   8  10
ENDBRANCH   7   8
ENDBRANCH   1   7
TORSDOF 4
ENDMDL
MODEL 2
REMARK VINA RESULT:      -4.0      3.477      5.292
REMARK  Name = 
REMARK  9 active torsions:
REMARK  status: ('A' for Active; 'I' for Inactive)
REMARK    1  A    between atoms: C_1  and  C_2
REMARK    2  A    between atoms: C_2  and  O_3
REMARK    3  A    between atoms: O_3  and  C_4
REMARK    4  A    between atoms: C_4  and  C_5
REMARK    5  A    between atoms: C_5  and  C_6
REMARK    6  A    between atoms: C_5  and  N_7
REMARK    7  A    between atoms: N_7  and  C_8
REMARK    8  A    between atoms: N_7  and  C_9
REMARK    9  A    between atoms: N_7  and  C_10
REMARK                            x       y       z     vdW  Elec       q    Type
REMARK                         _______ _______ _______ _____ _____    ______ ____
ROOT
ATOM      1  C   UNL     1       3.764   2.824  18.396  0.00  0.00    +0.000 C 
ATOM      2  C   UNL     1       2.525   2.464  17.566  0.00  0.00    +0.000 C 
ENDROOT
BRANCH   1   3
ATOM      3  N   UNL     1       4.408   4.191  17.929  0.00  0.00    +0.000 N 
ATOM      4  C   UNL     1       3.384   5.317  17.769  0.00  0.00    +0.000 C 
ATOM      5  C   UNL     1       5.458   4.644  18.946  0.00  0.00    +0.000 C 
ATOM      6  C   UNL     1       5.128   4.008  16.589  0.00  0.00    +0.000 C 
ENDBRANCH   1   3
BRANCH   1   7
ATOM      7  C   UNL     1       3.425   2.785  19.913  0.00  0.00    +0.000 C 
BRANCH   7   8
ATOM      8  O   UNL     1       2.127   2.232  20.132  0.00  0.00    +0.000 OA
BRANCH   8  10
ATOM      9  C   UNL     1       1.115   4.353  20.556  0.00  0.00    +0.000 C 
ATOM     10  C   UNL     1       1.388   2.967  21.108  0.00  0.00    +0.000 C 
ENDBRANCH   8  10
ENDBRANCH   7   8
ENDBRANCH   1   7
TORSDOF 4
ENDMDL
MODEL 3
REMARK VINA RESULT:      -4.0      3.474      5.406
REMARK  Name = 
REMARK  9 active torsions:
REMARK  status: ('A' for Active; 'I' for Inactive)
REMARK    1  A    between atoms: C_1  and  C_2
REMARK    2  A    between atoms: C_2  and  O_3
REMARK    3  A    between atoms: O_3  and  C_4
REMARK    4  A    between atoms: C_4  and  C_5
REMARK    5  A    between atoms: C_5  and  C_6
REMARK    6  A    between atoms: C_5  and  N_7
REMARK    7  A    between atoms: N_7  and  C_8
REMARK    8  A    between atoms: N_7  and  C_9
REMARK    9  A    between atoms: N_7  and  C_10
REMARK                            x       y       z     vdW  Elec       q    Type
REMARK                         _______ _______ _______ _____ _____    ______ ____
ROOT
ATOM      1  C   UNL     1       2.562   4.688  17.958  0.00  0.00    +0.000 C 
ATOM      2  C   UNL     1       2.805   6.183  18.203  0.00  0.00    +0.000 C 
ENDROOT
BRANCH   1   3
ATOM      3  N   UNL     1       3.918   3.879  17.870  0.00  0.00    +0.000 N 
ATOM      4  C   UNL     1       4.897   4.218  18.996  0.00  0.00    +0.000 C 
ATOM      5  C   UNL     1       3.630   2.377  17.927  0.00  0.00    +0.000 C 
ATOM      6  C   UNL     1       4.616   4.154  16.534  0.00  0.00    +0.000 C 
ENDBRANCH   1   3
BRANCH   1   7
ATOM      7  C   UNL     1       1.570   4.124  19.013  0.00  0.00    +0.000 C 
BRANCH   7   8
ATOM      8  O   UNL     1       1.603   4.899  20.211  0.00  0.00    +0.000 OA
BRANCH   8  10
ATOM      9  C   UNL     1       1.383   2.791  21.312  0.00  0.00    +0.000 C 
ATOM     10  C   UNL     1       2.072   4.142  21.328  0.00  0.00    +0.000 C 
ENDBRANCH   8  10
ENDBRANCH   7   8
ENDBRANCH   1   7
TORSDOF 4
ENDMDL
MODEL 4
REMARK VINA RESULT:      -3.9      2.880      4.062
REMARK  Name = 
REMARK  9 active torsions:
REMARK  status: ('A' for Active; 'I' for Inactive)
REMARK    1  A    between atoms: C_1  and  C_2
REMARK    2  A    between atoms: C_2  and  O_3
REMARK    3  A    between atoms: O_3  and  C_4
REMARK    4  A    between atoms: C_4  and  C_5
REMARK    5  A    between atoms: C_5  and  C_6
REMARK    6  A    between atoms: C_5  and  N_7
REMARK    7  A    between atoms: N_7  and  C_8
REMARK    8  A    between atoms: N_7  and  C_9
REMARK    9  A    between atoms: N_7  and  C_10
REMARK                            x       y       z     vdW  Elec       q    Type
REMARK                         _______ _______ _______ _____ _____    ______ ____
ROOT
ATOM      1  C   UNL     1       3.256   4.443  19.248  0.00  0.00    +0.000 C 
ATOM      2  C   UNL     1       2.458   5.361  18.313  0.00  0.00    +0.000 C 
ENDROOT
BRANCH   1   3
ATOM      3  N   UNL     1       2.365   3.268  19.821  0.00  0.00    +0.000 N 
ATOM      4  C   UNL     1       2.875   2.722  21.156  0.00  0.00    +0.000 C 
ATOM      5  C   UNL     1       0.930   3.760  20.026  0.00  0.00    +0.000 C 
ATOM      6  C   UNL     1       2.306   2.108  18.822  0.00  0.00    +0.000 C 
ENDBRANCH   1   3
BRANCH   1   7
ATOM      7  C   UNL     1       4.551   3.951  18.542  0.00  0.00    +0.000 C 
BRANCH   7   8
ATOM      8  O   UNL     1       5.705   4.247  19.328  0.00  0.00    +0.000 OA
BRANCH   8  10
ATOM      9  C   UNL     1       7.447   4.667  17.749  0.00  0.00    +0.000 C 
ATOM     10  C   UNL     1       6.494   5.290  18.752  0.00  0.00    +0.000 C 
ENDBRANCH   8  10
ENDBRANCH   7   8
ENDBRANCH   1   7
TORSDOF 4
ENDMDL
MODEL 5
REMARK VINA RESULT:      -3.9      3.227      5.163
REMARK  Name = 
REMARK  9 active torsions:
REMARK  status: ('A' for Active; 'I' for Inactive)
REMARK    1  A    between atoms: C_1  and  C_2
REMARK    2  A    between atoms: C_2  and  O_3
REMARK    3  A    between atoms: O_3  and  C_4
REMARK    4  A    between atoms: C_4  and  C_5
REMARK    5  A    between atoms: C_5  and  C_6
REMARK    6  A    between atoms: C_5  and  N_7
REMARK    7  A    between atoms: N_7  and  C_8
REMARK    8  A    between atoms: N_7  and  C_9
REMARK    9  A    between atoms: N_7  and  C_10
REMARK                            x       y       z     vdW  Elec       q    Type
REMARK                         _______ _______ _______ _____ _____    ______ ____
ROOT
ATOM      1  C   UNL     1       3.920   3.448  18.055  0.00  0.00    +0.000 C 
ATOM      2  C   UNL     1       2.636   3.249  17.237  0.00  0.00    +0.000 C 
ENDROOT
BRANCH   1   3
ATOM      3  N   UNL     1       4.413   4.951  18.020  0.00  0.00    +0.000 N 
ATOM      4  C   UNL     1       5.048   5.345  16.685  0.00  0.00    +0.000 C 
ATOM      5  C   UNL     1       3.233   5.889  18.281  0.00  0.00    +0.000 C 
ATOM      6  C   UNL     1       5.441   5.198  19.129  0.00  0.00    +0.000 C 
ENDBRANCH   1   3
BRANCH   1   7
ATOM      7  C   UNL     1       3.733   2.889  19.493  0.00  0.00    +0.000 C 
BRANCH   7   8
ATOM      8  O   UNL     1       2.466   2.247  19.631  0.00  0.00    +0.000 OA
BRANCH   8  10
ATOM      9  C   UNL     1       1.042   3.931  20.548  0.00  0.00    +0.000 C 
ATOM     10  C   UNL     1       1.791   2.642  20.827  0.00  0.00    +0.000 C 
ENDBRANCH   8  10
ENDBRANCH   7   8
ENDBRANCH   1   7
TORSDOF 4
ENDMDL
MODEL 6
REMARK VINA RESULT:      -3.9      3.245      5.179
REMARK  Name = 
REMARK  9 active torsions:
REMARK  status: ('A' for Active; 'I' for Inactive)
REMARK    1  A    between atoms: C_1  and  C_2
REMARK    2  A    between atoms: C_2  and  O_3
REMARK    3  A    between atoms: O_3  and  C_4
REMARK    4  A    between atoms: C_4  and  C_5
REMARK    5  A    between atoms: C_5  and  C_6
REMARK    6  A    between atoms: C_5  and  N_7
REMARK    7  A    between atoms: N_7  and  C_8
REMARK    8  A    between atoms: N_7  and  C_9
REMARK    9  A    between atoms: N_7  and  C_10
REMARK                            x       y       z     vdW  Elec       q    Type
REMARK                         _______ _______ _______ _____ _____    ______ ____
ROOT
ATOM      1  C   UNL     1       4.160   3.516  18.285  0.00  0.00    +0.000 C 
ATOM      2  C   UNL     1       2.978   3.339  17.323  0.00  0.00    +0.000 C 
ENDROOT
BRANCH   1   3
ATOM      3  N   UNL     1       4.641   5.021  18.356  0.00  0.00    +0.000 N 
ATOM      4  C   UNL     1       5.937   5.203  19.148  0.00  0.00    +0.000 C 
ATOM      5  C   UNL     1       4.868   5.560  16.941  0.00  0.00    +0.000 C 
ATOM      6  C   UNL     1       3.560   5.895  19.003  0.00  0.00    +0.000 C 
ENDBRANCH   1   3
BRANCH   1   7
ATOM      7  C   UNL     1       3.818   2.907  19.674  0.00  0.00    +0.000 C 
BRANCH   7   8
ATOM      8  O   UNL     1       2.547   2.259  19.649  0.00  0.00    +0.000 OA
BRANCH   8  10
ATOM      9  C   UNL     1       0.936   3.834  20.441  0.00  0.00    +0.000 C 
ATOM     10  C   UNL     1       1.748   2.600  20.783  0.00  0.00    +0.000 C 
ENDBRANCH   8  10
ENDBRANCH   7   8
ENDBRANCH   1   7
TORSDOF 4
ENDMDL
MODEL 7
REMARK VINA RESULT:      -3.9      3.153      4.340
REMARK  Name = 
REMARK  9 active torsions:
REMARK  status: ('A' for Active; 'I' for Inactive)
REMARK    1  A    between atoms: C_1  and  C_2
REMARK    2  A    between atoms: C_2  and  O_3
REMARK    3  A    between atoms: O_3  and  C_4
REMARK    4  A    between atoms: C_4  and  C_5
REMARK    5  A    between atoms: C_5  and  C_6
REMARK    6  A    between atoms: C_5  and  N_7
REMARK    7  A    between atoms: N_7  and  C_8
REMARK    8  A    between atoms: N_7  and  C_9
REMARK    9  A    between atoms: N_7  and  C_10
REMARK                            x       y       z     vdW  Elec       q    Type
REMARK                         _______ _______ _______ _____ _____    ______ ____
ROOT
ATOM      1  C   UNL     1       3.139   3.374  19.040  0.00  0.00    +0.000 C 
ATOM      2  C   UNL     1       2.724   2.366  17.960  0.00  0.00    +0.000 C 
ENDROOT
BRANCH   1   3
ATOM      3  N   UNL     1       2.023   3.540  20.149  0.00  0.00    +0.000 N 
ATOM      4  C   UNL     1       1.750   5.001  20.514  0.00  0.00    +0.000 C 
ATOM      5  C   UNL     1       0.713   2.918  19.664  0.00  0.00    +0.000 C 
ATOM      6  C   UNL     1       2.429   2.798  21.427  0.00  0.00    +0.000 C 
ENDBRANCH   1   3
BRANCH   1   7
ATOM      7  C   UNL     1       4.535   3.002  19.615  0.00  0.00    +0.000 C 
BRANCH   7   8
ATOM      8  O   UNL     1       5.552   3.841  19.067  0.00  0.00    +0.000 OA
BRANCH   8  10
ATOM      9  C   UNL     1       5.600   5.913  17.880  0.00  0.00    +0.000 C 
ATOM     10  C   UNL     1       5.223   5.227  19.179  0.00  0.00    +0.000 C 
ENDBRANCH   8  10
ENDBRANCH   7   8
ENDBRANCH   1   7
TORSDOF 4
ENDMDL
MODEL 8
REMARK VINA RESULT:      -3.9      2.554      3.542
REMARK  Name = 
REMARK  9 active torsions:
REMARK  status: ('A' for Active; 'I' for Inactive)
REMARK    1  A    between atoms: C_1  and  C_2
REMARK    2  A    between atoms: C_2  and  O_3
REMARK    3  A    between atoms: O_3  and  C_4
REMARK    4  A    between atoms: C_4  and  C_5
REMARK    5  A    between atoms: C_5  and  C_6
REMARK    6  A    between atoms: C_5  and  N_7
REMARK    7  A    between atoms: N_7  and  C_8
REMARK    8  A    between atoms: N_7  and  C_9
REMARK    9  A    between atoms: N_7  and  C_10
REMARK                            x       y       z     vdW  Elec       q    Type
REMARK                         _______ _______ _______ _____ _____    ______ ____
ROOT
ATOM      1  C   UNL     1       3.595   4.358  19.090  0.00  0.00    +0.000 C 
ATOM      2  C   UNL     1       2.979   5.512  18.287  0.00  0.00    +0.000 C 
ENDROOT
BRANCH   1   3
ATOM      3  N   UNL     1       2.655   3.086  19.106  0.00  0.00    +0.000 N 
ATOM      4  C   UNL     1       3.297   1.854  18.464  0.00  0.00    +0.000 C 
ATOM      5  C   UNL     1       2.286   2.733  20.549  0.00  0.00    +0.000 C 
ATOM      6  C   UNL     1       1.347   3.381  18.366  0.00  0.00    +0.000 C 
ENDBRANCH   1   3
BRANCH   1   7
ATOM      7  C   UNL     1       5.034   4.060  18.585  0.00  0.00    +0.000 C 
BRANCH   7   8
ATOM      8  O   UNL     1       6.009   4.649  19.445  0.00  0.00    +0.000 OA
BRANCH   8  10
ATOM      9  C   UNL     1       7.572   4.665  17.640  0.00  0.00    +0.000 C 
ATOM     10  C   UNL     1       6.918   5.490  18.731  0.00  0.00    +0.000 C 
ENDBRANCH   8  10
ENDBRANCH   7   8
ENDBRANCH   1   7
TORSDOF 4
ENDMDL
MODEL 9
REMARK VINA RESULT:      -3.9      2.208      3.226
REMARK  Name = 
REMARK  9 active torsions:
REMARK  status: ('A' for Active; 'I' for Inactive)
REMARK    1  A    between atoms: C_1  and  C_2
REMARK    2  A    between atoms: C_2  and  O_3
REMARK    3  A    between atoms: O_3  and  C_4
REMARK    4  A    between atoms: C_4  and  C_5
REMARK    5  A    between atoms: C_5  and  C_6
REMARK    6  A    between atoms: C_5  and  N_7
REMARK    7  A    between atoms: N_7  and  C_8
REMARK    8  A    between atoms: N_7  and  C_9
REMARK    9  A    between atoms: N_7  and  C_10
REMARK                            x       y       z     vdW  Elec       q    Type
REMARK                         _______ _______ _______ _____ _____    ______ ____
ROOT
ATOM      1  C   UNL     1       3.929   4.582  18.755  0.00  0.00    +0.000 C 
ATOM      2  C   UNL     1       3.255   5.780  18.074  0.00  0.00    +0.000 C 
ENDROOT
BRANCH   1   3
ATOM      3  N   UNL     1       2.911   3.396  18.999  0.00  0.00    +0.000 N 
ATOM      4  C   UNL     1       1.449   3.846  18.996  0.00  0.00    +0.000 C 
ATOM      5  C   UNL     1       3.084   2.332  17.912  0.00  0.00    +0.000 C 
ATOM      6  C   UNL     1       3.198   2.718  20.343  0.00  0.00    +0.000 C 
ENDBRANCH   1   3
BRANCH   1   7
ATOM      7  C   UNL     1       5.198   4.157  17.964  0.00  0.00    +0.000 C 
BRANCH   7   8
ATOM      8  O   UNL     1       6.376   4.354  18.745  0.00  0.00    +0.000 OA
BRANCH   8  10
ATOM      9  C   UNL     1       7.750   6.302  18.589  0.00  0.00    +0.000 C 
ATOM     10  C   UNL     1       7.432   4.948  17.986  0.00  0.00    +0.000 C 
ENDBRANCH   8  10
ENDBRANCH   7   8
ENDBRANCH   1   7
TORSDOF 4
ENDMDL
