MODEL 1
REMARK VINA RESULT:      -9.2      0.000      0.000
REMARK  Name = 
REMARK  3 active torsions:
REMARK  status: ('A' for Active; 'I' for Inactive)
REMARK    1  A    between atoms: C_1  and  S_2
REMARK    2  A    between atoms: S_2  and  C_3
REMARK    3  A    between atoms: C_6  and  C_7
REMARK                            x       y       z     vdW  Elec       q    Type
REMARK                         _______ _______ _______ _____ _____    ______ ____
ROOT
ATOM      1  C   UNL     1       2.733   6.554  18.724  0.00  0.00    +0.000 A 
ATOM      2  N   UNL     1       1.909   5.602  19.245  0.00  0.00    +0.000 NA
ATOM      3  C   UNL     1       2.122   4.299  18.963  0.00  0.00    +0.000 A 
ATOM      4  C   UNL     1       1.424   3.327  19.658  0.00  0.00    +0.000 A 
ATOM      5  C   UNL     1       1.676   1.972  19.448  0.00  0.00    +0.000 A 
ATOM      6  C   UNL     1       2.605   1.626  18.491  0.00  0.00    +0.000 A 
ATOM      7  N   UNL     1       3.276   2.530  17.759  0.00  0.00    +0.000 NA
ATOM      8  C   UNL     1       3.057   3.842  18.025  0.00  0.00    +0.000 A 
ATOM      9  C   UNL     1       3.840   4.836  17.478  0.00  0.00    +0.000 A 
ATOM     10  C   UNL     1       3.801   6.166  17.943  0.00  0.00    +0.000 A 
ATOM     11  C   UNL     1       5.091   6.862  17.538  0.00  0.00    +0.000 C 
ATOM     12  C   UNL     1       5.711   5.857  16.576  0.00  0.00    +0.000 A 
ATOM     13  C   UNL     1       6.875   5.928  15.831  0.00  0.00    +0.000 A 
ATOM     14  C   UNL     1       7.121   4.916  14.890  0.00  0.00    +0.000 A 
ATOM     15  C   UNL     1       6.206   3.871  14.695  0.00  0.00    +0.000 A 
ATOM     16  C   UNL     1       5.083   3.763  15.512  0.00  0.00    +0.000 A 
ATOM     17  C   UNL     1       4.886   4.725  16.490  0.00  0.00    +0.000 A 
ENDROOT
BRANCH   1  21
ATOM     18  C   UNL     1       0.859  10.414  19.203  0.00  0.00    +0.000 A 
ATOM     19  C   UNL     1       0.895   9.506  20.257  0.00  0.00    +0.000 A 
ATOM     20  C   UNL     1       1.575   8.288  20.111  0.00  0.00    +0.000 A 
ATOM     21  C   UNL     1       2.220   7.927  18.912  0.00  0.00    +0.000 A 
ATOM     22  C   UNL     1       2.162   8.858  17.862  0.00  0.00    +0.000 A 
ATOM     23  C   UNL     1       1.489  10.090  18.000  0.00  0.00    +0.000 A 
BRANCH  18  25
ATOM     24  C   UNL     1      -1.420  11.597  18.355  0.00  0.00    +0.000 C 
ATOM     25  S   UNL     1       0.015  11.968  19.393  0.00  0.00    +0.000 S 
ENDBRANCH  18  25
ENDBRANCH   1  21
TORSDOF 2
ENDMDL
MODEL 2
REMARK VINA RESULT:      -9.1      1.173      1.234
REMARK  Name = 
REMARK  3 active torsions:
REMARK  status: ('A' for Active; 'I' for Inactive)
REMARK    1  A    between atoms: C_1  and  S_2
REMARK    2  A    between atoms: S_2  and  C_3
REMARK    3  A    between atoms: C_6  and  C_7
REMARK                            x       y       z     vdW  Elec       q    Type
REMARK                         _______ _______ _______ _____ _____    ______ ____
ROOT
ATOM      1  C   UNL     1       2.431   7.049  19.308  0.00  0.00    +0.000 A 
ATOM      2  N   UNL     1       1.973   6.194  20.265  0.00  0.00    +0.000 NA
ATOM      3  C   UNL     1       2.399   4.913  20.284  0.00  0.00    +0.000 A 
ATOM      4  C   UNL     1       2.103   4.110  21.371  0.00  0.00    +0.000 A 
ATOM      5  C   UNL     1       2.594   2.809  21.459  0.00  0.00    +0.000 A 
ATOM      6  C   UNL     1       3.343   2.325  20.408  0.00  0.00    +0.000 A 
ATOM      7  N   UNL     1       3.620   3.048  19.311  0.00  0.00    +0.000 NA
ATOM      8  C   UNL     1       3.182   4.331  19.276  0.00  0.00    +0.000 A 
ATOM      9  C   UNL     1       3.587   5.212  18.297  0.00  0.00    +0.000 A 
ATOM     10  C   UNL     1       3.359   6.600  18.393  0.00  0.00    +0.000 A 
ATOM     11  C   UNL     1       4.343   7.319  17.483  0.00  0.00    +0.000 C 
ATOM     12  C   UNL     1       4.941   6.169  16.682  0.00  0.00    +0.000 A 
ATOM     13  C   UNL     1       5.868   6.178  15.654  0.00  0.00    +0.000 A 
ATOM     14  C   UNL     1       6.117   4.973  14.978  0.00  0.00    +0.000 A 
ATOM     15  C   UNL     1       5.434   3.796  15.321  0.00  0.00    +0.000 A 
ATOM     16  C   UNL     1       4.571   3.782  16.414  0.00  0.00    +0.000 A 
ATOM     17  C   UNL     1       4.387   4.958  17.124  0.00  0.00    +0.000 A 
ENDROOT
BRANCH   1  21
ATOM     18  C   UNL     1      -0.099  10.545  19.194  0.00  0.00    +0.000 A 
ATOM     19  C   UNL     1       0.194   9.919  20.402  0.00  0.00    +0.000 A 
ATOM     20  C   UNL     1       1.080   8.832  20.433  0.00  0.00    +0.000 A 
ATOM     21  C   UNL     1       1.682   8.323  19.266  0.00  0.00    +0.000 A 
ATOM     22  C   UNL     1       1.364   8.967  18.060  0.00  0.00    +0.000 A 
ATOM     23  C   UNL     1       0.482  10.068  18.019  0.00  0.00    +0.000 A 
BRANCH  18  25
ATOM     24  C   UNL     1      -2.068  11.525  17.621  0.00  0.00    +0.000 C 
ATOM     25  S   UNL     1      -1.206  11.938  19.157  0.00  0.00    +0.000 S 
ENDBRANCH  18  25
ENDBRANCH   1  21
TORSDOF 2
ENDMDL
MODEL 3
REMARK VINA RESULT:      -8.8      1.107      1.496
REMARK  Name = 
REMARK  3 active torsions:
REMARK  status: ('A' for Active; 'I' for Inactive)
REMARK    1  A    between atoms: C_1  and  S_2
REMARK    2  A    between atoms: S_2  and  C_3
REMARK    3  A    between atoms: C_6  and  C_7
REMARK                            x       y       z     vdW  Elec       q    Type
REMARK                         _______ _______ _______ _____ _____    ______ ____
ROOT
ATOM      1  C   UNL     1       2.455   6.964  19.317  0.00  0.00    +0.000 A 
ATOM      2  N   UNL     1       1.996   6.106  20.271  0.00  0.00    +0.000 NA
ATOM      3  C   UNL     1       2.437   4.830  20.300  0.00  0.00    +0.000 A 
ATOM      4  C   UNL     1       2.138   4.028  21.386  0.00  0.00    +0.000 A 
ATOM      5  C   UNL     1       2.643   2.733  21.484  0.00  0.00    +0.000 A 
ATOM      6  C   UNL     1       3.410   2.254  20.444  0.00  0.00    +0.000 A 
ATOM      7  N   UNL     1       3.692   2.978  19.348  0.00  0.00    +0.000 NA
ATOM      8  C   UNL     1       3.239   4.256  19.304  0.00  0.00    +0.000 A 
ATOM      9  C   UNL     1       3.645   5.138  18.326  0.00  0.00    +0.000 A 
ATOM     10  C   UNL     1       3.400   6.523  18.415  0.00  0.00    +0.000 A 
ATOM     11  C   UNL     1       4.386   7.252  17.515  0.00  0.00    +0.000 C 
ATOM     12  C   UNL     1       5.008   6.107  16.725  0.00  0.00    +0.000 A 
ATOM     13  C   UNL     1       5.947   6.123  15.708  0.00  0.00    +0.000 A 
ATOM     14  C   UNL     1       6.218   4.919  15.040  0.00  0.00    +0.000 A 
ATOM     15  C   UNL     1       5.546   3.736  15.378  0.00  0.00    +0.000 A 
ATOM     16  C   UNL     1       4.669   3.714  16.460  0.00  0.00    +0.000 A 
ATOM     17  C   UNL     1       4.463   4.890  17.164  0.00  0.00    +0.000 A 
ENDROOT
BRANCH   1  21
ATOM     18  C   UNL     1       0.586  10.853  19.187  0.00  0.00    +0.000 A 
ATOM     19  C   UNL     1       1.133  10.288  18.039  0.00  0.00    +0.000 A 
ATOM     20  C   UNL     1       1.666   8.992  18.079  0.00  0.00    +0.000 A 
ATOM     21  C   UNL     1       1.692   8.228  19.262  0.00  0.00    +0.000 A 
ATOM     22  C   UNL     1       1.142   8.824  20.408  0.00  0.00    +0.000 A 
ATOM     23  C   UNL     1       0.593  10.124  20.377  0.00  0.00    +0.000 A 
BRANCH  18  25
ATOM     24  C   UNL     1      -1.581  12.097  18.155  0.00  0.00    +0.000 C 
ATOM     25  S   UNL     1      -0.110  12.490  19.133  0.00  0.00    +0.000 S 
ENDBRANCH  18  25
ENDBRANCH   1  21
TORSDOF 2
ENDMDL
MODEL 4
REMARK VINA RESULT:      -8.8      0.673      1.259
REMARK  Name = 
REMARK  3 active torsions:
REMARK  status: ('A' for Active; 'I' for Inactive)
REMARK    1  A    between atoms: C_1  and  S_2
REMARK    2  A    between atoms: S_2  and  C_3
REMARK    3  A    between atoms: C_6  and  C_7
REMARK                            x       y       z     vdW  Elec       q    Type
REMARK                         _______ _______ _______ _____ _____    ______ ____
ROOT
ATOM      1  C   UNL     1       2.594   6.581  18.675  0.00  0.00    +0.000 A 
ATOM      2  N   UNL     1       1.808   5.620  19.235  0.00  0.00    +0.000 NA
ATOM      3  C   UNL     1       2.082   4.315  19.019  0.00  0.00    +0.000 A 
ATOM      4  C   UNL     1       1.421   3.347  19.754  0.00  0.00    +0.000 A 
ATOM      5  C   UNL     1       1.736   1.997  19.613  0.00  0.00    +0.000 A 
ATOM      6  C   UNL     1       2.691   1.647  18.683  0.00  0.00    +0.000 A 
ATOM      7  N   UNL     1       3.329   2.545  17.914  0.00  0.00    +0.000 NA
ATOM      8  C   UNL     1       3.048   3.856  18.113  0.00  0.00    +0.000 A 
ATOM      9  C   UNL     1       3.792   4.857  17.526  0.00  0.00    +0.000 A 
ATOM     10  C   UNL     1       3.687   6.205  17.925  0.00  0.00    +0.000 A 
ATOM     11  C   UNL     1       4.949   6.939  17.499  0.00  0.00    +0.000 C 
ATOM     12  C   UNL     1       5.626   5.918  16.593  0.00  0.00    +0.000 A 
ATOM     13  C   UNL     1       6.794   6.006  15.856  0.00  0.00    +0.000 A 
ATOM     14  C   UNL     1       7.097   4.962  14.969  0.00  0.00    +0.000 A 
ATOM     15  C   UNL     1       6.232   3.867  14.817  0.00  0.00    +0.000 A 
ATOM     16  C   UNL     1       5.106   3.748  15.627  0.00  0.00    +0.000 A 
ATOM     17  C   UNL     1       4.853   4.747  16.555  0.00  0.00    +0.000 A 
ENDROOT
BRANCH   1  21
ATOM     18  C   UNL     1       1.288  10.674  19.103  0.00  0.00    +0.000 A 
ATOM     19  C   UNL     1       1.861  10.231  17.915  0.00  0.00    +0.000 A 
ATOM     20  C   UNL     1       2.208   8.881  17.763  0.00  0.00    +0.000 A 
ATOM     21  C   UNL     1       2.017   7.937  18.791  0.00  0.00    +0.000 A 
ATOM     22  C   UNL     1       1.444   8.411  19.982  0.00  0.00    +0.000 A 
ATOM     23  C   UNL     1       1.082   9.766  20.142  0.00  0.00    +0.000 A 
BRANCH  18  25
ATOM     24  C   UNL     1       2.133  13.102  18.266  0.00  0.00    +0.000 C 
ATOM     25  S   UNL     1       0.827  12.382  19.290  0.00  0.00    +0.000 S 
ENDBRANCH  18  25
ENDBRANCH   1  21
TORSDOF 2
ENDMDL
MODEL 5
REMARK VINA RESULT:      -8.1      1.513      4.162
REMARK  Name = 
REMARK  3 active torsions:
REMARK  status: ('A' for Active; 'I' for Inactive)
REMARK    1  A    between atoms: C_1  and  S_2
REMARK    2  A    between atoms: S_2  and  C_3
REMARK    3  A    between atoms: C_6  and  C_7
REMARK                            x       y       z     vdW  Elec       q    Type
REMARK                         _______ _______ _______ _____ _____    ______ ____
ROOT
ATOM      1  C   UNL     1       2.585   7.307  18.497  0.00  0.00    +0.000 A 
ATOM      2  N   UNL     1       3.509   7.440  17.505  0.00  0.00    +0.000 NA
ATOM      3  C   UNL     1       4.289   6.391  17.165  0.00  0.00    +0.000 A 
ATOM      4  C   UNL     1       5.070   6.462  16.025  0.00  0.00    +0.000 A 
ATOM      5  C   UNL     1       5.825   5.370  15.602  0.00  0.00    +0.000 A 
ATOM      6  C   UNL     1       5.813   4.231  16.379  0.00  0.00    +0.000 A 
ATOM      7  N   UNL     1       5.107   4.129  17.517  0.00  0.00    +0.000 NA
ATOM      8  C   UNL     1       4.333   5.184  17.875  0.00  0.00    +0.000 A 
ATOM      9  C   UNL     1       3.421   5.100  18.905  0.00  0.00    +0.000 A 
ATOM     10  C   UNL     1       2.433   6.084  19.116  0.00  0.00    +0.000 A 
ATOM     11  C   UNL     1       1.307   5.475  19.936  0.00  0.00    +0.000 C 
ATOM     12  C   UNL     1       1.910   4.147  20.377  0.00  0.00    +0.000 A 
ATOM     13  C   UNL     1       1.395   3.152  21.190  0.00  0.00    +0.000 A 
ATOM     14  C   UNL     1       2.244   2.101  21.567  0.00  0.00    +0.000 A 
ATOM     15  C   UNL     1       3.583   2.066  21.149  0.00  0.00    +0.000 A 
ATOM     16  C   UNL     1       4.063   3.025  20.261  0.00  0.00    +0.000 A 
ATOM     17  C   UNL     1       3.197   4.018  19.833  0.00  0.00    +0.000 A 
ENDROOT
BRANCH   1  21
ATOM     18  C   UNL     1       0.513  10.908  19.668  0.00  0.00    +0.000 A 
ATOM     19  C   UNL     1       0.693   9.866  20.573  0.00  0.00    +0.000 A 
ATOM     20  C   UNL     1       1.436   8.735  20.202  0.00  0.00    +0.000 A 
ATOM     21  C   UNL     1       2.002   8.597  18.920  0.00  0.00    +0.000 A 
ATOM     22  C   UNL     1       1.799   9.659  18.024  0.00  0.00    +0.000 A 
ATOM     23  C   UNL     1       1.062  10.806  18.390  0.00  0.00    +0.000 A 
BRANCH  18  25
ATOM     24  C   UNL     1      -0.376  13.203  18.547  0.00  0.00    +0.000 C 
ATOM     25  S   UNL     1      -0.411  12.353  20.144  0.00  0.00    +0.000 S 
ENDBRANCH  18  25
ENDBRANCH   1  21
TORSDOF 2
ENDMDL
MODEL 6
REMARK VINA RESULT:      -8.0      1.525      3.984
REMARK  Name = 
REMARK  3 active torsions:
REMARK  status: ('A' for Active; 'I' for Inactive)
REMARK    1  A    between atoms: C_1  and  S_2
REMARK    2  A    between atoms: S_2  and  C_3
REMARK    3  A    between atoms: C_6  and  C_7
REMARK                            x       y       z     vdW  Elec       q    Type
REMARK                         _______ _______ _______ _____ _____    ______ ____
ROOT
ATOM      1  C   UNL     1       2.943   7.226  18.137  0.00  0.00    +0.000 A 
ATOM      2  N   UNL     1       4.205   7.621  17.810  0.00  0.00    +0.000 NA
ATOM      3  C   UNL     1       5.162   6.698  17.578  0.00  0.00    +0.000 A 
ATOM      4  C   UNL     1       6.375   7.090  17.041  0.00  0.00    +0.000 A 
ATOM      5  C   UNL     1       7.355   6.154  16.717  0.00  0.00    +0.000 A 
ATOM      6  C   UNL     1       7.102   4.827  16.991  0.00  0.00    +0.000 A 
ATOM      7  N   UNL     1       5.959   4.401  17.553  0.00  0.00    +0.000 NA
ATOM      8  C   UNL     1       4.997   5.324  17.804  0.00  0.00    +0.000 A 
ATOM      9  C   UNL     1       3.723   4.962  18.183  0.00  0.00    +0.000 A 
ATOM     10  C   UNL     1       2.651   5.879  18.188  0.00  0.00    +0.000 A 
ATOM     11  C   UNL     1       1.345   5.103  18.128  0.00  0.00    +0.000 C 
ATOM     12  C   UNL     1       1.810   3.671  18.364  0.00  0.00    +0.000 A 
ATOM     13  C   UNL     1       1.084   2.497  18.471  0.00  0.00    +0.000 A 
ATOM     14  C   UNL     1       1.764   1.332  18.860  0.00  0.00    +0.000 A 
ATOM     15  C   UNL     1       3.137   1.358  19.150  0.00  0.00    +0.000 A 
ATOM     16  C   UNL     1       3.872   2.524  18.953  0.00  0.00    +0.000 A 
ATOM     17  C   UNL     1       3.207   3.652  18.497  0.00  0.00    +0.000 A 
ENDROOT
BRANCH   1  21
ATOM     18  C   UNL     1       0.144  10.214  19.505  0.00  0.00    +0.000 A 
ATOM     19  C   UNL     1       0.721   9.319  20.400  0.00  0.00    +0.000 A 
ATOM     20  C   UNL     1       1.687   8.405  19.954  0.00  0.00    +0.000 A 
ATOM     21  C   UNL     1       2.092   8.339  18.607  0.00  0.00    +0.000 A 
ATOM     22  C   UNL     1       1.489   9.248  17.723  0.00  0.00    +0.000 A 
ATOM     23  C   UNL     1       0.523  10.179  18.162  0.00  0.00    +0.000 A 
BRANCH  18  25
ATOM     24  C   UNL     1      -1.808  11.772  18.467  0.00  0.00    +0.000 C 
ATOM     25  S   UNL     1      -1.066  11.389  20.072  0.00  0.00    +0.000 S 
ENDBRANCH  18  25
ENDBRANCH   1  21
TORSDOF 2
ENDMDL
MODEL 7
REMARK VINA RESULT:      -7.9      1.642      4.349
REMARK  Name = 
REMARK  3 active torsions:
REMARK  status: ('A' for Active; 'I' for Inactive)
REMARK    1  A    between atoms: C_1  and  S_2
REMARK    2  A    between atoms: S_2  and  C_3
REMARK    3  A    between atoms: C_6  and  C_7
REMARK                            x       y       z     vdW  Elec       q    Type
REMARK                         _______ _______ _______ _____ _____    ______ ____
ROOT
ATOM      1  C   UNL     1       2.446   7.365  18.509  0.00  0.00    +0.000 A 
ATOM      2  N   UNL     1       3.388   7.532  17.539  0.00  0.00    +0.000 NA
ATOM      3  C   UNL     1       4.210   6.511  17.214  0.00  0.00    +0.000 A 
ATOM      4  C   UNL     1       5.014   6.611  16.094  0.00  0.00    +0.000 A 
ATOM      5  C   UNL     1       5.815   5.546  15.685  0.00  0.00    +0.000 A 
ATOM      6  C   UNL     1       5.821   4.405  16.459  0.00  0.00    +0.000 A 
ATOM      7  N   UNL     1       5.093   4.275  17.580  0.00  0.00    +0.000 NA
ATOM      8  C   UNL     1       4.276   5.303  17.922  0.00  0.00    +0.000 A 
ATOM      9  C   UNL     1       3.343   5.186  18.930  0.00  0.00    +0.000 A 
ATOM     10  C   UNL     1       2.319   6.136  19.120  0.00  0.00    +0.000 A 
ATOM     11  C   UNL     1       1.194   5.488  19.912  0.00  0.00    +0.000 C 
ATOM     12  C   UNL     1       1.830   4.179  20.363  0.00  0.00    +0.000 A 
ATOM     13  C   UNL     1       1.328   3.165  21.160  0.00  0.00    +0.000 A 
ATOM     14  C   UNL     1       2.202   2.140  21.555  0.00  0.00    +0.000 A 
ATOM     15  C   UNL     1       3.551   2.150  21.168  0.00  0.00    +0.000 A 
ATOM     16  C   UNL     1       4.021   3.127  20.295  0.00  0.00    +0.000 A 
ATOM     17  C   UNL     1       3.133   4.094  19.849  0.00  0.00    +0.000 A 
ENDROOT
BRANCH   1  21
ATOM     18  C   UNL     1       0.969  11.209  19.806  0.00  0.00    +0.000 A 
ATOM     19  C   UNL     1       1.475  11.039  18.521  0.00  0.00    +0.000 A 
ATOM     20  C   UNL     1       1.879   9.767  18.088  0.00  0.00    +0.000 A 
ATOM     21  C   UNL     1       1.811   8.635  18.922  0.00  0.00    +0.000 A 
ATOM     22  C   UNL     1       1.304   8.835  20.216  0.00  0.00    +0.000 A 
ATOM     23  C   UNL     1       0.886  10.108  20.659  0.00  0.00    +0.000 A 
BRANCH  18  25
ATOM     24  C   UNL     1      -0.416  12.296  21.859  0.00  0.00    +0.000 C 
ATOM     25  S   UNL     1       0.436  12.817  20.350  0.00  0.00    +0.000 S 
ENDBRANCH  18  25
ENDBRANCH   1  21
TORSDOF 2
ENDMDL
MODEL 8
REMARK VINA RESULT:      -7.9      1.542      4.090
REMARK  Name = 
REMARK  3 active torsions:
REMARK  status: ('A' for Active; 'I' for Inactive)
REMARK    1  A    between atoms: C_1  and  S_2
REMARK    2  A    between atoms: S_2  and  C_3
REMARK    3  A    between atoms: C_6  and  C_7
REMARK                            x       y       z     vdW  Elec       q    Type
REMARK                         _______ _______ _______ _____ _____    ______ ____
ROOT
ATOM      1  C   UNL     1       2.954   7.265  18.110  0.00  0.00    +0.000 A 
ATOM      2  N   UNL     1       4.220   7.664  17.802  0.00  0.00    +0.000 NA
ATOM      3  C   UNL     1       5.184   6.743  17.589  0.00  0.00    +0.000 A 
ATOM      4  C   UNL     1       6.404   7.138  17.071  0.00  0.00    +0.000 A 
ATOM      5  C   UNL     1       7.393   6.204  16.766  0.00  0.00    +0.000 A 
ATOM      6  C   UNL     1       7.139   4.877  17.041  0.00  0.00    +0.000 A 
ATOM      7  N   UNL     1       5.989   4.448  17.585  0.00  0.00    +0.000 NA
ATOM      8  C   UNL     1       5.020   5.369  17.817  0.00  0.00    +0.000 A 
ATOM      9  C   UNL     1       3.741   5.005  18.177  0.00  0.00    +0.000 A 
ATOM     10  C   UNL     1       2.666   5.917  18.161  0.00  0.00    +0.000 A 
ATOM     11  C   UNL     1       1.364   5.136  18.083  0.00  0.00    +0.000 C 
ATOM     12  C   UNL     1       1.830   3.707  18.332  0.00  0.00    +0.000 A 
ATOM     13  C   UNL     1       1.106   2.531  18.431  0.00  0.00    +0.000 A 
ATOM     14  C   UNL     1       1.784   1.370  18.835  0.00  0.00    +0.000 A 
ATOM     15  C   UNL     1       3.151   1.402  19.147  0.00  0.00    +0.000 A 
ATOM     16  C   UNL     1       3.885   2.570  18.958  0.00  0.00    +0.000 A 
ATOM     17  C   UNL     1       3.225   3.694  18.487  0.00  0.00    +0.000 A 
ENDROOT
BRANCH   1  21
ATOM     18  C   UNL     1       0.780  10.706  19.548  0.00  0.00    +0.000 A 
ATOM     19  C   UNL     1       1.359  10.709  18.283  0.00  0.00    +0.000 A 
ATOM     20  C   UNL     1       1.995   9.557  17.799  0.00  0.00    +0.000 A 
ATOM     21  C   UNL     1       2.092   8.377  18.562  0.00  0.00    +0.000 A 
ATOM     22  C   UNL     1       1.507   8.403  19.838  0.00  0.00    +0.000 A 
ATOM     23  C   UNL     1       0.856   9.554  20.331  0.00  0.00    +0.000 A 
BRANCH  18  25
ATOM     24  C   UNL     1      -0.771  12.703  18.589  0.00  0.00    +0.000 C 
ATOM     25  S   UNL     1      -0.045  12.161  20.155  0.00  0.00    +0.000 S 
ENDBRANCH  18  25
ENDBRANCH   1  21
TORSDOF 2
ENDMDL
MODEL 9
REMARK VINA RESULT:      -7.8      2.755      6.445
REMARK  Name = 
REMARK  3 active torsions:
REMARK  status: ('A' for Active; 'I' for Inactive)
REMARK    1  A    between atoms: C_1  and  S_2
REMARK    2  A    between atoms: S_2  and  C_3
REMARK    3  A    between atoms: C_6  and  C_7
REMARK                            x       y       z     vdW  Elec       q    Type
REMARK                         _______ _______ _______ _____ _____    ______ ____
ROOT
ATOM      1  C   UNL     1       4.020   4.801  17.634  0.00  0.00    +0.000 A 
ATOM      2  N   UNL     1       3.978   3.657  18.373  0.00  0.00    +0.000 NA
ATOM      3  C   UNL     1       3.220   3.604  19.490  0.00  0.00    +0.000 A 
ATOM      4  C   UNL     1       3.010   2.388  20.116  0.00  0.00    +0.000 A 
ATOM      5  C   UNL     1       2.171   2.285  21.223  0.00  0.00    +0.000 A 
ATOM      6  C   UNL     1       1.593   3.438  21.710  0.00  0.00    +0.000 A 
ATOM      7  N   UNL     1       1.802   4.648  21.166  0.00  0.00    +0.000 NA
ATOM      8  C   UNL     1       2.574   4.713  20.053  0.00  0.00    +0.000 A 
ATOM      9  C   UNL     1       2.679   5.867  19.306  0.00  0.00    +0.000 A 
ATOM     10  C   UNL     1       3.253   5.880  18.019  0.00  0.00    +0.000 A 
ATOM     11  C   UNL     1       2.758   7.111  17.277  0.00  0.00    +0.000 C 
ATOM     12  C   UNL     1       2.075   7.903  18.385  0.00  0.00    +0.000 A 
ATOM     13  C   UNL     1       1.463   9.144  18.356  0.00  0.00    +0.000 A 
ATOM     14  C   UNL     1       1.060   9.711  19.575  0.00  0.00    +0.000 A 
ATOM     15  C   UNL     1       1.285   9.048  20.791  0.00  0.00    +0.000 A 
ATOM     16  C   UNL     1       1.820   7.763  20.799  0.00  0.00    +0.000 A 
ATOM     17  C   UNL     1       2.147   7.179  19.585  0.00  0.00    +0.000 A 
ENDROOT
BRANCH   1  21
ATOM     18  C   UNL     1       6.918   5.062  14.445  0.00  0.00    +0.000 A 
ATOM     19  C   UNL     1       6.992   5.912  15.544  0.00  0.00    +0.000 A 
ATOM     20  C   UNL     1       6.091   5.764  16.609  0.00  0.00    +0.000 A 
ATOM     21  C   UNL     1       5.080   4.784  16.604  0.00  0.00    +0.000 A 
ATOM     22  C   UNL     1       5.022   3.943  15.481  0.00  0.00    +0.000 A 
ATOM     23  C   UNL     1       5.930   4.077  14.409  0.00  0.00    +0.000 A 
BRANCH  18  25
ATOM     24  C   UNL     1       7.222   4.178  11.907  0.00  0.00    +0.000 C 
ATOM     25  S   UNL     1       8.074   5.235  13.103  0.00  0.00    +0.000 S 
ENDBRANCH  18  25
ENDBRANCH   1  21
TORSDOF 2
ENDMDL
