MODEL 1
REMARK VINA RESULT:      -7.2      0.000      0.000
REMARK  Name = 
REMARK  2 active torsions:
REMARK  status: ('A' for Active; 'I' for Inactive)
REMARK    1  A    between atoms: C_1  and  C_2
REMARK    2  A    between atoms: N_12  and  C_13
REMARK                            x       y       z     vdW  Elec       q    Type
REMARK                         _______ _______ _______ _____ _____    ______ ____
ROOT
ATOM      1  C   UNL     1       3.679   7.596  17.340  0.00  0.00    +0.000 C 
ATOM      2  C   UNL     1       3.394   6.601  18.462  0.00  0.00    +0.000 A 
ATOM      3  N   UNL     1       2.474   7.044  19.262  0.00  0.00    +0.000 NA
ATOM      4  C   UNL     1       2.010   6.263  20.276  0.00  0.00    +0.000 A 
ATOM      5  O   UNL     1       1.198   6.673  21.103  0.00  0.00    +0.000 OA
ATOM      6  C   UNL     1       2.485   4.868  20.382  0.00  0.00    +0.000 A 
ATOM      7  C   UNL     1       1.879   4.010  21.310  0.00  0.00    +0.000 A 
ATOM      8  C   UNL     1       2.336   2.707  21.451  0.00  0.00    +0.000 A 
ATOM      9  C   UNL     1       3.435   2.293  20.710  0.00  0.00    +0.000 A 
ATOM     10  C   UNL     1       4.050   3.171  19.804  0.00  0.00    +0.000 A 
ATOM     11  C   UNL     1       3.544   4.459  19.556  0.00  0.00    +0.000 A 
ATOM     12  N   UNL     1       4.054   5.351  18.545  0.00  0.00    +0.000 N 
ENDROOT
BRANCH  12  13
ATOM     13  C   UNL     1       5.051   4.968  17.575  0.00  0.00    +0.000 A 
ATOM     14  C   UNL     1       6.426   5.152  17.814  0.00  0.00    +0.000 A 
ATOM     15  C   UNL     1       7.394   4.838  16.852  0.00  0.00    +0.000 A 
ATOM     16  C   UNL     1       7.014   4.249  15.652  0.00  0.00    +0.000 A 
ATOM     17  C   UNL     1       5.668   4.013  15.402  0.00  0.00    +0.000 A 
ATOM     18  C   UNL     1       4.699   4.405  16.334  0.00  0.00    +0.000 A 
ENDBRANCH  12  13
TORSDOF 1
ENDMDL
MODEL 2
REMARK VINA RESULT:      -7.2      0.034      1.131
REMARK  Name = 
REMARK  2 active torsions:
REMARK  status: ('A' for Active; 'I' for Inactive)
REMARK    1  A    between atoms: C_1  and  C_2
REMARK    2  A    between atoms: N_12  and  C_13
REMARK                            x       y       z     vdW  Elec       q    Type
REMARK                         _______ _______ _______ _____ _____    ______ ____
ROOT
ATOM      1  C   UNL     1       3.656   7.627  17.360  0.00  0.00    +0.000 C 
ATOM      2  C   UNL     1       3.385   6.628  18.480  0.00  0.00    +0.000 A 
ATOM      3  N   UNL     1       2.465   7.061  19.286  0.00  0.00    +0.000 NA
ATOM      4  C   UNL     1       2.012   6.275  20.300  0.00  0.00    +0.000 A 
ATOM      5  O   UNL     1       1.201   6.677  21.133  0.00  0.00    +0.000 OA
ATOM      6  C   UNL     1       2.499   4.883  20.401  0.00  0.00    +0.000 A 
ATOM      7  C   UNL     1       1.903   4.018  21.330  0.00  0.00    +0.000 A 
ATOM      8  C   UNL     1       2.371   2.718  21.465  0.00  0.00    +0.000 A 
ATOM      9  C   UNL     1       3.470   2.315  20.719  0.00  0.00    +0.000 A 
ATOM     10  C   UNL     1       4.074   3.200  19.812  0.00  0.00    +0.000 A 
ATOM     11  C   UNL     1       3.557   4.484  19.568  0.00  0.00    +0.000 A 
ATOM     12  N   UNL     1       4.055   5.383  18.557  0.00  0.00    +0.000 N 
ENDROOT
BRANCH  12  13
ATOM     13  C   UNL     1       5.050   5.010  17.582  0.00  0.00    +0.000 A 
ATOM     14  C   UNL     1       4.697   4.426  16.350  0.00  0.00    +0.000 A 
ATOM     15  C   UNL     1       5.663   4.006  15.426  0.00  0.00    +0.000 A 
ATOM     16  C   UNL     1       7.010   4.239  15.675  0.00  0.00    +0.000 A 
ATOM     17  C   UNL     1       7.390   4.853  16.862  0.00  0.00    +0.000 A 
ATOM     18  C   UNL     1       6.425   5.195  17.819  0.00  0.00    +0.000 A 
ENDBRANCH  12  13
TORSDOF 1
ENDMDL
MODEL 3
REMARK VINA RESULT:      -7.1      1.601      3.079
REMARK  Name = 
REMARK  2 active torsions:
REMARK  status: ('A' for Active; 'I' for Inactive)
REMARK    1  A    between atoms: C_1  and  C_2
REMARK    2  A    between atoms: N_12  and  C_13
REMARK                            x       y       z     vdW  Elec       q    Type
REMARK                         _______ _______ _______ _____ _____    ______ ____
ROOT
ATOM      1  C   UNL     1       4.159   1.344  18.367  0.00  0.00    +0.000 C 
ATOM      2  C   UNL     1       3.378   2.575  18.818  0.00  0.00    +0.000 A 
ATOM      3  N   UNL     1       2.436   2.256  19.652  0.00  0.00    +0.000 NA
ATOM      4  C   UNL     1       1.684   3.224  20.243  0.00  0.00    +0.000 A 
ATOM      5  O   UNL     1       0.731   2.961  20.976  0.00  0.00    +0.000 OA
ATOM      6  C   UNL     1       2.028   4.642  20.011  0.00  0.00    +0.000 A 
ATOM      7  C   UNL     1       1.373   5.633  20.756  0.00  0.00    +0.000 A 
ATOM      8  C   UNL     1       1.656   6.973  20.527  0.00  0.00    +0.000 A 
ATOM      9  C   UNL     1       2.541   7.312  19.512  0.00  0.00    +0.000 A 
ATOM     10  C   UNL     1       3.169   6.310  18.756  0.00  0.00    +0.000 A 
ATOM     11  C   UNL     1       2.992   4.944  19.036  0.00  0.00    +0.000 A 
ATOM     12  N   UNL     1       3.709   3.880  18.380  0.00  0.00    +0.000 N 
ENDROOT
BRANCH  12  13
ATOM     13  C   UNL     1       4.798   4.104  17.461  0.00  0.00    +0.000 A 
ATOM     14  C   UNL     1       6.106   4.369  17.911  0.00  0.00    +0.000 A 
ATOM     15  C   UNL     1       7.153   4.648  17.024  0.00  0.00    +0.000 A 
ATOM     16  C   UNL     1       6.937   4.582  15.653  0.00  0.00    +0.000 A 
ATOM     17  C   UNL     1       5.668   4.278  15.174  0.00  0.00    +0.000 A 
ATOM     18  C   UNL     1       4.606   4.084  16.066  0.00  0.00    +0.000 A 
ENDBRANCH  12  13
TORSDOF 1
ENDMDL
MODEL 4
REMARK VINA RESULT:      -7.1      1.614      3.269
REMARK  Name = 
REMARK  2 active torsions:
REMARK  status: ('A' for Active; 'I' for Inactive)
REMARK    1  A    between atoms: C_1  and  C_2
REMARK    2  A    between atoms: N_12  and  C_13
REMARK                            x       y       z     vdW  Elec       q    Type
REMARK                         _______ _______ _______ _____ _____    ______ ____
ROOT
ATOM      1  C   UNL     1       4.152   1.360  18.283  0.00  0.00    +0.000 C 
ATOM      2  C   UNL     1       3.372   2.583  18.757  0.00  0.00    +0.000 A 
ATOM      3  N   UNL     1       2.436   2.251  19.592  0.00  0.00    +0.000 NA
ATOM      4  C   UNL     1       1.687   3.209  20.202  0.00  0.00    +0.000 A 
ATOM      5  O   UNL     1       0.739   2.934  20.937  0.00  0.00    +0.000 OA
ATOM      6  C   UNL     1       2.027   4.631  19.988  0.00  0.00    +0.000 A 
ATOM      7  C   UNL     1       1.376   5.610  20.751  0.00  0.00    +0.000 A 
ATOM      8  C   UNL     1       1.656   6.953  20.539  0.00  0.00    +0.000 A 
ATOM      9  C   UNL     1       2.533   7.308  19.524  0.00  0.00    +0.000 A 
ATOM     10  C   UNL     1       3.158   6.319  18.749  0.00  0.00    +0.000 A 
ATOM     11  C   UNL     1       2.984   4.948  19.010  0.00  0.00    +0.000 A 
ATOM     12  N   UNL     1       3.699   3.895  18.335  0.00  0.00    +0.000 N 
ENDROOT
BRANCH  12  13
ATOM     13  C   UNL     1       4.781   4.133  17.412  0.00  0.00    +0.000 A 
ATOM     14  C   UNL     1       4.581   4.129  16.018  0.00  0.00    +0.000 A 
ATOM     15  C   UNL     1       5.640   4.298  15.117  0.00  0.00    +0.000 A 
ATOM     16  C   UNL     1       6.919   4.565  15.591  0.00  0.00    +0.000 A 
ATOM     17  C   UNL     1       7.143   4.621  16.961  0.00  0.00    +0.000 A 
ATOM     18  C   UNL     1       6.096   4.367  17.857  0.00  0.00    +0.000 A 
ENDBRANCH  12  13
TORSDOF 1
ENDMDL
MODEL 5
REMARK VINA RESULT:      -7.1      2.243      3.484
REMARK  Name = 
REMARK  2 active torsions:
REMARK  status: ('A' for Active; 'I' for Inactive)
REMARK    1  A    between atoms: C_1  and  C_2
REMARK    2  A    between atoms: N_12  and  C_13
REMARK                            x       y       z     vdW  Elec       q    Type
REMARK                         _______ _______ _______ _____ _____    ______ ____
ROOT
ATOM      1  C   UNL     1       5.914   3.585  15.981  0.00  0.00    +0.000 C 
ATOM      2  C   UNL     1       4.715   3.859  16.883  0.00  0.00    +0.000 A 
ATOM      3  N   UNL     1       3.764   3.000  16.677  0.00  0.00    +0.000 NA
ATOM      4  C   UNL     1       2.643   3.016  17.449  0.00  0.00    +0.000 A 
ATOM      5  O   UNL     1       1.687   2.273  17.235  0.00  0.00    +0.000 OA
ATOM      6  C   UNL     1       2.573   3.948  18.593  0.00  0.00    +0.000 A 
ATOM      7  C   UNL     1       1.503   3.844  19.493  0.00  0.00    +0.000 A 
ATOM      8  C   UNL     1       1.400   4.734  20.553  0.00  0.00    +0.000 A 
ATOM      9  C   UNL     1       2.329   5.759  20.666  0.00  0.00    +0.000 A 
ATOM     10  C   UNL     1       3.380   5.869  19.743  0.00  0.00    +0.000 A 
ATOM     11  C   UNL     1       3.579   4.920  18.725  0.00  0.00    +0.000 A 
ATOM     12  N   UNL     1       4.711   4.908  17.833  0.00  0.00    +0.000 N 
ENDROOT
BRANCH  12  13
ATOM     13  C   UNL     1       5.845   5.788  17.977  0.00  0.00    +0.000 A 
ATOM     14  C   UNL     1       5.961   6.976  17.230  0.00  0.00    +0.000 A 
ATOM     15  C   UNL     1       7.089   7.801  17.320  0.00  0.00    +0.000 A 
ATOM     16  C   UNL     1       8.096   7.503  18.231  0.00  0.00    +0.000 A 
ATOM     17  C   UNL     1       7.992   6.362  19.017  0.00  0.00    +0.000 A 
ATOM     18  C   UNL     1       6.901   5.496  18.861  0.00  0.00    +0.000 A 
ENDBRANCH  12  13
TORSDOF 1
ENDMDL
MODEL 6
REMARK VINA RESULT:      -7.0      2.200      3.349
REMARK  Name = 
REMARK  2 active torsions:
REMARK  status: ('A' for Active; 'I' for Inactive)
REMARK    1  A    between atoms: C_1  and  C_2
REMARK    2  A    between atoms: N_12  and  C_13
REMARK                            x       y       z     vdW  Elec       q    Type
REMARK                         _______ _______ _______ _____ _____    ______ ____
ROOT
ATOM      1  C   UNL     1       5.742   3.430  16.073  0.00  0.00    +0.000 C 
ATOM      2  C   UNL     1       4.558   3.771  16.973  0.00  0.00    +0.000 A 
ATOM      3  N   UNL     1       3.586   2.927  16.814  0.00  0.00    +0.000 NA
ATOM      4  C   UNL     1       2.473   3.004  17.593  0.00  0.00    +0.000 A 
ATOM      5  O   UNL     1       1.497   2.275  17.421  0.00  0.00    +0.000 OA
ATOM      6  C   UNL     1       2.435   3.987  18.695  0.00  0.00    +0.000 A 
ATOM      7  C   UNL     1       1.372   3.948  19.608  0.00  0.00    +0.000 A 
ATOM      8  C   UNL     1       1.300   4.886  20.629  0.00  0.00    +0.000 A 
ATOM      9  C   UNL     1       2.254   5.893  20.689  0.00  0.00    +0.000 A 
ATOM     10  C   UNL     1       3.298   5.936  19.752  0.00  0.00    +0.000 A 
ATOM     11  C   UNL     1       3.465   4.939  18.776  0.00  0.00    +0.000 A 
ATOM     12  N   UNL     1       4.588   4.861  17.876  0.00  0.00    +0.000 N 
ENDROOT
BRANCH  12  13
ATOM     13  C   UNL     1       5.744   5.719  17.971  0.00  0.00    +0.000 A 
ATOM     14  C   UNL     1       6.812   5.430  18.842  0.00  0.00    +0.000 A 
ATOM     15  C   UNL     1       7.907   6.292  18.983  0.00  0.00    +0.000 A 
ATOM     16  C   UNL     1       8.004   7.427  18.188  0.00  0.00    +0.000 A 
ATOM     17  C   UNL     1       6.988   7.719  17.285  0.00  0.00    +0.000 A 
ATOM     18  C   UNL     1       5.856   6.898  17.209  0.00  0.00    +0.000 A 
ENDBRANCH  12  13
TORSDOF 1
ENDMDL
MODEL 7
REMARK VINA RESULT:      -6.8      2.958      5.670
REMARK  Name = 
REMARK  2 active torsions:
REMARK  status: ('A' for Active; 'I' for Inactive)
REMARK    1  A    between atoms: C_1  and  C_2
REMARK    2  A    between atoms: N_12  and  C_13
REMARK                            x       y       z     vdW  Elec       q    Type
REMARK                         _______ _______ _______ _____ _____    ______ ____
ROOT
ATOM      1  C   UNL     1       4.994   5.516  19.652  0.00  0.00    +0.000 C 
ATOM      2  C   UNL     1       5.411   5.468  18.185  0.00  0.00    +0.000 A 
ATOM      3  N   UNL     1       6.446   6.219  17.965  0.00  0.00    +0.000 NA
ATOM      4  C   UNL     1       7.031   6.242  16.736  0.00  0.00    +0.000 A 
ATOM      5  O   UNL     1       7.962   6.998  16.465  0.00  0.00    +0.000 OA
ATOM      6  C   UNL     1       6.543   5.317  15.692  0.00  0.00    +0.000 A 
ATOM      7  C   UNL     1       7.255   5.210  14.489  0.00  0.00    +0.000 A 
ATOM      8  C   UNL     1       6.793   4.375  13.482  0.00  0.00    +0.000 A 
ATOM      9  C   UNL     1       5.590   3.705  13.660  0.00  0.00    +0.000 A 
ATOM     10  C   UNL     1       4.873   3.841  14.859  0.00  0.00    +0.000 A 
ATOM     11  C   UNL     1       5.369   4.589  15.941  0.00  0.00    +0.000 A 
ATOM     12  N   UNL     1       4.741   4.658  17.237  0.00  0.00    +0.000 N 
ENDROOT
BRANCH  12  13
ATOM     13  C   UNL     1       3.608   3.849  17.615  0.00  0.00    +0.000 A 
ATOM     14  C   UNL     1       2.300   4.372  17.641  0.00  0.00    +0.000 A 
ATOM     15  C   UNL     1       1.206   3.609  18.067  0.00  0.00    +0.000 A 
ATOM     16  C   UNL     1       1.379   2.270  18.397  0.00  0.00    +0.000 A 
ATOM     17  C   UNL     1       2.650   1.710  18.339  0.00  0.00    +0.000 A 
ATOM     18  C   UNL     1       3.753   2.501  17.993  0.00  0.00    +0.000 A 
ENDBRANCH  12  13
TORSDOF 1
ENDMDL
MODEL 8
REMARK VINA RESULT:      -6.8      2.533      5.517
REMARK  Name = 
REMARK  2 active torsions:
REMARK  status: ('A' for Active; 'I' for Inactive)
REMARK    1  A    between atoms: C_1  and  C_2
REMARK    2  A    between atoms: N_12  and  C_13
REMARK                            x       y       z     vdW  Elec       q    Type
REMARK                         _______ _______ _______ _____ _____    ______ ____
ROOT
ATOM      1  C   UNL     1       2.578   3.142  16.787  0.00  0.00    +0.000 C 
ATOM      2  C   UNL     1       3.947   3.782  16.995  0.00  0.00    +0.000 A 
ATOM      3  N   UNL     1       4.548   3.987  15.863  0.00  0.00    +0.000 NA
ATOM      4  C   UNL     1       5.744   4.636  15.827  0.00  0.00    +0.000 A 
ATOM      5  O   UNL     1       6.383   4.779  14.786  0.00  0.00    +0.000 OA
ATOM      6  C   UNL     1       6.292   5.202  17.077  0.00  0.00    +0.000 A 
ATOM      7  C   UNL     1       7.427   6.022  17.015  0.00  0.00    +0.000 A 
ATOM      8  C   UNL     1       7.978   6.533  18.182  0.00  0.00    +0.000 A 
ATOM      9  C   UNL     1       7.429   6.167  19.404  0.00  0.00    +0.000 A 
ATOM     10  C   UNL     1       6.309   5.324  19.454  0.00  0.00    +0.000 A 
ATOM     11  C   UNL     1       5.659   4.880  18.289  0.00  0.00    +0.000 A 
ATOM     12  N   UNL     1       4.432   4.123  18.281  0.00  0.00    +0.000 N 
ENDROOT
BRANCH  12  13
ATOM     13  C   UNL     1       3.653   3.858  19.466  0.00  0.00    +0.000 A 
ATOM     14  C   UNL     1       3.764   2.643  20.168  0.00  0.00    +0.000 A 
ATOM     15  C   UNL     1       2.966   2.356  21.283  0.00  0.00    +0.000 A 
ATOM     16  C   UNL     1       2.093   3.317  21.778  0.00  0.00    +0.000 A 
ATOM     17  C   UNL     1       1.992   4.545  21.135  0.00  0.00    +0.000 A 
ATOM     18  C   UNL     1       2.731   4.794  19.971  0.00  0.00    +0.000 A 
ENDBRANCH  12  13
TORSDOF 1
ENDMDL
MODEL 9
REMARK VINA RESULT:      -6.8      2.518      5.498
REMARK  Name = 
REMARK  2 active torsions:
REMARK  status: ('A' for Active; 'I' for Inactive)
REMARK    1  A    between atoms: C_1  and  C_2
REMARK    2  A    between atoms: N_12  and  C_13
REMARK                            x       y       z     vdW  Elec       q    Type
REMARK                         _______ _______ _______ _____ _____    ______ ____
ROOT
ATOM      1  C   UNL     1       2.490   3.214  16.797  0.00  0.00    +0.000 C 
ATOM      2  C   UNL     1       3.870   3.833  17.000  0.00  0.00    +0.000 A 
ATOM      3  N   UNL     1       4.456   4.060  15.864  0.00  0.00    +0.000 NA
ATOM      4  C   UNL     1       5.659   4.694  15.826  0.00  0.00    +0.000 A 
ATOM      5  O   UNL     1       6.284   4.857  14.779  0.00  0.00    +0.000 OA
ATOM      6  C   UNL     1       6.233   5.221  17.081  0.00  0.00    +0.000 A 
ATOM      7  C   UNL     1       7.377   6.029  17.023  0.00  0.00    +0.000 A 
ATOM      8  C   UNL     1       7.952   6.504  18.194  0.00  0.00    +0.000 A 
ATOM      9  C   UNL     1       7.417   6.114  19.414  0.00  0.00    +0.000 A 
ATOM     10  C   UNL     1       6.287   5.283  19.460  0.00  0.00    +0.000 A 
ATOM     11  C   UNL     1       5.614   4.877  18.294  0.00  0.00    +0.000 A 
ATOM     12  N   UNL     1       4.378   4.135  18.286  0.00  0.00    +0.000 N 
ENDROOT
BRANCH  12  13
ATOM     13  C   UNL     1       3.615   3.849  19.476  0.00  0.00    +0.000 A 
ATOM     14  C   UNL     1       2.715   4.784  20.022  0.00  0.00    +0.000 A 
ATOM     15  C   UNL     1       2.017   4.535  21.211  0.00  0.00    +0.000 A 
ATOM     16  C   UNL     1       2.138   3.302  21.840  0.00  0.00    +0.000 A 
ATOM     17  C   UNL     1       2.984   2.339  21.303  0.00  0.00    +0.000 A 
ATOM     18  C   UNL     1       3.742   2.626  20.161  0.00  0.00    +0.000 A 
ENDBRANCH  12  13
TORSDOF 1
ENDMDL
