MODEL 1
REMARK VINA RESULT:      -8.9      0.000      0.000
REMARK  Name = 
REMARK  2 active torsions:
REMARK  status: ('A' for Active; 'I' for Inactive)
REMARK    1  A    between atoms: C_4  and  C_5
REMARK    2  A    between atoms: C_8  and  C_9
REMARK                            x       y       z     vdW  Elec       q    Type
REMARK                         _______ _______ _______ _____ _____    ______ ____
ROOT
ATOM      1  C   UNL     1       6.538   4.419  16.178  0.00  0.00    +0.000 A 
ATOM      2  N   UNL     1       7.457   4.627  17.137  0.00  0.00    +0.000 NA
ATOM      3  O   UNL     1       6.739   4.471  18.324  0.00  0.00    +0.000 OA
ATOM      4  C   UNL     1       5.450   4.187  17.971  0.00  0.00    +0.000 A 
ATOM      5  N   UNL     1       5.280   4.145  16.671  0.00  0.00    +0.000 NA
ENDROOT
BRANCH   4   6
ATOM      6  C   UNL     1       4.491   3.942  19.048  0.00  0.00    +0.000 A 
ATOM      7  C   UNL     1       4.461   2.668  19.648  0.00  0.00    +0.000 A 
ATOM      8  C   UNL     1       3.509   2.351  20.610  0.00  0.00    +0.000 A 
ATOM      9  C   UNL     1       2.567   3.303  20.988  0.00  0.00    +0.000 A 
ATOM     10  C   UNL     1       2.574   4.589  20.429  0.00  0.00    +0.000 A 
ATOM     11  C   UNL     1       1.610   5.529  20.834  0.00  0.00    +0.000 A 
ATOM     12  C   UNL     1       1.594   6.820  20.310  0.00  0.00    +0.000 A 
ATOM     13  C   UNL     1       2.550   7.193  19.379  0.00  0.00    +0.000 A 
ATOM     14  C   UNL     1       3.511   6.267  18.963  0.00  0.00    +0.000 A 
ATOM     15  C   UNL     1       3.548   4.937  19.456  0.00  0.00    +0.000 A 
ENDBRANCH   4   6
BRANCH   1  19
ATOM     16  C   UNL     1       7.293   4.536  12.036  0.00  0.00    +0.000 A 
ATOM     17  C   UNL     1       6.334   3.655  12.517  0.00  0.00    +0.000 A 
ATOM     18  C   UNL     1       6.078   3.615  13.885  0.00  0.00    +0.000 A 
ATOM     19  C   UNL     1       6.793   4.460  14.735  0.00  0.00    +0.000 A 
ATOM     20  N   UNL     1       7.731   5.328  14.276  0.00  0.00    +0.000 NA
ATOM     21  C   UNL     1       7.958   5.344  12.944  0.00  0.00    +0.000 A 
ENDBRANCH   1  19
TORSDOF 2
ENDMDL
MODEL 2
REMARK VINA RESULT:      -8.8      0.812      2.460
REMARK  Name = 
REMARK  2 active torsions:
REMARK  status: ('A' for Active; 'I' for Inactive)
REMARK    1  A    between atoms: C_4  and  C_5
REMARK    2  A    between atoms: C_8  and  C_9
REMARK                            x       y       z     vdW  Elec       q    Type
REMARK                         _______ _______ _______ _____ _____    ______ ____
ROOT
ATOM      1  C   UNL     1       6.115   5.240  15.916  0.00  0.00    +0.000 A 
ATOM      2  N   UNL     1       6.962   5.610  16.893  0.00  0.00    +0.000 NA
ATOM      3  O   UNL     1       6.124   5.853  17.983  0.00  0.00    +0.000 OA
ATOM      4  C   UNL     1       4.847   5.609  17.562  0.00  0.00    +0.000 A 
ATOM      5  N   UNL     1       4.793   5.232  16.306  0.00  0.00    +0.000 NA
ENDROOT
BRANCH   4   6
ATOM      6  C   UNL     1       3.770   5.759  18.540  0.00  0.00    +0.000 A 
ATOM      7  C   UNL     1       3.112   7.001  18.633  0.00  0.00    +0.000 A 
ATOM      8  C   UNL     1       2.146   7.228  19.607  0.00  0.00    +0.000 A 
ATOM      9  C   UNL     1       1.823   6.218  20.507  0.00  0.00    +0.000 A 
ATOM     10  C   UNL     1       2.443   4.962  20.437  0.00  0.00    +0.000 A 
ATOM     11  C   UNL     1       2.093   3.961  21.361  0.00  0.00    +0.000 A 
ATOM     12  C   UNL     1       2.677   2.697  21.314  0.00  0.00    +0.000 A 
ATOM     13  C   UNL     1       3.615   2.413  20.334  0.00  0.00    +0.000 A 
ATOM     14  C   UNL     1       3.976   3.400  19.413  0.00  0.00    +0.000 A 
ATOM     15  C   UNL     1       3.420   4.705  19.441  0.00  0.00    +0.000 A 
ENDBRANCH   4   6
BRANCH   1  19
ATOM     16  C   UNL     1       7.254   4.155  12.008  0.00  0.00    +0.000 A 
ATOM     17  C   UNL     1       6.157   3.529  12.584  0.00  0.00    +0.000 A 
ATOM     18  C   UNL     1       5.773   3.887  13.874  0.00  0.00    +0.000 A 
ATOM     19  C   UNL     1       6.504   4.863  14.553  0.00  0.00    +0.000 A 
ATOM     20  N   UNL     1       7.578   5.484  14.000  0.00  0.00    +0.000 NA
ATOM     21  C   UNL     1       7.925   5.116  12.747  0.00  0.00    +0.000 A 
ENDBRANCH   1  19
TORSDOF 2
ENDMDL
MODEL 3
REMARK VINA RESULT:      -8.4      3.950      7.845
REMARK  Name = 
REMARK  2 active torsions:
REMARK  status: ('A' for Active; 'I' for Inactive)
REMARK    1  A    between atoms: C_4  and  C_5
REMARK    2  A    between atoms: C_8  and  C_9
REMARK                            x       y       z     vdW  Elec       q    Type
REMARK                         _______ _______ _______ _____ _____    ______ ____
ROOT
ATOM      1  C   UNL     1       1.416   8.960  19.403  0.00  0.00    +0.000 A 
ATOM      2  N   UNL     1       1.460   9.495  18.170  0.00  0.00    +0.000 NA
ATOM      3  O   UNL     1       2.234   8.590  17.442  0.00  0.00    +0.000 OA
ATOM      4  C   UNL     1       2.589   7.591  18.305  0.00  0.00    +0.000 A 
ATOM      5  N   UNL     1       2.112   7.774  19.513  0.00  0.00    +0.000 NA
ENDROOT
BRANCH   4   6
ATOM      6  C   UNL     1       3.385   6.486  17.771  0.00  0.00    +0.000 A 
ATOM      7  C   UNL     1       4.579   6.784  17.086  0.00  0.00    +0.000 A 
ATOM      8  C   UNL     1       5.326   5.780  16.478  0.00  0.00    +0.000 A 
ATOM      9  C   UNL     1       4.889   4.461  16.543  0.00  0.00    +0.000 A 
ATOM     10  C   UNL     1       3.716   4.120  17.231  0.00  0.00    +0.000 A 
ATOM     11  C   UNL     1       3.303   2.776  17.280  0.00  0.00    +0.000 A 
ATOM     12  C   UNL     1       2.151   2.399  17.966  0.00  0.00    +0.000 A 
ATOM     13  C   UNL     1       1.398   3.360  18.621  0.00  0.00    +0.000 A 
ATOM     14  C   UNL     1       1.793   4.700  18.576  0.00  0.00    +0.000 A 
ATOM     15  C   UNL     1       2.948   5.128  17.871  0.00  0.00    +0.000 A 
ENDBRANCH   4   6
BRANCH   1  19
ATOM     16  C   UNL     1      -0.634  10.612  22.690  0.00  0.00    +0.000 A 
ATOM     17  C   UNL     1      -0.439   9.238  22.644  0.00  0.00    +0.000 A 
ATOM     18  C   UNL     1       0.242   8.687  21.562  0.00  0.00    +0.000 A 
ATOM     19  C   UNL     1       0.708   9.530  20.552  0.00  0.00    +0.000 A 
ATOM     20  N   UNL     1       0.525  10.876  20.586  0.00  0.00    +0.000 NA
ATOM     21  C   UNL     1      -0.139  11.381  21.649  0.00  0.00    +0.000 A 
ENDBRANCH   1  19
TORSDOF 2
ENDMDL
MODEL 4
REMARK VINA RESULT:      -8.2      3.987      7.958
REMARK  Name = 
REMARK  2 active torsions:
REMARK  status: ('A' for Active; 'I' for Inactive)
REMARK    1  A    between atoms: C_4  and  C_5
REMARK    2  A    between atoms: C_8  and  C_9
REMARK                            x       y       z     vdW  Elec       q    Type
REMARK                         _______ _______ _______ _____ _____    ______ ____
ROOT
ATOM      1  C   UNL     1       1.315   8.977  19.559  0.00  0.00    +0.000 A 
ATOM      2  N   UNL     1       1.324   9.519  18.328  0.00  0.00    +0.000 NA
ATOM      3  O   UNL     1       2.092   8.626  17.578  0.00  0.00    +0.000 OA
ATOM      4  C   UNL     1       2.478   7.627  18.427  0.00  0.00    +0.000 A 
ATOM      5  N   UNL     1       2.027   7.799  19.647  0.00  0.00    +0.000 NA
ENDROOT
BRANCH   4   6
ATOM      6  C   UNL     1       3.273   6.533  17.870  0.00  0.00    +0.000 A 
ATOM      7  C   UNL     1       4.455   6.847  17.171  0.00  0.00    +0.000 A 
ATOM      8  C   UNL     1       5.200   5.856  16.542  0.00  0.00    +0.000 A 
ATOM      9  C   UNL     1       4.774   4.533  16.598  0.00  0.00    +0.000 A 
ATOM     10  C   UNL     1       3.613   4.176  17.299  0.00  0.00    +0.000 A 
ATOM     11  C   UNL     1       3.210   2.829  17.339  0.00  0.00    +0.000 A 
ATOM     12  C   UNL     1       2.070   2.436  18.036  0.00  0.00    +0.000 A 
ATOM     13  C   UNL     1       1.320   3.384  18.713  0.00  0.00    +0.000 A 
ATOM     14  C   UNL     1       1.705   4.727  18.677  0.00  0.00    +0.000 A 
ATOM     15  C   UNL     1       2.847   5.171  17.961  0.00  0.00    +0.000 A 
ENDBRANCH   4   6
BRANCH   1  19
ATOM     16  C   UNL     1      -0.642  10.578  22.927  0.00  0.00    +0.000 A 
ATOM     17  C   UNL     1      -0.859  11.161  21.687  0.00  0.00    +0.000 A 
ATOM     18  C   UNL     1      -0.218  10.634  20.569  0.00  0.00    +0.000 A 
ATOM     19  C   UNL     1       0.627   9.534  20.727  0.00  0.00    +0.000 A 
ATOM     20  N   UNL     1       0.845   8.952  21.935  0.00  0.00    +0.000 NA
ATOM     21  C   UNL     1       0.209   9.486  23.000  0.00  0.00    +0.000 A 
ENDBRANCH   1  19
TORSDOF 2
ENDMDL
MODEL 5
REMARK VINA RESULT:      -8.1      0.647      1.062
REMARK  Name = 
REMARK  2 active torsions:
REMARK  status: ('A' for Active; 'I' for Inactive)
REMARK    1  A    between atoms: C_4  and  C_5
REMARK    2  A    between atoms: C_8  and  C_9
REMARK                            x       y       z     vdW  Elec       q    Type
REMARK                         _______ _______ _______ _____ _____    ______ ____
ROOT
ATOM      1  C   UNL     1       6.474   4.340  16.021  0.00  0.00    +0.000 A 
ATOM      2  N   UNL     1       7.418   4.541  16.958  0.00  0.00    +0.000 NA
ATOM      3  O   UNL     1       6.719   4.430  18.162  0.00  0.00    +0.000 OA
ATOM      4  C   UNL     1       5.416   4.175  17.840  0.00  0.00    +0.000 A 
ATOM      5  N   UNL     1       5.219   4.111  16.544  0.00  0.00    +0.000 NA
ENDROOT
BRANCH   4   6
ATOM      6  C   UNL     1       4.471   3.980  18.940  0.00  0.00    +0.000 A 
ATOM      7  C   UNL     1       4.426   2.723  19.574  0.00  0.00    +0.000 A 
ATOM      8  C   UNL     1       3.486   2.452  20.561  0.00  0.00    +0.000 A 
ATOM      9  C   UNL     1       2.572   3.434  20.930  0.00  0.00    +0.000 A 
ATOM     10  C   UNL     1       2.595   4.703  20.337  0.00  0.00    +0.000 A 
ATOM     11  C   UNL     1       1.658   5.675  20.734  0.00  0.00    +0.000 A 
ATOM     12  C   UNL     1       1.660   6.951  20.176  0.00  0.00    +0.000 A 
ATOM     13  C   UNL     1       2.606   7.279  19.218  0.00  0.00    +0.000 A 
ATOM     14  C   UNL     1       3.539   6.322  18.810  0.00  0.00    +0.000 A 
ATOM     15  C   UNL     1       3.557   5.005  19.338  0.00  0.00    +0.000 A 
ENDBRANCH   4   6
BRANCH   1  19
ATOM     16  C   UNL     1       7.102   4.352  11.856  0.00  0.00    +0.000 A 
ATOM     17  C   UNL     1       7.812   5.248  12.643  0.00  0.00    +0.000 A 
ATOM     18  C   UNL     1       7.612   5.246  14.021  0.00  0.00    +0.000 A 
ATOM     19  C   UNL     1       6.701   4.344  14.573  0.00  0.00    +0.000 A 
ATOM     20  N   UNL     1       6.002   3.461  13.815  0.00  0.00    +0.000 NA
ATOM     21  C   UNL     1       6.218   3.487  12.481  0.00  0.00    +0.000 A 
ENDBRANCH   1  19
TORSDOF 2
ENDMDL
MODEL 6
REMARK VINA RESULT:      -8.0      1.184      2.648
REMARK  Name = 
REMARK  2 active torsions:
REMARK  status: ('A' for Active; 'I' for Inactive)
REMARK    1  A    between atoms: C_4  and  C_5
REMARK    2  A    between atoms: C_8  and  C_9
REMARK                            x       y       z     vdW  Elec       q    Type
REMARK                         _______ _______ _______ _____ _____    ______ ____
ROOT
ATOM      1  C   UNL     1       6.000   4.674  15.834  0.00  0.00    +0.000 A 
ATOM      2  N   UNL     1       6.758   4.440  16.919  0.00  0.00    +0.000 NA
ATOM      3  O   UNL     1       5.905   4.722  17.988  0.00  0.00    +0.000 OA
ATOM      4  C   UNL     1       4.709   5.105  17.447  0.00  0.00    +0.000 A 
ATOM      5  N   UNL     1       4.720   5.091  16.135  0.00  0.00    +0.000 NA
ENDROOT
BRANCH   4   6
ATOM      6  C   UNL     1       3.620   5.426  18.370  0.00  0.00    +0.000 A 
ATOM      7  C   UNL     1       3.379   6.778  18.684  0.00  0.00    +0.000 A 
ATOM      8  C   UNL     1       2.419   7.133  19.625  0.00  0.00    +0.000 A 
ATOM      9  C   UNL     1       1.685   6.143  20.270  0.00  0.00    +0.000 A 
ATOM     10  C   UNL     1       1.882   4.788  19.973  0.00  0.00    +0.000 A 
ATOM     11  C   UNL     1       1.122   3.810  20.641  0.00  0.00    +0.000 A 
ATOM     12  C   UNL     1       1.281   2.455  20.361  0.00  0.00    +0.000 A 
ATOM     13  C   UNL     1       2.197   2.056  19.401  0.00  0.00    +0.000 A 
ATOM     14  C   UNL     1       2.963   3.016  18.733  0.00  0.00    +0.000 A 
ATOM     15  C   UNL     1       2.846   4.404  19.004  0.00  0.00    +0.000 A 
ENDBRANCH   4   6
BRANCH   1  19
ATOM     16  C   UNL     1       7.225   4.211  11.831  0.00  0.00    +0.000 A 
ATOM     17  C   UNL     1       7.868   5.152  12.623  0.00  0.00    +0.000 A 
ATOM     18  C   UNL     1       7.470   5.307  13.948  0.00  0.00    +0.000 A 
ATOM     19  C   UNL     1       6.434   4.512  14.443  0.00  0.00    +0.000 A 
ATOM     20  N   UNL     1       5.799   3.587  13.679  0.00  0.00    +0.000 NA
ATOM     21  C   UNL     1       6.207   3.460  12.397  0.00  0.00    +0.000 A 
ENDBRANCH   1  19
TORSDOF 2
ENDMDL
MODEL 7
REMARK VINA RESULT:      -8.0      0.939      1.495
REMARK  Name = 
REMARK  2 active torsions:
REMARK  status: ('A' for Active; 'I' for Inactive)
REMARK    1  A    between atoms: C_4  and  C_5
REMARK    2  A    between atoms: C_8  and  C_9
REMARK                            x       y       z     vdW  Elec       q    Type
REMARK                         _______ _______ _______ _____ _____    ______ ____
ROOT
ATOM      1  C   UNL     1       6.296   4.675  15.932  0.00  0.00    +0.000 A 
ATOM      2  N   UNL     1       7.138   4.439  16.953  0.00  0.00    +0.000 NA
ATOM      3  O   UNL     1       6.354   4.658  18.088  0.00  0.00    +0.000 OA
ATOM      4  C   UNL     1       5.110   5.010  17.646  0.00  0.00    +0.000 A 
ATOM      5  N   UNL     1       5.027   5.034  16.336  0.00  0.00    +0.000 NA
ENDROOT
BRANCH   4   6
ATOM      6  C   UNL     1       4.079   5.263  18.653  0.00  0.00    +0.000 A 
ATOM      7  C   UNL     1       3.812   4.263  19.608  0.00  0.00    +0.000 A 
ATOM      8  C   UNL     1       2.780   4.411  20.529  0.00  0.00    +0.000 A 
ATOM      9  C   UNL     1       1.997   5.560  20.509  0.00  0.00    +0.000 A 
ATOM     10  C   UNL     1       2.242   6.586  19.586  0.00  0.00    +0.000 A 
ATOM     11  C   UNL     1       1.433   7.737  19.593  0.00  0.00    +0.000 A 
ATOM     12  C   UNL     1       1.656   8.783  18.700  0.00  0.00    +0.000 A 
ATOM     13  C   UNL     1       2.699   8.697  17.791  0.00  0.00    +0.000 A 
ATOM     14  C   UNL     1       3.507   7.557  17.769  0.00  0.00    +0.000 A 
ATOM     15  C   UNL     1       3.300   6.462  18.648  0.00  0.00    +0.000 A 
ENDBRANCH   4   6
BRANCH   1  19
ATOM     16  C   UNL     1       7.293   4.373  11.851  0.00  0.00    +0.000 A 
ATOM     17  C   UNL     1       6.298   3.549  12.360  0.00  0.00    +0.000 A 
ATOM     18  C   UNL     1       5.961   3.648  13.707  0.00  0.00    +0.000 A 
ATOM     19  C   UNL     1       6.635   4.570  14.510  0.00  0.00    +0.000 A 
ATOM     20  N   UNL     1       7.608   5.383  14.024  0.00  0.00    +0.000 NA
ATOM     21  C   UNL     1       7.913   5.264  12.713  0.00  0.00    +0.000 A 
ENDBRANCH   1  19
TORSDOF 2
ENDMDL
MODEL 8
REMARK VINA RESULT:      -8.0      4.070      8.003
REMARK  Name = 
REMARK  2 active torsions:
REMARK  status: ('A' for Active; 'I' for Inactive)
REMARK    1  A    between atoms: C_4  and  C_5
REMARK    2  A    between atoms: C_8  and  C_9
REMARK                            x       y       z     vdW  Elec       q    Type
REMARK                         _______ _______ _______ _____ _____    ______ ____
ROOT
ATOM      1  C   UNL     1       1.176   9.077  19.895  0.00  0.00    +0.000 A 
ATOM      2  N   UNL     1       1.360   9.528  18.641  0.00  0.00    +0.000 NA
ATOM      3  O   UNL     1       2.065   8.497  18.017  0.00  0.00    +0.000 OA
ATOM      4  C   UNL     1       2.244   7.518  18.954  0.00  0.00    +0.000 A 
ATOM      5  N   UNL     1       1.718   7.828  20.116  0.00  0.00    +0.000 NA
ENDROOT
BRANCH   4   6
ATOM      6  C   UNL     1       2.934   6.298  18.536  0.00  0.00    +0.000 A 
ATOM      7  C   UNL     1       3.998   6.406  17.620  0.00  0.00    +0.000 A 
ATOM      8  C   UNL     1       4.628   5.272  17.117  0.00  0.00    +0.000 A 
ATOM      9  C   UNL     1       4.202   4.011  17.521  0.00  0.00    +0.000 A 
ATOM     10  C   UNL     1       3.159   3.861  18.445  0.00  0.00    +0.000 A 
ATOM     11  C   UNL     1       2.754   2.572  18.835  0.00  0.00    +0.000 A 
ATOM     12  C   UNL     1       1.730   2.385  19.761  0.00  0.00    +0.000 A 
ATOM     13  C   UNL     1       1.102   3.486  20.319  0.00  0.00    +0.000 A 
ATOM     14  C   UNL     1       1.490   4.773  19.937  0.00  0.00    +0.000 A 
ATOM     15  C   UNL     1       2.514   5.006  18.982  0.00  0.00    +0.000 A 
ENDBRANCH   4   6
BRANCH   1  19
ATOM     16  C   UNL     1      -0.868  11.146  22.941  0.00  0.00    +0.000 A 
ATOM     17  C   UNL     1      -0.515   9.820  23.153  0.00  0.00    +0.000 A 
ATOM     18  C   UNL     1       0.165   9.132  22.151  0.00  0.00    +0.000 A 
ATOM     19  C   UNL     1       0.470   9.794  20.960  0.00  0.00    +0.000 A 
ATOM     20  N   UNL     1       0.132  11.091  20.742  0.00  0.00    +0.000 NA
ATOM     21  C   UNL     1      -0.527  11.732  21.733  0.00  0.00    +0.000 A 
ENDBRANCH   1  19
TORSDOF 2
ENDMDL
MODEL 9
REMARK VINA RESULT:      -7.9      4.324      7.435
REMARK  Name = 
REMARK  2 active torsions:
REMARK  status: ('A' for Active; 'I' for Inactive)
REMARK    1  A    between atoms: C_4  and  C_5
REMARK    2  A    between atoms: C_8  and  C_9
REMARK                            x       y       z     vdW  Elec       q    Type
REMARK                         _______ _______ _______ _____ _____    ______ ____
ROOT
ATOM      1  C   UNL     1       1.305   9.237  18.969  0.00  0.00    +0.000 A 
ATOM      2  N   UNL     1       1.469   8.626  20.155  0.00  0.00    +0.000 NA
ATOM      3  O   UNL     1       2.229   7.496  19.845  0.00  0.00    +0.000 OA
ATOM      4  C   UNL     1       2.451   7.528  18.497  0.00  0.00    +0.000 A 
ATOM      5  N   UNL     1       1.906   8.573  17.920  0.00  0.00    +0.000 NA
ENDROOT
BRANCH   4   6
ATOM      6  C   UNL     1       3.264   6.458  17.919  0.00  0.00    +0.000 A 
ATOM      7  C   UNL     1       4.446   6.804  17.236  0.00  0.00    +0.000 A 
ATOM      8  C   UNL     1       5.207   5.838  16.588  0.00  0.00    +0.000 A 
ATOM      9  C   UNL     1       4.798   4.508  16.610  0.00  0.00    +0.000 A 
ATOM     10  C   UNL     1       3.638   4.120  17.294  0.00  0.00    +0.000 A 
ATOM     11  C   UNL     1       3.253   2.767  17.299  0.00  0.00    +0.000 A 
ATOM     12  C   UNL     1       2.114   2.342  17.980  0.00  0.00    +0.000 A 
ATOM     13  C   UNL     1       1.347   3.264  18.674  0.00  0.00    +0.000 A 
ATOM     14  C   UNL     1       1.715   4.613  18.673  0.00  0.00    +0.000 A 
ATOM     15  C   UNL     1       2.855   5.089  17.975  0.00  0.00    +0.000 A 
ENDBRANCH   4   6
BRANCH   1  19
ATOM     16  C   UNL     1      -0.770  12.846  18.332  0.00  0.00    +0.000 A 
ATOM     17  C   UNL     1      -1.456  11.647  18.196  0.00  0.00    +0.000 A 
ATOM     18  C   UNL     1      -0.776  10.450  18.410  0.00  0.00    +0.000 A 
ATOM     19  C   UNL     1       0.577  10.490  18.752  0.00  0.00    +0.000 A 
ATOM     20  N   UNL     1       1.258  11.657  18.890  0.00  0.00    +0.000 NA
ATOM     21  C   UNL     1       0.572  12.801  18.677  0.00  0.00    +0.000 A 
ENDBRANCH   1  19
TORSDOF 2
ENDMDL
