MODEL 1
REMARK VINA RESULT:      -7.9      0.000      0.000
REMARK  Name = 
REMARK  5 active torsions:
REMARK  status: ('A' for Active; 'I' for Inactive)
REMARK    1  A    between atoms: C_2  and  O_3
REMARK    2  A    between atoms: C_2  and  C_4
REMARK    3  A    between atoms: C_4  and  C_5
REMARK    4  A    between atoms: N_7  and  C_8
REMARK    5  A    between atoms: C_11  and  C_12
REMARK                            x       y       z     vdW  Elec       q    Type
REMARK                         _______ _______ _______ _____ _____    ______ ____
ROOT
ATOM      1  C   UNL     1       3.931   6.251  18.007  0.00  0.00    +0.000 A 
ATOM      2  C   UNL     1       3.483   5.801  19.253  0.00  0.00    +0.000 A 
ATOM      3  C   UNL     1       2.547   6.539  19.996  0.00  0.00    +0.000 A 
ATOM      4  C   UNL     1       2.050   7.748  19.499  0.00  0.00    +0.000 A 
ATOM      5  C   UNL     1       2.510   8.195  18.252  0.00  0.00    +0.000 A 
ATOM      6  C   UNL     1       3.444   7.463  17.517  0.00  0.00    +0.000 A 
ENDROOT
BRANCH   4   7
ATOM      7  C   UNL     1       1.150   8.621  20.252  0.00  0.00    +0.000 A 
ATOM      8  N   UNL     1       0.539   9.664  19.722  0.00  0.00    +0.000 NA
ATOM      9  C   UNL     1      -0.139  10.272  20.741  0.00  0.00    +0.000 A 
ATOM     10  C   UNL     1      -0.902  11.445  20.706  0.00  0.00    +0.000 A 
ATOM     11  C   UNL     1      -1.486  11.879  21.895  0.00  0.00    +0.000 A 
ATOM     12 CL   UNL     1      -2.404  13.336  21.894  0.00  0.00    +0.000 Cl
ATOM     13  C   UNL     1      -1.329  11.160  23.083  0.00  0.00    +0.000 A 
ATOM     14  C   UNL     1      -0.581   9.973  23.126  0.00  0.00    +0.000 A 
ATOM     15  C   UNL     1       0.008   9.566  21.927  0.00  0.00    +0.000 A 
ATOM     16  N   UNL     1       0.810   8.499  21.582  0.00  0.00    +0.000 N 
ATOM     17  H   UNL     1       1.101   7.754  22.197  0.00  0.00    +0.000 HD
ENDBRANCH   4   7
BRANCH   1  20
ATOM     18  C   UNL     1       4.699   4.339  16.601  0.00  0.00    +0.000 C 
ATOM     19  O   UNL     1       3.690   3.639  16.684  0.00  0.00    +0.000 OA
ATOM     20  N   UNL     1       4.867   5.566  17.205  0.00  0.00    +0.000 N 
ATOM     21  H   UNL     1       5.706   6.095  16.956  0.00  0.00    +0.000 HD
BRANCH  18  22
ATOM     22  C   UNL     1       5.874   3.806  15.811  0.00  0.00    +0.000 C 
BRANCH  22  24
ATOM     23  O   UNL     1       7.510   5.453  15.168  0.00  0.00    +0.000 OA
ATOM     24  C   UNL     1       7.169   4.549  15.917  0.00  0.00    +0.000 C 
BRANCH  24  25
ATOM     25  O   UNL     1       7.927   4.170  16.972  0.00  0.00    +0.000 OA
ATOM     26  H   UNL     1       7.472   4.178  17.837  0.00  0.00    +0.000 HD
ENDBRANCH  24  25
ENDBRANCH  22  24
ENDBRANCH  18  22
ENDBRANCH   1  20
TORSDOF 5
ENDMDL
MODEL 2
REMARK VINA RESULT:      -7.6      1.088      1.309
REMARK  Name = 
REMARK  5 active torsions:
REMARK  status: ('A' for Active; 'I' for Inactive)
REMARK    1  A    between atoms: C_2  and  O_3
REMARK    2  A    between atoms: C_2  and  C_4
REMARK    3  A    between atoms: C_4  and  C_5
REMARK    4  A    between atoms: N_7  and  C_8
REMARK    5  A    between atoms: C_11  and  C_12
REMARK                            x       y       z     vdW  Elec       q    Type
REMARK                         _______ _______ _______ _____ _____    ______ ____
ROOT
ATOM      1  C   UNL     1       4.178   5.964  17.691  0.00  0.00    +0.000 A 
ATOM      2  C   UNL     1       3.594   5.377  18.818  0.00  0.00    +0.000 A 
ATOM      3  C   UNL     1       2.682   6.088  19.615  0.00  0.00    +0.000 A 
ATOM      4  C   UNL     1       2.346   7.407  19.292  0.00  0.00    +0.000 A 
ATOM      5  C   UNL     1       2.941   7.989  18.165  0.00  0.00    +0.000 A 
ATOM      6  C   UNL     1       3.852   7.284  17.377  0.00  0.00    +0.000 A 
ENDROOT
BRANCH   4   7
ATOM      7  C   UNL     1       1.481   8.246  20.122  0.00  0.00    +0.000 A 
ATOM      8  N   UNL     1       0.810   9.281  19.655  0.00  0.00    +0.000 NA
ATOM      9  C   UNL     1       0.191   9.856  20.730  0.00  0.00    +0.000 A 
ATOM     10  C   UNL     1      -0.599  11.011  20.770  0.00  0.00    +0.000 A 
ATOM     11  C   UNL     1      -1.108  11.411  22.004  0.00  0.00    +0.000 A 
ATOM     12 CL   UNL     1      -2.057  12.845  22.094  0.00  0.00    +0.000 Cl
ATOM     13  C   UNL     1      -0.851  10.676  23.165  0.00  0.00    +0.000 A 
ATOM     14  C   UNL     1      -0.075   9.507  23.134  0.00  0.00    +0.000 A 
ATOM     15  C   UNL     1       0.438   9.134  21.889  0.00  0.00    +0.000 A 
ATOM     16  N   UNL     1       1.238   8.093  21.470  0.00  0.00    +0.000 N 
ATOM     17  H   UNL     1       1.589   7.345  22.050  0.00  0.00    +0.000 HD
ENDBRANCH   4   7
BRANCH   1  20
ATOM     18  C   UNL     1       6.294   4.732  17.212  0.00  0.00    +0.000 C 
ATOM     19  O   UNL     1       6.749   4.705  18.356  0.00  0.00    +0.000 OA
ATOM     20  N   UNL     1       5.101   5.314  16.846  0.00  0.00    +0.000 N 
ATOM     21  H   UNL     1       4.786   5.160  15.884  0.00  0.00    +0.000 HD
BRANCH  18  22
ATOM     22  C   UNL     1       7.120   4.120  16.102  0.00  0.00    +0.000 C 
BRANCH  22  24
ATOM     23  O   UNL     1       5.886   4.308  14.042  0.00  0.00    +0.000 OA
ATOM     24  C   UNL     1       6.867   4.605  14.709  0.00  0.00    +0.000 C 
BRANCH  24  25
ATOM     25  O   UNL     1       7.804   5.467  14.254  0.00  0.00    +0.000 OA
ATOM     26  H   UNL     1       7.689   5.761  13.329  0.00  0.00    +0.000 HD
ENDBRANCH  24  25
ENDBRANCH  22  24
ENDBRANCH  18  22
ENDBRANCH   1  20
TORSDOF 5
ENDMDL
MODEL 3
REMARK VINA RESULT:      -7.6      1.157      1.495
REMARK  Name = 
REMARK  5 active torsions:
REMARK  status: ('A' for Active; 'I' for Inactive)
REMARK    1  A    between atoms: C_2  and  O_3
REMARK    2  A    between atoms: C_2  and  C_4
REMARK    3  A    between atoms: C_4  and  C_5
REMARK    4  A    between atoms: N_7  and  C_8
REMARK    5  A    between atoms: C_11  and  C_12
REMARK                            x       y       z     vdW  Elec       q    Type
REMARK                         _______ _______ _______ _____ _____    ______ ____
ROOT
ATOM      1  C   UNL     1       4.163   6.088  17.573  0.00  0.00    +0.000 A 
ATOM      2  C   UNL     1       3.766   5.553  18.802  0.00  0.00    +0.000 A 
ATOM      3  C   UNL     1       2.866   6.240  19.634  0.00  0.00    +0.000 A 
ATOM      4  C   UNL     1       2.354   7.481  19.243  0.00  0.00    +0.000 A 
ATOM      5  C   UNL     1       2.762   8.012  18.011  0.00  0.00    +0.000 A 
ATOM      6  C   UNL     1       3.660   7.331  17.188  0.00  0.00    +0.000 A 
ENDROOT
BRANCH   4   7
ATOM      7  C   UNL     1       1.491   8.302  20.092  0.00  0.00    +0.000 A 
ATOM      8  N   UNL     1       0.823   9.351  19.650  0.00  0.00    +0.000 NA
ATOM      9  C   UNL     1       0.206   9.902  20.737  0.00  0.00    +0.000 A 
ATOM     10  C   UNL     1      -0.582  11.057  20.804  0.00  0.00    +0.000 A 
ATOM     11  C   UNL     1      -1.090  11.429  22.048  0.00  0.00    +0.000 A 
ATOM     12 CL   UNL     1      -2.035  12.863  22.171  0.00  0.00    +0.000 Cl
ATOM     13  C   UNL     1      -0.836  10.666  23.191  0.00  0.00    +0.000 A 
ATOM     14  C   UNL     1      -0.064   9.495  23.132  0.00  0.00    +0.000 A 
ATOM     15  C   UNL     1       0.449   9.151  21.879  0.00  0.00    +0.000 A 
ATOM     16  N   UNL     1       1.247   8.118  21.436  0.00  0.00    +0.000 N 
ATOM     17  H   UNL     1       1.595   7.355  21.998  0.00  0.00    +0.000 HD
ENDBRANCH   4   7
BRANCH   1  20
ATOM     18  C   UNL     1       6.334   5.869  16.364  0.00  0.00    +0.000 C 
ATOM     19  O   UNL     1       6.886   6.879  16.803  0.00  0.00    +0.000 OA
ATOM     20  N   UNL     1       5.060   5.457  16.686  0.00  0.00    +0.000 N 
ATOM     21  H   UNL     1       4.769   4.538  16.343  0.00  0.00    +0.000 HD
BRANCH  18  22
ATOM     22  C   UNL     1       7.086   5.027  15.357  0.00  0.00    +0.000 C 
BRANCH  22  24
ATOM     23  O   UNL     1       6.132   3.792  13.522  0.00  0.00    +0.000 OA
ATOM     24  C   UNL     1       6.346   3.891  14.721  0.00  0.00    +0.000 C 
BRANCH  24  25
ATOM     25  O   UNL     1       5.974   2.928  15.596  0.00  0.00    +0.000 OA
ATOM     26  H   UNL     1       6.263   3.069  16.519  0.00  0.00    +0.000 HD
ENDBRANCH  24  25
ENDBRANCH  22  24
ENDBRANCH  18  22
ENDBRANCH   1  20
TORSDOF 5
ENDMDL
MODEL 4
REMARK VINA RESULT:      -7.6      1.150      1.664
REMARK  Name = 
REMARK  5 active torsions:
REMARK  status: ('A' for Active; 'I' for Inactive)
REMARK    1  A    between atoms: C_2  and  O_3
REMARK    2  A    between atoms: C_2  and  C_4
REMARK    3  A    between atoms: C_4  and  C_5
REMARK    4  A    between atoms: N_7  and  C_8
REMARK    5  A    between atoms: C_11  and  C_12
REMARK                            x       y       z     vdW  Elec       q    Type
REMARK                         _______ _______ _______ _____ _____    ______ ____
ROOT
ATOM      1  C   UNL     1       3.794   6.078  17.690  0.00  0.00    +0.000 A 
ATOM      2  C   UNL     1       3.434   7.349  17.231  0.00  0.00    +0.000 A 
ATOM      3  C   UNL     1       2.647   8.207  18.017  0.00  0.00    +0.000 A 
ATOM      4  C   UNL     1       2.204   7.797  19.278  0.00  0.00    +0.000 A 
ATOM      5  C   UNL     1       2.565   6.519  19.728  0.00  0.00    +0.000 A 
ATOM      6  C   UNL     1       3.342   5.665  18.944  0.00  0.00    +0.000 A 
ENDROOT
BRANCH   4   7
ATOM      7  C   UNL     1       1.305   8.590  20.116  0.00  0.00    +0.000 A 
ATOM      8  N   UNL     1       0.702   9.687  19.697  0.00  0.00    +0.000 NA
ATOM      9  C   UNL     1       0.021  10.187  20.771  0.00  0.00    +0.000 A 
ATOM     10  C   UNL     1      -0.735  11.362  20.858  0.00  0.00    +0.000 A 
ATOM     11  C   UNL     1      -1.323  11.670  22.084  0.00  0.00    +0.000 A 
ATOM     12 CL   UNL     1      -2.234  13.124  22.234  0.00  0.00    +0.000 Cl
ATOM     13  C   UNL     1      -1.177  10.827  23.189  0.00  0.00    +0.000 A 
ATOM     14  C   UNL     1      -0.436   9.638  23.108  0.00  0.00    +0.000 A 
ATOM     15  C   UNL     1       0.158   9.357  21.876  0.00  0.00    +0.000 A 
ATOM     16  N   UNL     1       0.957   8.329  21.423  0.00  0.00    +0.000 N 
ATOM     17  H   UNL     1       1.240   7.520  21.957  0.00  0.00    +0.000 HD
ENDBRANCH   4   7
BRANCH   1  20
ATOM     18  C   UNL     1       5.792   5.411  16.354  0.00  0.00    +0.000 C 
ATOM     19  O   UNL     1       6.376   6.495  16.351  0.00  0.00    +0.000 OA
ATOM     20  N   UNL     1       4.580   5.163  16.959  0.00  0.00    +0.000 N 
ATOM     21  H   UNL     1       4.266   4.190  16.988  0.00  0.00    +0.000 HD
BRANCH  18  22
ATOM     22  C   UNL     1       6.422   4.260  15.602  0.00  0.00    +0.000 C 
BRANCH  22  24
ATOM     23  O   UNL     1       6.429   3.945  13.213  0.00  0.00    +0.000 OA
ATOM     24  C   UNL     1       6.872   4.520  14.197  0.00  0.00    +0.000 C 
BRANCH  24  25
ATOM     25  O   UNL     1       7.790   5.507  14.095  0.00  0.00    +0.000 OA
ATOM     26  H   UNL     1       7.775   6.168  14.816  0.00  0.00    +0.000 HD
ENDBRANCH  24  25
ENDBRANCH  22  24
ENDBRANCH  18  22
ENDBRANCH   1  20
TORSDOF 5
ENDMDL
MODEL 5
REMARK VINA RESULT:      -7.5      6.680      8.088
REMARK  Name = 
REMARK  5 active torsions:
REMARK  status: ('A' for Active; 'I' for Inactive)
REMARK    1  A    between atoms: C_2  and  O_3
REMARK    2  A    between atoms: C_2  and  C_4
REMARK    3  A    between atoms: C_4  and  C_5
REMARK    4  A    between atoms: N_7  and  C_8
REMARK    5  A    between atoms: C_11  and  C_12
REMARK                            x       y       z     vdW  Elec       q    Type
REMARK                         _______ _______ _______ _____ _____    ______ ____
ROOT
ATOM      1  C   UNL     1       6.514   5.635  17.843  0.00  0.00    +0.000 A 
ATOM      2  C   UNL     1       6.184   6.765  17.089  0.00  0.00    +0.000 A 
ATOM      3  C   UNL     1       6.886   7.971  17.246  0.00  0.00    +0.000 A 
ATOM      4  C   UNL     1       7.933   8.061  18.169  0.00  0.00    +0.000 A 
ATOM      5  C   UNL     1       8.253   6.924  18.925  0.00  0.00    +0.000 A 
ATOM      6  C   UNL     1       7.551   5.728  18.773  0.00  0.00    +0.000 A 
ENDROOT
BRANCH   4   7
ATOM      7  C   UNL     1       8.648   9.303  18.460  0.00  0.00    +0.000 A 
ATOM      8  N   UNL     1       8.780  10.286  17.590  0.00  0.00    +0.000 NA
ATOM      9  C   UNL     1       9.571  11.226  18.187  0.00  0.00    +0.000 A 
ATOM     10  C   UNL     1      10.044  12.434  17.660  0.00  0.00    +0.000 A 
ATOM     11  C   UNL     1      10.862  13.222  18.468  0.00  0.00    +0.000 A 
ATOM     12 CL   UNL     1      11.489  14.698  17.839  0.00  0.00    +0.000 Cl
ATOM     13  C   UNL     1      11.188  12.830  19.770  0.00  0.00    +0.000 A 
ATOM     14  C   UNL     1      10.704  11.630  20.314  0.00  0.00    +0.000 A 
ATOM     15  C   UNL     1       9.901  10.848  19.481  0.00  0.00    +0.000 A 
ATOM     16  N   UNL     1       9.274   9.631  19.643  0.00  0.00    +0.000 N 
ATOM     17  H   UNL     1       9.273   9.073  20.484  0.00  0.00    +0.000 HD
ENDBRANCH   4   7
BRANCH   1  20
ATOM     18  C   UNL     1       4.697   4.013  18.382  0.00  0.00    +0.000 C 
ATOM     19  O   UNL     1       4.057   4.715  19.167  0.00  0.00    +0.000 OA
ATOM     20  N   UNL     1       5.856   4.392  17.741  0.00  0.00    +0.000 N 
ATOM     21  H   UNL     1       6.218   3.757  17.025  0.00  0.00    +0.000 HD
BRANCH  18  22
ATOM     22  C   UNL     1       4.208   2.605  18.124  0.00  0.00    +0.000 C 
BRANCH  22  24
ATOM     23  O   UNL     1       2.159   3.092  16.953  0.00  0.00    +0.000 OA
ATOM     24  C   UNL     1       2.759   2.430  17.789  0.00  0.00    +0.000 C 
BRANCH  24  25
ATOM     25  O   UNL     1       2.164   1.418  18.460  0.00  0.00    +0.000 OA
ATOM     26  H   UNL     1       1.260   1.194  18.162  0.00  0.00    +0.000 HD
ENDBRANCH  24  25
ENDBRANCH  22  24
ENDBRANCH  18  22
ENDBRANCH   1  20
TORSDOF 5
ENDMDL
MODEL 6
REMARK VINA RESULT:      -7.4      1.292      1.388
REMARK  Name = 
REMARK  5 active torsions:
REMARK  status: ('A' for Active; 'I' for Inactive)
REMARK    1  A    between atoms: C_2  and  O_3
REMARK    2  A    between atoms: C_2  and  C_4
REMARK    3  A    between atoms: C_4  and  C_5
REMARK    4  A    between atoms: N_7  and  C_8
REMARK    5  A    between atoms: C_11  and  C_12
REMARK                            x       y       z     vdW  Elec       q    Type
REMARK                         _______ _______ _______ _____ _____    ______ ____
ROOT
ATOM      1  C   UNL     1       3.088   6.517  18.340  0.00  0.00    +0.000 A 
ATOM      2  C   UNL     1       2.616   6.233  19.625  0.00  0.00    +0.000 A 
ATOM      3  C   UNL     1       1.851   7.170  20.339  0.00  0.00    +0.000 A 
ATOM      4  C   UNL     1       1.554   8.413  19.772  0.00  0.00    +0.000 A 
ATOM      5  C   UNL     1       2.037   8.691  18.485  0.00  0.00    +0.000 A 
ATOM      6  C   UNL     1       2.801   7.762  17.779  0.00  0.00    +0.000 A 
ENDROOT
BRANCH   4   7
ATOM      7  C   UNL     1       0.848   9.477  20.485  0.00  0.00    +0.000 A 
ATOM      8  N   UNL     1       0.998  10.759  20.209  0.00  0.00    +0.000 NA
ATOM      9  C   UNL     1       0.251  11.442  21.128  0.00  0.00    +0.000 A 
ATOM     10  C   UNL     1       0.116  12.825  21.292  0.00  0.00    +0.000 A 
ATOM     11  C   UNL     1      -0.697  13.283  22.328  0.00  0.00    +0.000 A 
ATOM     12 CL   UNL     1      -0.859  14.979  22.578  0.00  0.00    +0.000 Cl
ATOM     13  C   UNL     1      -1.371  12.391  23.167  0.00  0.00    +0.000 A 
ATOM     14  C   UNL     1      -1.257  11.002  23.000  0.00  0.00    +0.000 A 
ATOM     15  C   UNL     1      -0.424  10.566  21.968  0.00  0.00    +0.000 A 
ATOM     16  N   UNL     1      -0.051   9.318  21.517  0.00  0.00    +0.000 N 
ATOM     17  H   UNL     1      -0.379   8.435  21.880  0.00  0.00    +0.000 HD
ENDBRANCH   4   7
BRANCH   1  20
ATOM     18  C   UNL     1       5.138   5.188  17.830  0.00  0.00    +0.000 C 
ATOM     19  O   UNL     1       5.815   5.524  18.802  0.00  0.00    +0.000 OA
ATOM     20  N   UNL     1       3.860   5.627  17.563  0.00  0.00    +0.000 N 
ATOM     21  H   UNL     1       3.367   5.177  16.788  0.00  0.00    +0.000 HD
BRANCH  18  22
ATOM     22  C   UNL     1       5.759   4.251  16.818  0.00  0.00    +0.000 C 
BRANCH  22  24
ATOM     23  O   UNL     1       7.513   5.059  15.377  0.00  0.00    +0.000 OA
ATOM     24  C   UNL     1       7.178   4.513  16.419  0.00  0.00    +0.000 C 
BRANCH  24  25
ATOM     25  O   UNL     1       8.082   4.138  17.352  0.00  0.00    +0.000 OA
ATOM     26  H   UNL     1       8.579   4.870  17.769  0.00  0.00    +0.000 HD
ENDBRANCH  24  25
ENDBRANCH  22  24
ENDBRANCH  18  22
ENDBRANCH   1  20
TORSDOF 5
ENDMDL
MODEL 7
REMARK VINA RESULT:      -7.3      6.701      8.198
REMARK  Name = 
REMARK  5 active torsions:
REMARK  status: ('A' for Active; 'I' for Inactive)
REMARK    1  A    between atoms: C_2  and  O_3
REMARK    2  A    between atoms: C_2  and  C_4
REMARK    3  A    between atoms: C_4  and  C_5
REMARK    4  A    between atoms: N_7  and  C_8
REMARK    5  A    between atoms: C_11  and  C_12
REMARK                            x       y       z     vdW  Elec       q    Type
REMARK                         _______ _______ _______ _____ _____    ______ ____
ROOT
ATOM      1  C   UNL     1       6.673   5.897  17.679  0.00  0.00    +0.000 A 
ATOM      2  C   UNL     1       7.650   5.886  18.679  0.00  0.00    +0.000 A 
ATOM      3  C   UNL     1       8.349   7.056  19.022  0.00  0.00    +0.000 A 
ATOM      4  C   UNL     1       8.078   8.257  18.359  0.00  0.00    +0.000 A 
ATOM      5  C   UNL     1       7.100   8.257  17.354  0.00  0.00    +0.000 A 
ATOM      6  C   UNL     1       6.411   7.093  17.010  0.00  0.00    +0.000 A 
ENDROOT
BRANCH   4   7
ATOM      7  C   UNL     1       8.826   9.492  18.589  0.00  0.00    +0.000 A 
ATOM      8  N   UNL     1       9.016  10.409  17.659  0.00  0.00    +0.000 NA
ATOM      9  C   UNL     1       9.820  11.364  18.217  0.00  0.00    +0.000 A 
ATOM     10  C   UNL     1      10.349  12.517  17.626  0.00  0.00    +0.000 A 
ATOM     11  C   UNL     1      11.168  13.332  18.405  0.00  0.00    +0.000 A 
ATOM     12 CL   UNL     1      11.862  14.742  17.699  0.00  0.00    +0.000 Cl
ATOM     13  C   UNL     1      11.442  13.019  19.739  0.00  0.00    +0.000 A 
ATOM     14  C   UNL     1      10.902  11.875  20.347  0.00  0.00    +0.000 A 
ATOM     15  C   UNL     1      10.098  11.064  19.544  0.00  0.00    +0.000 A 
ATOM     16  N   UNL     1       9.427   9.881  19.766  0.00  0.00    +0.000 N 
ATOM     17  H   UNL     1       9.382   9.381  20.642  0.00  0.00    +0.000 HD
ENDBRANCH   4   7
BRANCH   1  20
ATOM     18  C   UNL     1       4.640   4.451  17.644  0.00  0.00    +0.000 C 
ATOM     19  O   UNL     1       3.930   5.121  18.394  0.00  0.00    +0.000 OA
ATOM     20  N   UNL     1       5.931   4.765  17.282  0.00  0.00    +0.000 N 
ATOM     21  H   UNL     1       6.364   4.186  16.558  0.00  0.00    +0.000 HD
BRANCH  18  22
ATOM     22  C   UNL     1       4.079   3.156  17.100  0.00  0.00    +0.000 C 
BRANCH  22  24
ATOM     23  O   UNL     1       2.992   1.641  18.627  0.00  0.00    +0.000 OA
ATOM     24  C   UNL     1       2.911   2.556  17.820  0.00  0.00    +0.000 C 
BRANCH  24  25
ATOM     25  O   UNL     1       1.734   3.162  17.542  0.00  0.00    +0.000 OA
ATOM     26  H   UNL     1       0.965   2.831  18.048  0.00  0.00    +0.000 HD
ENDBRANCH  24  25
ENDBRANCH  22  24
ENDBRANCH  18  22
ENDBRANCH   1  20
TORSDOF 5
ENDMDL
MODEL 8
REMARK VINA RESULT:      -7.2      1.239      1.699
REMARK  Name = 
REMARK  5 active torsions:
REMARK  status: ('A' for Active; 'I' for Inactive)
REMARK    1  A    between atoms: C_2  and  O_3
REMARK    2  A    between atoms: C_2  and  C_4
REMARK    3  A    between atoms: C_4  and  C_5
REMARK    4  A    between atoms: N_7  and  C_8
REMARK    5  A    between atoms: C_11  and  C_12
REMARK                            x       y       z     vdW  Elec       q    Type
REMARK                         _______ _______ _______ _____ _____    ______ ____
ROOT
ATOM      1  C   UNL     1       3.037   6.791  18.235  0.00  0.00    +0.000 A 
ATOM      2  C   UNL     1       2.671   7.983  17.603  0.00  0.00    +0.000 A 
ATOM      3  C   UNL     1       1.881   8.940  18.262  0.00  0.00    +0.000 A 
ATOM      4  C   UNL     1       1.442   8.709  19.569  0.00  0.00    +0.000 A 
ATOM      5  C   UNL     1       1.809   7.508  20.193  0.00  0.00    +0.000 A 
ATOM      6  C   UNL     1       2.588   6.556  19.535  0.00  0.00    +0.000 A 
ENDROOT
BRANCH   4   7
ATOM      7  C   UNL     1       0.540   9.608  20.288  0.00  0.00    +0.000 A 
ATOM      8  N   UNL     1      -0.087  10.618  19.716  0.00  0.00    +0.000 NA
ATOM      9  C   UNL     1      -0.762  11.268  20.711  0.00  0.00    +0.000 A 
ATOM     10  C   UNL     1      -1.538  12.430  20.627  0.00  0.00    +0.000 A 
ATOM     11  C   UNL     1      -2.115  12.914  21.800  0.00  0.00    +0.000 A 
ATOM     12 CL   UNL     1      -3.048  14.361  21.739  0.00  0.00    +0.000 Cl
ATOM     13  C   UNL     1      -1.940  12.254  23.019  0.00  0.00    +0.000 A 
ATOM     14  C   UNL     1      -1.179  11.077  23.111  0.00  0.00    +0.000 A 
ATOM     15  C   UNL     1      -0.597  10.620  21.927  0.00  0.00    +0.000 A 
ATOM     16  N   UNL     1       0.213   9.546  21.625  0.00  0.00    +0.000 N 
ATOM     17  H   UNL     1       0.517   8.833  22.273  0.00  0.00    +0.000 HD
ENDBRANCH   4   7
BRANCH   1  20
ATOM     18  C   UNL     1       5.165   5.860  17.325  0.00  0.00    +0.000 C 
ATOM     19  O   UNL     1       5.885   6.841  17.514  0.00  0.00    +0.000 OA
ATOM     20  N   UNL     1       3.826   5.786  17.638  0.00  0.00    +0.000 N 
ATOM     21  H   UNL     1       3.376   4.872  17.539  0.00  0.00    +0.000 HD
BRANCH  18  22
ATOM     22  C   UNL     1       5.775   4.646  16.660  0.00  0.00    +0.000 C 
BRANCH  22  24
ATOM     23  O   UNL     1       7.604   5.323  15.246  0.00  0.00    +0.000 OA
ATOM     24  C   UNL     1       7.211   4.738  16.245  0.00  0.00    +0.000 C 
BRANCH  24  25
ATOM     25  O   UNL     1       8.066   4.156  17.116  0.00  0.00    +0.000 OA
ATOM     26  H   UNL     1       7.965   3.188  17.217  0.00  0.00    +0.000 HD
ENDBRANCH  24  25
ENDBRANCH  22  24
ENDBRANCH  18  22
ENDBRANCH   1  20
TORSDOF 5
ENDMDL
MODEL 9
REMARK VINA RESULT:      -7.2      0.845      1.665
REMARK  Name = 
REMARK  5 active torsions:
REMARK  status: ('A' for Active; 'I' for Inactive)
REMARK    1  A    between atoms: C_2  and  O_3
REMARK    2  A    between atoms: C_2  and  C_4
REMARK    3  A    between atoms: C_4  and  C_5
REMARK    4  A    between atoms: N_7  and  C_8
REMARK    5  A    between atoms: C_11  and  C_12
REMARK                            x       y       z     vdW  Elec       q    Type
REMARK                         _______ _______ _______ _____ _____    ______ ____
ROOT
ATOM      1  C   UNL     1       3.752   6.684  17.990  0.00  0.00    +0.000 A 
ATOM      2  C   UNL     1       3.182   6.397  19.234  0.00  0.00    +0.000 A 
ATOM      3  C   UNL     1       2.222   7.250  19.804  0.00  0.00    +0.000 A 
ATOM      4  C   UNL     1       1.823   8.409  19.133  0.00  0.00    +0.000 A 
ATOM      5  C   UNL     1       2.405   8.692  17.889  0.00  0.00    +0.000 A 
ATOM      6  C   UNL     1       3.363   7.847  17.325  0.00  0.00    +0.000 A 
ENDROOT
BRANCH   4   7
ATOM      7  C   UNL     1       0.904   9.395  19.700  0.00  0.00    +0.000 A 
ATOM      8  N   UNL     1       0.705   9.541  20.996  0.00  0.00    +0.000 NA
ATOM      9  C   UNL     1      -0.271  10.488  21.133  0.00  0.00    +0.000 A 
ATOM     10  C   UNL     1      -0.872  10.962  22.305  0.00  0.00    +0.000 A 
ATOM     11  C   UNL     1      -1.870  11.927  22.182  0.00  0.00    +0.000 A 
ATOM     12 CL   UNL     1      -2.653  12.508  23.601  0.00  0.00    +0.000 Cl
ATOM     13  C   UNL     1      -2.250  12.419  20.930  0.00  0.00    +0.000 A 
ATOM     14  C   UNL     1      -1.641  11.964  19.750  0.00  0.00    +0.000 A 
ATOM     15  C   UNL     1      -0.656  10.985  19.896  0.00  0.00    +0.000 A 
ATOM     16  N   UNL     1       0.130  10.294  18.999  0.00  0.00    +0.000 N 
ATOM     17  H   UNL     1       0.140  10.423  17.998  0.00  0.00    +0.000 HD
ENDBRANCH   4   7
BRANCH   1  20
ATOM     18  C   UNL     1       4.544   4.601  16.867  0.00  0.00    +0.000 C 
ATOM     19  O   UNL     1       3.496   3.957  16.925  0.00  0.00    +0.000 OA
ATOM     20  N   UNL     1       4.720   5.877  17.355  0.00  0.00    +0.000 N 
ATOM     21  H   UNL     1       5.605   6.340  17.135  0.00  0.00    +0.000 HD
BRANCH  18  22
ATOM     22  C   UNL     1       5.756   3.937  16.252  0.00  0.00    +0.000 C 
BRANCH  22  24
ATOM     23  O   UNL     1       7.968   4.318  17.127  0.00  0.00    +0.000 OA
ATOM     24  C   UNL     1       7.066   4.651  16.371  0.00  0.00    +0.000 C 
BRANCH  24  25
ATOM     25  O   UNL     1       7.200   5.687  15.512  0.00  0.00    +0.000 OA
ATOM     26  H   UNL     1       6.815   5.546  14.624  0.00  0.00    +0.000 HD
ENDBRANCH  24  25
ENDBRANCH  22  24
ENDBRANCH  18  22
ENDBRANCH   1  20
TORSDOF 5
ENDMDL
