MODEL 1
REMARK VINA RESULT:      -9.5      0.000      0.000
REMARK  Name = 
REMARK  10 active torsions:
REMARK  status: ('A' for Active; 'I' for Inactive)
REMARK    1  A    between atoms: C_4  and  C_5
REMARK    2  A    between atoms: C_5  and  C_6
REMARK    3  A    between atoms: C_6  and  N_7
REMARK    4  A    between atoms: N_7  and  C_8
REMARK    5  A    between atoms: C_8  and  C_9
REMARK    6  A    between atoms: C_13  and  C_14
REMARK    7  A    between atoms: C_19  and  C_20
REMARK    8  A    between atoms: C_20  and  N_21
REMARK    9  A    between atoms: N_21  and  C_22
REMARK   10  A    between atoms: C_22  and  C_23
REMARK                            x       y       z     vdW  Elec       q    Type
REMARK                         _______ _______ _______ _____ _____    ______ ____
ROOT
ATOM      1  C   UNL     1       3.509   3.790  17.950  0.00  0.00    +0.000 A 
ATOM      2  C   UNL     1       3.467   2.398  18.202  0.00  0.00    +0.000 A 
ATOM      3  C   UNL     1       2.355   1.763  18.758  0.00  0.00    +0.000 A 
ATOM      4  C   UNL     1       1.225   2.502  19.048  0.00  0.00    +0.000 A 
ATOM      5  C   UNL     1       1.219   3.874  18.801  0.00  0.00    +0.000 A 
ATOM      6  C   UNL     1       2.358   4.553  18.300  0.00  0.00    +0.000 A 
ENDROOT
BRANCH   1  11
ATOM      7  C   UNL     1       6.795   5.710  17.376  0.00  0.00    +0.000 A 
ATOM      8  C   UNL     1       6.975   5.523  16.002  0.00  0.00    +0.000 A 
ATOM      9  C   UNL     1       6.059   4.769  15.274  0.00  0.00    +0.000 A 
ATOM     10  C   UNL     1       4.971   4.174  15.921  0.00  0.00    +0.000 A 
ATOM     11  C   UNL     1       4.743   4.335  17.303  0.00  0.00    +0.000 A 
ATOM     12  C   UNL     1       5.676   5.124  18.002  0.00  0.00    +0.000 A 
BRANCH   7  13
ATOM     13  C   UNL     1       7.725   6.613  18.160  0.00  0.00    +0.000 C 
BRANCH  13  14
ATOM     14  N   UNL     1       7.651   8.016  17.739  0.00  0.00    +0.000 NA
ATOM     15  H   UNL     1       7.911   8.080  16.755  0.00  0.00    +0.000 HD
BRANCH  14  16
ATOM     16  C   UNL     1       8.593   8.823  18.536  0.00  0.00    +0.000 C 
BRANCH  16  17
ATOM     17  C   UNL     1       8.641  10.272  18.040  0.00  0.00    +0.000 C 
BRANCH  17  21
ATOM     18  C   UNL     1      11.837  12.389  19.905  0.00  0.00    +0.000 A 
ATOM     19  C   UNL     1      11.883  12.184  18.533  0.00  0.00    +0.000 A 
ATOM     20  C   UNL     1      10.837  11.509  17.906  0.00  0.00    +0.000 A 
ATOM     21  C   UNL     1       9.767  11.054  18.675  0.00  0.00    +0.000 A 
ATOM     22  N   UNL     1       9.711  11.248  20.018  0.00  0.00    +0.000 NA
ATOM     23  C   UNL     1      10.739  11.908  20.597  0.00  0.00    +0.000 A 
ENDBRANCH  17  21
ENDBRANCH  16  17
ENDBRANCH  14  16
ENDBRANCH  13  14
ENDBRANCH   7  13
ENDBRANCH   1  11
BRANCH   6  24
ATOM     24  C   UNL     1       2.286   6.059  18.094  0.00  0.00    +0.000 C 
BRANCH  24  25
ATOM     25  N   UNL     1       2.719   6.911  19.196  0.00  0.00    +0.000 NA
ATOM     26  H   UNL     1       2.862   7.872  18.867  0.00  0.00    +0.000 HD
BRANCH  25  27
ATOM     27  C   UNL     1       1.841   6.890  20.359  0.00  0.00    +0.000 C 
BRANCH  27  28
ATOM     28  C   UNL     1       1.425   8.315  20.658  0.00  0.00    +0.000 A 
ATOM     29  C   UNL     1       1.028   9.180  19.611  0.00  0.00    +0.000 A 
ATOM     30  C   UNL     1       0.347  10.367  19.879  0.00  0.00    +0.000 A 
ATOM     31  C   UNL     1       0.025  10.623  21.193  0.00  0.00    +0.000 A 
ATOM     32  C   UNL     1       0.467   9.817  22.223  0.00  0.00    +0.000 A 
ATOM     33  C   UNL     1       1.208   8.684  21.998  0.00  0.00    +0.000 A 
ATOM     34  O   UNL     1      -0.048  10.196  23.428  0.00  0.00    +0.000 OA
ATOM     35  C   UNL     1      -1.104  11.055  22.957  0.00  0.00    +0.000 C 
ATOM     36  O   UNL     1      -0.832  11.583  21.642  0.00  0.00    +0.000 OA
ENDBRANCH  27  28
ENDBRANCH  25  27
ENDBRANCH  24  25
ENDBRANCH   6  24
TORSDOF 10
ENDMDL
MODEL 2
REMARK VINA RESULT:      -9.0      4.270      8.490
REMARK  Name = 
REMARK  10 active torsions:
REMARK  status: ('A' for Active; 'I' for Inactive)
REMARK    1  A    between atoms: C_4  and  C_5
REMARK    2  A    between atoms: C_5  and  C_6
REMARK    3  A    between atoms: C_6  and  N_7
REMARK    4  A    between atoms: N_7  and  C_8
REMARK    5  A    between atoms: C_8  and  C_9
REMARK    6  A    between atoms: C_13  and  C_14
REMARK    7  A    between atoms: C_19  and  C_20
REMARK    8  A    between atoms: C_20  and  N_21
REMARK    9  A    between atoms: N_21  and  C_22
REMARK   10  A    between atoms: C_22  and  C_23
REMARK                            x       y       z     vdW  Elec       q    Type
REMARK                         _______ _______ _______ _____ _____    ______ ____
ROOT
ATOM      1  C   UNL     1       2.072   4.996  19.812  0.00  0.00    +0.000 A 
ATOM      2  C   UNL     1       2.235   4.854  21.211  0.00  0.00    +0.000 A 
ATOM      3  C   UNL     1       2.084   3.633  21.870  0.00  0.00    +0.000 A 
ATOM      4  C   UNL     1       1.797   2.496  21.139  0.00  0.00    +0.000 A 
ATOM      5  C   UNL     1       1.643   2.590  19.758  0.00  0.00    +0.000 A 
ATOM      6  C   UNL     1       1.725   3.829  19.073  0.00  0.00    +0.000 A 
ENDROOT
BRANCH   1  11
ATOM      7  C   UNL     1       1.751   8.748  19.017  0.00  0.00    +0.000 A 
ATOM      8  C   UNL     1       2.651   8.871  17.954  0.00  0.00    +0.000 A 
ATOM      9  C   UNL     1       3.368   7.762  17.513  0.00  0.00    +0.000 A 
ATOM     10  C   UNL     1       3.210   6.528  18.151  0.00  0.00    +0.000 A 
ATOM     11  C   UNL     1       2.312   6.351  19.225  0.00  0.00    +0.000 A 
ATOM     12  C   UNL     1       1.587   7.488  19.627  0.00  0.00    +0.000 A 
BRANCH   7  13
ATOM     13  C   UNL     1       0.889   9.920  19.438  0.00  0.00    +0.000 C 
BRANCH  13  14
ATOM     14  N   UNL     1       0.503  10.780  18.314  0.00  0.00    +0.000 NA
ATOM     15  H   UNL     1       1.279  10.830  17.654  0.00  0.00    +0.000 HD
BRANCH  14  16
ATOM     16  C   UNL     1       0.207  12.138  18.807  0.00  0.00    +0.000 C 
BRANCH  16  17
ATOM     17  C   UNL     1      -1.303  12.393  18.859  0.00  0.00    +0.000 C 
BRANCH  17  21
ATOM     18  C   UNL     1      -3.364   9.786  16.191  0.00  0.00    +0.000 A 
ATOM     19  C   UNL     1      -3.421   9.527  17.553  0.00  0.00    +0.000 A 
ATOM     20  C   UNL     1      -2.766  10.381  18.440  0.00  0.00    +0.000 A 
ATOM     21  C   UNL     1      -2.069  11.476  17.935  0.00  0.00    +0.000 A 
ATOM     22  N   UNL     1      -2.005  11.740  16.604  0.00  0.00    +0.000 NA
ATOM     23  C   UNL     1      -2.652  10.895  15.769  0.00  0.00    +0.000 A 
ENDBRANCH  17  21
ENDBRANCH  16  17
ENDBRANCH  14  16
ENDBRANCH  13  14
ENDBRANCH   7  13
ENDBRANCH   1  11
BRANCH   6  24
ATOM     24  C   UNL     1       1.506   3.854  17.567  0.00  0.00    +0.000 C 
BRANCH  24  25
ATOM     25  N   UNL     1       2.553   3.285  16.725  0.00  0.00    +0.000 NA
ATOM     26  H   UNL     1       2.812   3.946  15.985  0.00  0.00    +0.000 HD
BRANCH  25  27
ATOM     27  C   UNL     1       3.735   2.834  17.449  0.00  0.00    +0.000 C 
BRANCH  27  28
ATOM     28  C   UNL     1       4.901   3.703  17.030  0.00  0.00    +0.000 A 
ATOM     29  C   UNL     1       4.925   4.301  15.748  0.00  0.00    +0.000 A 
ATOM     30  C   UNL     1       5.805   5.343  15.457  0.00  0.00    +0.000 A 
ATOM     31  C   UNL     1       6.597   5.802  16.486  0.00  0.00    +0.000 A 
ATOM     32  C   UNL     1       6.624   5.180  17.719  0.00  0.00    +0.000 A 
ATOM     33  C   UNL     1       5.829   4.101  18.011  0.00  0.00    +0.000 A 
ATOM     34  O   UNL     1       7.399   5.855  18.616  0.00  0.00    +0.000 OA
ATOM     35  C   UNL     1       7.518   7.105  17.910  0.00  0.00    +0.000 C 
ATOM     36  O   UNL     1       7.336   6.947  16.487  0.00  0.00    +0.000 OA
ENDBRANCH  27  28
ENDBRANCH  25  27
ENDBRANCH  24  25
ENDBRANCH   6  24
TORSDOF 10
ENDMDL
MODEL 3
REMARK VINA RESULT:      -9.0      1.516      2.013
REMARK  Name = 
REMARK  10 active torsions:
REMARK  status: ('A' for Active; 'I' for Inactive)
REMARK    1  A    between atoms: C_4  and  C_5
REMARK    2  A    between atoms: C_5  and  C_6
REMARK    3  A    between atoms: C_6  and  N_7
REMARK    4  A    between atoms: N_7  and  C_8
REMARK    5  A    between atoms: C_8  and  C_9
REMARK    6  A    between atoms: C_13  and  C_14
REMARK    7  A    between atoms: C_19  and  C_20
REMARK    8  A    between atoms: C_20  and  N_21
REMARK    9  A    between atoms: N_21  and  C_22
REMARK   10  A    between atoms: C_22  and  C_23
REMARK                            x       y       z     vdW  Elec       q    Type
REMARK                         _______ _______ _______ _____ _____    ______ ____
ROOT
ATOM      1  C   UNL     1       3.622   4.188  19.203  0.00  0.00    +0.000 A 
ATOM      2  C   UNL     1       3.761   3.111  20.111  0.00  0.00    +0.000 A 
ATOM      3  C   UNL     1       2.731   2.699  20.958  0.00  0.00    +0.000 A 
ATOM      4  C   UNL     1       1.505   3.333  20.897  0.00  0.00    +0.000 A 
ATOM      5  C   UNL     1       1.322   4.389  20.006  0.00  0.00    +0.000 A 
ATOM      6  C   UNL     1       2.371   4.870  19.183  0.00  0.00    +0.000 A 
ENDROOT
BRANCH   1  11
ATOM      7  C   UNL     1       6.812   5.806  17.781  0.00  0.00    +0.000 A 
ATOM      8  C   UNL     1       6.878   5.199  16.523  0.00  0.00    +0.000 A 
ATOM      9  C   UNL     1       5.918   4.265  16.147  0.00  0.00    +0.000 A 
ATOM     10  C   UNL     1       4.899   3.910  17.037  0.00  0.00    +0.000 A 
ATOM     11  C   UNL     1       4.787   4.495  18.315  0.00  0.00    +0.000 A 
ATOM     12  C   UNL     1       5.761   5.454  18.652  0.00  0.00    +0.000 A 
BRANCH   7  13
ATOM     13  C   UNL     1       7.788   6.900  18.163  0.00  0.00    +0.000 C 
BRANCH  13  14
ATOM     14  N   UNL     1       7.871   7.969  17.162  0.00  0.00    +0.000 NA
ATOM     15  H   UNL     1       8.760   7.892  16.670  0.00  0.00    +0.000 HD
BRANCH  14  16
ATOM     16  C   UNL     1       7.805   9.281  17.831  0.00  0.00    +0.000 C 
BRANCH  16  17
ATOM     17  C   UNL     1       8.891   9.413  18.904  0.00  0.00    +0.000 C 
BRANCH  17  21
ATOM     18  C   UNL     1      10.671  13.284  19.027  0.00  0.00    +0.000 A 
ATOM     19  C   UNL     1       9.813  12.977  17.980  0.00  0.00    +0.000 A 
ATOM     20  C   UNL     1       9.210  11.721  17.935  0.00  0.00    +0.000 A 
ATOM     21  C   UNL     1       9.484  10.802  18.946  0.00  0.00    +0.000 A 
ATOM     22  N   UNL     1      10.321  11.090  19.975  0.00  0.00    +0.000 NA
ATOM     23  C   UNL     1      10.890  12.317  19.993  0.00  0.00    +0.000 A 
ENDBRANCH  17  21
ENDBRANCH  16  17
ENDBRANCH  14  16
ENDBRANCH  13  14
ENDBRANCH   7  13
ENDBRANCH   1  11
BRANCH   6  24
ATOM     24  C   UNL     1       2.103   6.052  18.264  0.00  0.00    +0.000 C 
BRANCH  24  25
ATOM     25  N   UNL     1       2.453   7.380  18.756  0.00  0.00    +0.000 NA
ATOM     26  H   UNL     1       3.465   7.447  18.911  0.00  0.00    +0.000 HD
BRANCH  25  27
ATOM     27  C   UNL     1       1.989   8.479  17.918  0.00  0.00    +0.000 C 
BRANCH  27  28
ATOM     28  C   UNL     1       1.391   9.537  18.820  0.00  0.00    +0.000 A 
ATOM     29  C   UNL     1       0.923   9.195  20.112  0.00  0.00    +0.000 A 
ATOM     30  C   UNL     1       0.671  10.179  21.067  0.00  0.00    +0.000 A 
ATOM     31  C   UNL     1       0.957  11.480  20.720  0.00  0.00    +0.000 A 
ATOM     32  C   UNL     1       1.350  11.825  19.442  0.00  0.00    +0.000 A 
ATOM     33  C   UNL     1       1.530  10.889  18.455  0.00  0.00    +0.000 A 
ATOM     34  O   UNL     1       1.675  13.146  19.344  0.00  0.00    +0.000 OA
ATOM     35  C   UNL     1       1.788  13.451  20.748  0.00  0.00    +0.000 C 
ATOM     36  O   UNL     1       1.015  12.547  21.566  0.00  0.00    +0.000 OA
ENDBRANCH  27  28
ENDBRANCH  25  27
ENDBRANCH  24  25
ENDBRANCH   6  24
TORSDOF 10
ENDMDL
MODEL 4
REMARK VINA RESULT:      -9.0      4.155      8.437
REMARK  Name = 
REMARK  10 active torsions:
REMARK  status: ('A' for Active; 'I' for Inactive)
REMARK    1  A    between atoms: C_4  and  C_5
REMARK    2  A    between atoms: C_5  and  C_6
REMARK    3  A    between atoms: C_6  and  N_7
REMARK    4  A    between atoms: N_7  and  C_8
REMARK    5  A    between atoms: C_8  and  C_9
REMARK    6  A    between atoms: C_13  and  C_14
REMARK    7  A    between atoms: C_19  and  C_20
REMARK    8  A    between atoms: C_20  and  N_21
REMARK    9  A    between atoms: N_21  and  C_22
REMARK   10  A    between atoms: C_22  and  C_23
REMARK                            x       y       z     vdW  Elec       q    Type
REMARK                         _______ _______ _______ _____ _____    ______ ____
ROOT
ATOM      1  C   UNL     1       2.073   4.997  19.832  0.00  0.00    +0.000 A 
ATOM      2  C   UNL     1       2.305   4.864  21.223  0.00  0.00    +0.000 A 
ATOM      3  C   UNL     1       2.144   3.657  21.904  0.00  0.00    +0.000 A 
ATOM      4  C   UNL     1       1.778   2.524  21.204  0.00  0.00    +0.000 A 
ATOM      5  C   UNL     1       1.554   2.608  19.831  0.00  0.00    +0.000 A 
ATOM      6  C   UNL     1       1.645   3.835  19.127  0.00  0.00    +0.000 A 
ENDROOT
BRANCH   1  11
ATOM      7  C   UNL     1       1.746   8.713  18.886  0.00  0.00    +0.000 A 
ATOM      8  C   UNL     1       2.716   8.817  17.884  0.00  0.00    +0.000 A 
ATOM      9  C   UNL     1       3.480   7.708  17.534  0.00  0.00    +0.000 A 
ATOM     10  C   UNL     1       3.298   6.493  18.202  0.00  0.00    +0.000 A 
ATOM     11  C   UNL     1       2.331   6.336  19.216  0.00  0.00    +0.000 A 
ATOM     12  C   UNL     1       1.560   7.472  19.527  0.00  0.00    +0.000 A 
BRANCH   7  13
ATOM     13  C   UNL     1       0.837   9.882  19.205  0.00  0.00    +0.000 C 
BRANCH  13  14
ATOM     14  N   UNL     1       0.802  10.207  20.635  0.00  0.00    +0.000 NA
ATOM     15  H   UNL     1       1.010   9.364  21.170  0.00  0.00    +0.000 HD
BRANCH  14  16
ATOM     16  C   UNL     1      -0.542  10.688  21.002  0.00  0.00    +0.000 C 
BRANCH  16  17
ATOM     17  C   UNL     1      -0.753  10.647  22.518  0.00  0.00    +0.000 C 
BRANCH  17  21
ATOM     18  C   UNL     1      -2.463  14.300  23.898  0.00  0.00    +0.000 A 
ATOM     19  C   UNL     1      -3.270  13.174  23.817  0.00  0.00    +0.000 A 
ATOM     20  C   UNL     1      -2.722  11.968  23.384  0.00  0.00    +0.000 A 
ATOM     21  C   UNL     1      -1.371  11.922  23.042  0.00  0.00    +0.000 A 
ATOM     22  N   UNL     1      -0.571  13.017  23.117  0.00  0.00    +0.000 NA
ATOM     23  C   UNL     1      -1.131  14.172  23.542  0.00  0.00    +0.000 A 
ENDBRANCH  17  21
ENDBRANCH  16  17
ENDBRANCH  14  16
ENDBRANCH  13  14
ENDBRANCH   7  13
ENDBRANCH   1  11
BRANCH   6  24
ATOM     24  C   UNL     1       1.348   3.852  17.635  0.00  0.00    +0.000 C 
BRANCH  24  25
ATOM     25  N   UNL     1       2.464   3.626  16.723  0.00  0.00    +0.000 NA
ATOM     26  H   UNL     1       2.773   4.514  16.312  0.00  0.00    +0.000 HD
BRANCH  25  27
ATOM     27  C   UNL     1       3.591   2.912  17.310  0.00  0.00    +0.000 C 
BRANCH  27  28
ATOM     28  C   UNL     1       4.855   3.675  16.977  0.00  0.00    +0.000 A 
ATOM     29  C   UNL     1       5.056   4.195  15.676  0.00  0.00    +0.000 A 
ATOM     30  C   UNL     1       6.035   5.156  15.430  0.00  0.00    +0.000 A 
ATOM     31  C   UNL     1       6.747   5.620  16.514  0.00  0.00    +0.000 A 
ATOM     32  C   UNL     1       6.601   5.069  17.772  0.00  0.00    +0.000 A 
ATOM     33  C   UNL     1       5.702   4.065  18.030  0.00  0.00    +0.000 A 
ATOM     34  O   UNL     1       7.325   5.740  18.712  0.00  0.00    +0.000 OA
ATOM     35  C   UNL     1       7.609   6.936  17.961  0.00  0.00    +0.000 C 
ATOM     36  O   UNL     1       7.564   6.709  16.537  0.00  0.00    +0.000 OA
ENDBRANCH  27  28
ENDBRANCH  25  27
ENDBRANCH  24  25
ENDBRANCH   6  24
TORSDOF 10
ENDMDL
MODEL 5
REMARK VINA RESULT:      -8.9      1.259      1.733
REMARK  Name = 
REMARK  10 active torsions:
REMARK  status: ('A' for Active; 'I' for Inactive)
REMARK    1  A    between atoms: C_4  and  C_5
REMARK    2  A    between atoms: C_5  and  C_6
REMARK    3  A    between atoms: C_6  and  N_7
REMARK    4  A    between atoms: N_7  and  C_8
REMARK    5  A    between atoms: C_8  and  C_9
REMARK    6  A    between atoms: C_13  and  C_14
REMARK    7  A    between atoms: C_19  and  C_20
REMARK    8  A    between atoms: C_20  and  N_21
REMARK    9  A    between atoms: N_21  and  C_22
REMARK   10  A    between atoms: C_22  and  C_23
REMARK                            x       y       z     vdW  Elec       q    Type
REMARK                         _______ _______ _______ _____ _____    ______ ____
ROOT
ATOM      1  C   UNL     1       3.307   3.772  19.330  0.00  0.00    +0.000 A 
ATOM      2  C   UNL     1       3.467   2.851  20.394  0.00  0.00    +0.000 A 
ATOM      3  C   UNL     1       2.421   2.491  21.245  0.00  0.00    +0.000 A 
ATOM      4  C   UNL     1       1.161   3.017  21.034  0.00  0.00    +0.000 A 
ATOM      5  C   UNL     1       0.958   3.915  19.989  0.00  0.00    +0.000 A 
ATOM      6  C   UNL     1       2.017   4.348  19.152  0.00  0.00    +0.000 A 
ENDROOT
BRANCH   1  11
ATOM      7  C   UNL     1       6.647   5.168  18.023  0.00  0.00    +0.000 A 
ATOM      8  C   UNL     1       6.649   4.670  16.716  0.00  0.00    +0.000 A 
ATOM      9  C   UNL     1       5.596   3.876  16.269  0.00  0.00    +0.000 A 
ATOM     10  C   UNL     1       4.547   3.553  17.135  0.00  0.00    +0.000 A 
ATOM     11  C   UNL     1       4.497   4.032  18.461  0.00  0.00    +0.000 A 
ATOM     12  C   UNL     1       5.566   4.852  18.870  0.00  0.00    +0.000 A 
BRANCH   7  13
ATOM     13  C   UNL     1       7.733   6.116  18.488  0.00  0.00    +0.000 C 
BRANCH  13  14
ATOM     14  N   UNL     1       7.786   7.355  17.705  0.00  0.00    +0.000 NA
ATOM     15  H   UNL     1       8.377   7.204  16.888  0.00  0.00    +0.000 HD
BRANCH  14  16
ATOM     16  C   UNL     1       8.366   8.436  18.523  0.00  0.00    +0.000 C 
BRANCH  16  17
ATOM     17  C   UNL     1       8.343   9.773  17.776  0.00  0.00    +0.000 C 
BRANCH  17  21
ATOM     18  C   UNL     1      10.708  12.691  19.791  0.00  0.00    +0.000 A 
ATOM     19  C   UNL     1      10.257  12.968  18.507  0.00  0.00    +0.000 A 
ATOM     20  C   UNL     1       9.469  12.030  17.842  0.00  0.00    +0.000 A 
ATOM     21  C   UNL     1       9.151  10.835  18.484  0.00  0.00    +0.000 A 
ATOM     22  N   UNL     1       9.586  10.553  19.739  0.00  0.00    +0.000 NA
ATOM     23  C   UNL     1      10.348  11.482  20.360  0.00  0.00    +0.000 A 
ENDBRANCH  17  21
ENDBRANCH  16  17
ENDBRANCH  14  16
ENDBRANCH  13  14
ENDBRANCH   7  13
ENDBRANCH   1  11
BRANCH   6  24
ATOM     24  C   UNL     1       1.722   5.362  18.056  0.00  0.00    +0.000 C 
BRANCH  24  25
ATOM     25  N   UNL     1       2.407   6.648  18.126  0.00  0.00    +0.000 NA
ATOM     26  H   UNL     1       1.876   7.362  17.616  0.00  0.00    +0.000 HD
BRANCH  25  27
ATOM     27  C   UNL     1       2.710   7.100  19.479  0.00  0.00    +0.000 C 
BRANCH  27  28
ATOM     28  C   UNL     1       1.646   8.095  19.890  0.00  0.00    +0.000 A 
ATOM     29  C   UNL     1       1.133   8.092  21.209  0.00  0.00    +0.000 A 
ATOM     30  C   UNL     1       0.406   9.175  21.700  0.00  0.00    +0.000 A 
ATOM     31  C   UNL     1       0.268  10.267  20.871  0.00  0.00    +0.000 A 
ATOM     32  C   UNL     1       0.709  10.249  19.562  0.00  0.00    +0.000 A 
ATOM     33  C   UNL     1       1.357   9.166  19.024  0.00  0.00    +0.000 A 
ATOM     34  O   UNL     1       0.561  11.461  18.955  0.00  0.00    +0.000 OA
ATOM     35  C   UNL     1       0.339  12.270  20.127  0.00  0.00    +0.000 C 
ATOM     36  O   UNL     1      -0.185  11.501  21.230  0.00  0.00    +0.000 OA
ENDBRANCH  27  28
ENDBRANCH  25  27
ENDBRANCH  24  25
ENDBRANCH   6  24
TORSDOF 10
ENDMDL
MODEL 6
REMARK VINA RESULT:      -8.8      1.120      1.337
REMARK  Name = 
REMARK  10 active torsions:
REMARK  status: ('A' for Active; 'I' for Inactive)
REMARK    1  A    between atoms: C_4  and  C_5
REMARK    2  A    between atoms: C_5  and  C_6
REMARK    3  A    between atoms: C_6  and  N_7
REMARK    4  A    between atoms: N_7  and  C_8
REMARK    5  A    between atoms: C_8  and  C_9
REMARK    6  A    between atoms: C_13  and  C_14
REMARK    7  A    between atoms: C_19  and  C_20
REMARK    8  A    between atoms: C_20  and  N_21
REMARK    9  A    between atoms: N_21  and  C_22
REMARK   10  A    between atoms: C_22  and  C_23
REMARK                            x       y       z     vdW  Elec       q    Type
REMARK                         _______ _______ _______ _____ _____    ______ ____
ROOT
ATOM      1  C   UNL     1       3.617   4.203  18.909  0.00  0.00    +0.000 A 
ATOM      2  C   UNL     1       3.772   3.004  19.645  0.00  0.00    +0.000 A 
ATOM      3  C   UNL     1       2.752   2.457  20.424  0.00  0.00    +0.000 A 
ATOM      4  C   UNL     1       1.519   3.080  20.464  0.00  0.00    +0.000 A 
ATOM      5  C   UNL     1       1.320   4.255  19.742  0.00  0.00    +0.000 A 
ATOM      6  C   UNL     1       2.359   4.865  18.996  0.00  0.00    +0.000 A 
ENDROOT
BRANCH   1  11
ATOM      7  C   UNL     1       6.803   6.025  17.749  0.00  0.00    +0.000 A 
ATOM      8  C   UNL     1       6.850   5.645  16.404  0.00  0.00    +0.000 A 
ATOM      9  C   UNL     1       5.878   4.795  15.883  0.00  0.00    +0.000 A 
ATOM     10  C   UNL     1       4.867   4.297  16.711  0.00  0.00    +0.000 A 
ATOM     11  C   UNL     1       4.774   4.652  18.073  0.00  0.00    +0.000 A 
ATOM     12  C   UNL     1       5.759   5.533  18.558  0.00  0.00    +0.000 A 
BRANCH   7  13
ATOM     13  C   UNL     1       7.792   7.030  18.302  0.00  0.00    +0.000 C 
BRANCH  13  14
ATOM     14  N   UNL     1       8.170   8.058  17.325  0.00  0.00    +0.000 NA
ATOM     15  H   UNL     1       9.171   7.987  17.142  0.00  0.00    +0.000 HD
BRANCH  14  16
ATOM     16  C   UNL     1       7.877   9.395  17.874  0.00  0.00    +0.000 C 
BRANCH  16  17
ATOM     17  C   UNL     1       9.018   9.892  18.766  0.00  0.00    +0.000 C 
BRANCH  17  21
ATOM     18  C   UNL     1      10.570  13.607  17.366  0.00  0.00    +0.000 A 
ATOM     19  C   UNL     1       9.286  13.576  17.891  0.00  0.00    +0.000 A 
ATOM     20  C   UNL     1       8.771  12.372  18.369  0.00  0.00    +0.000 A 
ATOM     21  C   UNL     1       9.561  11.225  18.307  0.00  0.00    +0.000 A 
ATOM     22  N   UNL     1      10.818  11.243  17.795  0.00  0.00    +0.000 NA
ATOM     23  C   UNL     1      11.291  12.426  17.341  0.00  0.00    +0.000 A 
ENDBRANCH  17  21
ENDBRANCH  16  17
ENDBRANCH  14  16
ENDBRANCH  13  14
ENDBRANCH   7  13
ENDBRANCH   1  11
BRANCH   6  24
ATOM     24  C   UNL     1       2.073   6.169  18.266  0.00  0.00    +0.000 C 
BRANCH  24  25
ATOM     25  N   UNL     1       2.375   7.413  18.966  0.00  0.00    +0.000 NA
ATOM     26  H   UNL     1       1.977   8.212  18.459  0.00  0.00    +0.000 HD
BRANCH  25  27
ATOM     27  C   UNL     1       1.966   7.436  20.365  0.00  0.00    +0.000 C 
BRANCH  27  28
ATOM     28  C   UNL     1       1.318   8.776  20.642  0.00  0.00    +0.000 A 
ATOM     29  C   UNL     1       0.682   9.493  19.601  0.00  0.00    +0.000 A 
ATOM     30  C   UNL     1      -0.183  10.550  19.881  0.00  0.00    +0.000 A 
ATOM     31  C   UNL     1      -0.438  10.819  21.207  0.00  0.00    +0.000 A 
ATOM     32  C   UNL     1       0.229  10.166  22.225  0.00  0.00    +0.000 A 
ATOM     33  C   UNL     1       1.147   9.176  21.980  0.00  0.00    +0.000 A 
ATOM     34  O   UNL     1      -0.246  10.514  23.455  0.00  0.00    +0.000 OA
ATOM     35  C   UNL     1      -1.478  11.139  23.048  0.00  0.00    +0.000 C 
ATOM     36  O   UNL     1      -1.419  11.630  21.693  0.00  0.00    +0.000 OA
ENDBRANCH  27  28
ENDBRANCH  25  27
ENDBRANCH  24  25
ENDBRANCH   6  24
TORSDOF 10
ENDMDL
MODEL 7
REMARK VINA RESULT:      -8.8      3.491      8.653
REMARK  Name = 
REMARK  10 active torsions:
REMARK  status: ('A' for Active; 'I' for Inactive)
REMARK    1  A    between atoms: C_4  and  C_5
REMARK    2  A    between atoms: C_5  and  C_6
REMARK    3  A    between atoms: C_6  and  N_7
REMARK    4  A    between atoms: N_7  and  C_8
REMARK    5  A    between atoms: C_8  and  C_9
REMARK    6  A    between atoms: C_13  and  C_14
REMARK    7  A    between atoms: C_19  and  C_20
REMARK    8  A    between atoms: C_20  and  N_21
REMARK    9  A    between atoms: N_21  and  C_22
REMARK   10  A    between atoms: C_22  and  C_23
REMARK                            x       y       z     vdW  Elec       q    Type
REMARK                         _______ _______ _______ _____ _____    ______ ____
ROOT
ATOM      1  C   UNL     1       5.108   6.044  16.893  0.00  0.00    +0.000 A 
ATOM      2  C   UNL     1       4.704   5.198  15.833  0.00  0.00    +0.000 A 
ATOM      3  C   UNL     1       5.611   4.524  15.015  0.00  0.00    +0.000 A 
ATOM      4  C   UNL     1       6.966   4.647  15.256  0.00  0.00    +0.000 A 
ATOM      5  C   UNL     1       7.406   5.459  16.300  0.00  0.00    +0.000 A 
ATOM      6  C   UNL     1       6.508   6.206  17.103  0.00  0.00    +0.000 A 
ENDROOT
BRANCH   1  11
ATOM      7  C   UNL     1       2.380   6.554  19.560  0.00  0.00    +0.000 A 
ATOM      8  C   UNL     1       1.854   7.789  19.167  0.00  0.00    +0.000 A 
ATOM      9  C   UNL     1       2.387   8.458  18.070  0.00  0.00    +0.000 A 
ATOM     10  C   UNL     1       3.468   7.910  17.372  0.00  0.00    +0.000 A 
ATOM     11  C   UNL     1       4.032   6.666  17.726  0.00  0.00    +0.000 A 
ATOM     12  C   UNL     1       3.451   6.007  18.826  0.00  0.00    +0.000 A 
BRANCH   7  13
ATOM     13  C   UNL     1       1.743   5.767  20.687  0.00  0.00    +0.000 C 
BRANCH  13  14
ATOM     14  N   UNL     1       2.680   4.849  21.344  0.00  0.00    +0.000 NA
ATOM     15  H   UNL     1       3.359   4.521  20.658  0.00  0.00    +0.000 HD
BRANCH  14  16
ATOM     16  C   UNL     1       1.944   3.690  21.881  0.00  0.00    +0.000 C 
BRANCH  16  17
ATOM     17  C   UNL     1       1.219   2.927  20.768  0.00  0.00    +0.000 C 
BRANCH  17  21
ATOM     18  C   UNL     1       3.741   2.139  17.423  0.00  0.00    +0.000 A 
ATOM     19  C   UNL     1       2.456   2.610  17.194  0.00  0.00    +0.000 A 
ATOM     20  C   UNL     1       1.625   2.889  18.278  0.00  0.00    +0.000 A 
ATOM     21  C   UNL     1       2.107   2.687  19.570  0.00  0.00    +0.000 A 
ATOM     22  N   UNL     1       3.362   2.225  19.807  0.00  0.00    +0.000 NA
ATOM     23  C   UNL     1       4.145   1.965  18.736  0.00  0.00    +0.000 A 
ENDBRANCH  17  21
ENDBRANCH  16  17
ENDBRANCH  14  16
ENDBRANCH  13  14
ENDBRANCH   7  13
ENDBRANCH   1  11
BRANCH   6  24
ATOM     24  C   UNL     1       7.069   7.100  18.199  0.00  0.00    +0.000 C 
BRANCH  24  25
ATOM     25  N   UNL     1       7.778   8.307  17.786  0.00  0.00    +0.000 NA
ATOM     26  H   UNL     1       7.137   9.108  17.772  0.00  0.00    +0.000 HD
BRANCH  25  27
ATOM     27  C   UNL     1       8.965   8.612  18.575  0.00  0.00    +0.000 C 
BRANCH  27  28
ATOM     28  C   UNL     1       8.927  10.083  18.930  0.00  0.00    +0.000 A 
ATOM     29  C   UNL     1       9.258  10.513  20.237  0.00  0.00    +0.000 A 
ATOM     30  C   UNL     1       9.541  11.852  20.502  0.00  0.00    +0.000 A 
ATOM     31  C   UNL     1       9.547  12.718  19.430  0.00  0.00    +0.000 A 
ATOM     32  C   UNL     1       9.162  12.316  18.166  0.00  0.00    +0.000 A 
ATOM     33  C   UNL     1       8.800  11.022  17.890  0.00  0.00    +0.000 A 
ATOM     34  O   UNL     1       9.337  13.301  17.240  0.00  0.00    +0.000 OA
ATOM     35  C   UNL     1      10.192  14.174  18.003  0.00  0.00    +0.000 C 
ATOM     36  O   UNL     1      10.026  13.993  19.425  0.00  0.00    +0.000 OA
ENDBRANCH  27  28
ENDBRANCH  25  27
ENDBRANCH  24  25
ENDBRANCH   6  24
TORSDOF 10
ENDMDL
MODEL 8
REMARK VINA RESULT:      -8.8      5.183      9.691
REMARK  Name = 
REMARK  10 active torsions:
REMARK  status: ('A' for Active; 'I' for Inactive)
REMARK    1  A    between atoms: C_4  and  C_5
REMARK    2  A    between atoms: C_5  and  C_6
REMARK    3  A    between atoms: C_6  and  N_7
REMARK    4  A    between atoms: N_7  and  C_8
REMARK    5  A    between atoms: C_8  and  C_9
REMARK    6  A    between atoms: C_13  and  C_14
REMARK    7  A    between atoms: C_19  and  C_20
REMARK    8  A    between atoms: C_20  and  N_21
REMARK    9  A    between atoms: N_21  and  C_22
REMARK   10  A    between atoms: C_22  and  C_23
REMARK                            x       y       z     vdW  Elec       q    Type
REMARK                         _______ _______ _______ _____ _____    ______ ____
ROOT
ATOM      1  C   UNL     1       1.396   8.755  19.869  0.00  0.00    +0.000 A 
ATOM      2  C   UNL     1       1.630   9.629  18.780  0.00  0.00    +0.000 A 
ATOM      3  C   UNL     1       2.319   9.239  17.632  0.00  0.00    +0.000 A 
ATOM      4  C   UNL     1       2.770   7.938  17.517  0.00  0.00    +0.000 A 
ATOM      5  C   UNL     1       2.548   7.041  18.560  0.00  0.00    +0.000 A 
ATOM      6  C   UNL     1       1.909   7.430  19.765  0.00  0.00    +0.000 A 
ENDROOT
BRANCH   1  11
ATOM      7  C   UNL     1      -1.066  10.852  21.956  0.00  0.00    +0.000 A 
ATOM      8  C   UNL     1      -0.758  10.412  23.247  0.00  0.00    +0.000 A 
ATOM      9  C   UNL     1       0.216   9.437  23.441  0.00  0.00    +0.000 A 
ATOM     10  C   UNL     1       0.871   8.874  22.341  0.00  0.00    +0.000 A 
ATOM     11  C   UNL     1       0.599   9.285  21.019  0.00  0.00    +0.000 A 
ATOM     12  C   UNL     1      -0.374  10.290  20.864  0.00  0.00    +0.000 A 
BRANCH   7  13
ATOM     13  C   UNL     1      -2.048  11.984  21.739  0.00  0.00    +0.000 C 
BRANCH  13  14
ATOM     14  N   UNL     1      -1.450  13.137  21.057  0.00  0.00    +0.000 NA
ATOM     15  H   UNL     1      -1.775  13.992  21.507  0.00  0.00    +0.000 HD
BRANCH  14  16
ATOM     16  C   UNL     1      -1.871  13.151  19.644  0.00  0.00    +0.000 C 
BRANCH  16  17
ATOM     17  C   UNL     1      -3.151  12.335  19.437  0.00  0.00    +0.000 C 
BRANCH  17  21
ATOM     18  C   UNL     1      -2.982  10.031  15.854  0.00  0.00    +0.000 A 
ATOM     19  C   UNL     1      -1.970   9.881  16.793  0.00  0.00    +0.000 A 
ATOM     20  C   UNL     1      -2.021  10.615  17.977  0.00  0.00    +0.000 A 
ATOM     21  C   UNL     1      -3.089  11.484  18.190  0.00  0.00    +0.000 A 
ATOM     22  N   UNL     1      -4.084  11.640  17.280  0.00  0.00    +0.000 NA
ATOM     23  C   UNL     1      -4.009  10.914  16.141  0.00  0.00    +0.000 A 
ENDBRANCH  17  21
ENDBRANCH  16  17
ENDBRANCH  14  16
ENDBRANCH  13  14
ENDBRANCH   7  13
ENDBRANCH   1  11
BRANCH   6  24
ATOM     24  C   UNL     1       1.739   6.401  20.873  0.00  0.00    +0.000 C 
BRANCH  24  25
ATOM     25  N   UNL     1       0.977   5.196  20.562  0.00  0.00    +0.000 NA
ATOM     26  H   UNL     1       0.663   5.216  19.586  0.00  0.00    +0.000 HD
BRANCH  25  27
ATOM     27  C   UNL     1       1.672   3.948  20.853  0.00  0.00    +0.000 C 
BRANCH  27  28
ATOM     28  C   UNL     1       2.530   3.599  19.656  0.00  0.00    +0.000 A 
ATOM     29  C   UNL     1       1.941   3.418  18.382  0.00  0.00    +0.000 A 
ATOM     30  C   UNL     1       2.720   3.415  17.225  0.00  0.00    +0.000 A 
ATOM     31  C   UNL     1       4.067   3.658  17.373  0.00  0.00    +0.000 A 
ATOM     32  C   UNL     1       4.655   3.769  18.618  0.00  0.00    +0.000 A 
ATOM     33  C   UNL     1       3.928   3.696  19.779  0.00  0.00    +0.000 A 
ATOM     34  O   UNL     1       5.974   4.106  18.533  0.00  0.00    +0.000 OA
ATOM     35  C   UNL     1       6.005   4.536  17.159  0.00  0.00    +0.000 C 
ATOM     36  O   UNL     1       4.952   3.936  16.376  0.00  0.00    +0.000 OA
ENDBRANCH  27  28
ENDBRANCH  25  27
ENDBRANCH  24  25
ENDBRANCH   6  24
TORSDOF 10
ENDMDL
MODEL 9
REMARK VINA RESULT:      -8.7      1.877      2.427
REMARK  Name = 
REMARK  10 active torsions:
REMARK  status: ('A' for Active; 'I' for Inactive)
REMARK    1  A    between atoms: C_4  and  C_5
REMARK    2  A    between atoms: C_5  and  C_6
REMARK    3  A    between atoms: C_6  and  N_7
REMARK    4  A    between atoms: N_7  and  C_8
REMARK    5  A    between atoms: C_8  and  C_9
REMARK    6  A    between atoms: C_13  and  C_14
REMARK    7  A    between atoms: C_19  and  C_20
REMARK    8  A    between atoms: C_20  and  N_21
REMARK    9  A    between atoms: N_21  and  C_22
REMARK   10  A    between atoms: C_22  and  C_23
REMARK                            x       y       z     vdW  Elec       q    Type
REMARK                         _______ _______ _______ _____ _____    ______ ____
ROOT
ATOM      1  C   UNL     1       3.565   4.304  19.189  0.00  0.00    +0.000 A 
ATOM      2  C   UNL     1       3.567   3.164  20.029  0.00  0.00    +0.000 A 
ATOM      3  C   UNL     1       2.479   2.811  20.827  0.00  0.00    +0.000 A 
ATOM      4  C   UNL     1       1.327   3.572  20.783  0.00  0.00    +0.000 A 
ATOM      5  C   UNL     1       1.277   4.694  19.958  0.00  0.00    +0.000 A 
ATOM      6  C   UNL     1       2.392   5.113  19.188  0.00  0.00    +0.000 A 
ENDROOT
BRANCH   1  11
ATOM      7  C   UNL     1       6.852   5.787  17.846  0.00  0.00    +0.000 A 
ATOM      8  C   UNL     1       6.970   5.110  16.628  0.00  0.00    +0.000 A 
ATOM      9  C   UNL     1       6.012   4.171  16.255  0.00  0.00    +0.000 A 
ATOM     10  C   UNL     1       4.943   3.884  17.110  0.00  0.00    +0.000 A 
ATOM     11  C   UNL     1       4.778   4.541  18.347  0.00  0.00    +0.000 A 
ATOM     12  C   UNL     1       5.753   5.501  18.679  0.00  0.00    +0.000 A 
BRANCH   7  13
ATOM     13  C   UNL     1       7.830   6.883  18.216  0.00  0.00    +0.000 C 
BRANCH  13  14
ATOM     14  N   UNL     1       7.915   7.941  17.203  0.00  0.00    +0.000 NA
ATOM     15  H   UNL     1       8.804   7.855  16.711  0.00  0.00    +0.000 HD
BRANCH  14  16
ATOM     16  C   UNL     1       7.855   9.260  17.857  0.00  0.00    +0.000 C 
BRANCH  16  17
ATOM     17  C   UNL     1       8.928   9.394  18.941  0.00  0.00    +0.000 C 
BRANCH  17  21
ATOM     18  C   UNL     1      10.751  13.245  19.049  0.00  0.00    +0.000 A 
ATOM     19  C   UNL     1       9.980  12.902  17.947  0.00  0.00    +0.000 A 
ATOM     20  C   UNL     1       9.364  11.653  17.905  0.00  0.00    +0.000 A 
ATOM     21  C   UNL     1       9.537  10.776  18.974  0.00  0.00    +0.000 A 
ATOM     22  N   UNL     1      10.289  11.099  20.057  0.00  0.00    +0.000 NA
ATOM     23  C   UNL     1      10.873  12.319  20.071  0.00  0.00    +0.000 A 
ENDBRANCH  17  21
ENDBRANCH  16  17
ENDBRANCH  14  16
ENDBRANCH  13  14
ENDBRANCH   7  13
ENDBRANCH   1  11
BRANCH   6  24
ATOM     24  C   UNL     1       2.271   6.371  18.342  0.00  0.00    +0.000 C 
BRANCH  24  25
ATOM     25  N   UNL     1       2.414   7.655  19.020  0.00  0.00    +0.000 NA
ATOM     26  H   UNL     1       3.318   7.705  19.501  0.00  0.00    +0.000 HD
BRANCH  25  27
ATOM     27  C   UNL     1       2.223   8.818  18.162  0.00  0.00    +0.000 C 
BRANCH  27  28
ATOM     28  C   UNL     1       0.912   9.472  18.542  0.00  0.00    +0.000 A 
ATOM     29  C   UNL     1       0.874  10.472  19.543  0.00  0.00    +0.000 A 
ATOM     30  C   UNL     1      -0.236  11.303  19.686  0.00  0.00    +0.000 A 
ATOM     31  C   UNL     1      -1.258  11.149  18.775  0.00  0.00    +0.000 A 
ATOM     32  C   UNL     1      -1.254  10.133  17.840  0.00  0.00    +0.000 A 
ATOM     33  C   UNL     1      -0.212   9.248  17.726  0.00  0.00    +0.000 A 
ATOM     34  O   UNL     1      -2.308  10.225  16.979  0.00  0.00    +0.000 OA
ATOM     35  C   UNL     1      -2.711  11.578  17.266  0.00  0.00    +0.000 C 
ATOM     36  O   UNL     1      -2.305  12.000  18.585  0.00  0.00    +0.000 OA
ENDBRANCH  27  28
ENDBRANCH  25  27
ENDBRANCH  24  25
ENDBRANCH   6  24
TORSDOF 10
ENDMDL
