MODEL 1
REMARK VINA RESULT:      -7.7      0.000      0.000
REMARK  Name = 
REMARK  9 active torsions:
REMARK  status: ('A' for Active; 'I' for Inactive)
REMARK    1  A    between atoms: C_1  and  C_2
REMARK    2  A    between atoms: N_6  and  C_7
REMARK    3  A    between atoms: C_12  and  C_13
REMARK    4  A    between atoms: C_13  and  C_14
REMARK    5  A    between atoms: C_13  and  N_15
REMARK    6  A    between atoms: C_16  and  C_18
REMARK    7  A    between atoms: C_18  and  C_19
REMARK    8  A    between atoms: C_22  and  C_23
REMARK    9  A    between atoms: C_23  and  O_25
REMARK                            x       y       z     vdW  Elec       q    Type
REMARK                         _______ _______ _______ _____ _____    ______ ____
ROOT
ATOM      1  C   UNL     1       0.264  10.132  18.730  0.00  0.00    +0.000 C 
ATOM      2  C   UNL     1      -0.959  10.086  17.813  0.00  0.00    +0.000 C 
ENDROOT
BRANCH   1   8
ATOM      3  C   UNL     1       0.017  12.472  19.888  0.00  0.00    +0.000 A 
ATOM      4  C   UNL     1       0.547  13.787  19.990  0.00  0.00    +0.000 A 
ATOM      5  C   UNL     1       1.683  14.223  19.305  0.00  0.00    +0.000 A 
ATOM      6  C   UNL     1       2.370  13.338  18.506  0.00  0.00    +0.000 A 
ATOM      7  C   UNL     1       1.905  12.032  18.390  0.00  0.00    +0.000 A 
ATOM      8  C   UNL     1       0.721  11.569  19.037  0.00  0.00    +0.000 A 
BRANCH   3  14
ATOM      9  C   UNL     1      -1.190  13.643  23.365  0.00  0.00    +0.000 C 
ATOM     10  C   UNL     1      -1.929  12.361  22.975  0.00  0.00    +0.000 C 
ATOM     11  C   UNL     1      -3.338  12.614  22.433  0.00  0.00    +0.000 C 
ATOM     12  C   UNL     1      -3.303  13.261  21.051  0.00  0.00    +0.000 C 
ATOM     13  C   UNL     1      -2.468  12.428  20.078  0.00  0.00    +0.000 C 
ATOM     14  N   UNL     1      -1.125  12.181  20.632  0.00  0.00    +0.000 N 
ATOM     15  C   UNL     1      -1.103  11.564  21.963  0.00  0.00    +0.000 C 
ENDBRANCH   3  14
ENDBRANCH   1   8
BRANCH   1  16
ATOM     16  N   UNL     1       1.300   9.323  18.082  0.00  0.00    +0.000 N 
ATOM     17  C   UNL     1       2.001   8.323  18.720  0.00  0.00    +0.000 C 
ATOM     18  O   UNL     1       1.836   8.010  19.896  0.00  0.00    +0.000 OA
ATOM     19  H   UNL     1       1.480   9.515  17.107  0.00  0.00    +0.000 HD
BRANCH  17  20
ATOM     20  C   UNL     1       3.025   7.644  17.829  0.00  0.00    +0.000 C 
BRANCH  20  21
ATOM     21  C   UNL     1       3.291   6.212  18.216  0.00  0.00    +0.000 A 
ATOM     22  C   UNL     1       2.330   5.221  17.978  0.00  0.00    +0.000 A 
ATOM     23  C   UNL     1       2.603   3.888  18.288  0.00  0.00    +0.000 A 
ATOM     24  C   UNL     1       3.833   3.528  18.851  0.00  0.00    +0.000 A 
ATOM     25  C   UNL     1       4.788   4.519  19.114  0.00  0.00    +0.000 A 
ATOM     26  C   UNL     1       4.508   5.855  18.811  0.00  0.00    +0.000 A 
BRANCH  24  27
ATOM     27  C   UNL     1       4.091   2.081  19.082  0.00  0.00    +0.000 C 
ATOM     28  O   UNL     1       3.475   1.201  18.492  0.00  0.00    +0.000 OA
BRANCH  27  29
ATOM     29  O   UNL     1       5.034   1.814  20.004  0.00  0.00    +0.000 OA
ATOM     30  H   UNL     1       4.743   1.249  20.742  0.00  0.00    +0.000 HD
ENDBRANCH  27  29
ENDBRANCH  24  27
ENDBRANCH  20  21
ENDBRANCH  17  20
ENDBRANCH   1  16
TORSDOF 7
ENDMDL
MODEL 2
REMARK VINA RESULT:      -7.3      3.163      9.111
REMARK  Name = 
REMARK  9 active torsions:
REMARK  status: ('A' for Active; 'I' for Inactive)
REMARK    1  A    between atoms: C_1  and  C_2
REMARK    2  A    between atoms: N_6  and  C_7
REMARK    3  A    between atoms: C_12  and  C_13
REMARK    4  A    between atoms: C_13  and  C_14
REMARK    5  A    between atoms: C_13  and  N_15
REMARK    6  A    between atoms: C_16  and  C_18
REMARK    7  A    between atoms: C_18  and  C_19
REMARK    8  A    between atoms: C_22  and  C_23
REMARK    9  A    between atoms: C_23  and  O_25
REMARK                            x       y       z     vdW  Elec       q    Type
REMARK                         _______ _______ _______ _____ _____    ______ ____
ROOT
ATOM      1  C   UNL     1       2.541   6.565  18.550  0.00  0.00    +0.000 C 
ATOM      2  C   UNL     1       2.968   6.367  20.005  0.00  0.00    +0.000 C 
ENDROOT
BRANCH   1   8
ATOM      3  C   UNL     1       3.750   4.683  17.181  0.00  0.00    +0.000 A 
ATOM      4  C   UNL     1       4.828   4.384  16.304  0.00  0.00    +0.000 A 
ATOM      5  C   UNL     1       5.719   5.341  15.813  0.00  0.00    +0.000 A 
ATOM      6  C   UNL     1       5.544   6.663  16.154  0.00  0.00    +0.000 A 
ATOM      7  C   UNL     1       4.490   7.010  16.993  0.00  0.00    +0.000 A 
ATOM      8  C   UNL     1       3.592   6.052  17.550  0.00  0.00    +0.000 A 
BRANCH   3  14
ATOM      9  C   UNL     1       3.718   2.514  20.377  0.00  0.00    +0.000 C 
ATOM     10  C   UNL     1       2.962   1.788  19.262  0.00  0.00    +0.000 C 
ATOM     11  C   UNL     1       1.441   1.922  19.374  0.00  0.00    +0.000 C 
ATOM     12  C   UNL     1       0.975   3.339  19.051  0.00  0.00    +0.000 C 
ATOM     13  C   UNL     1       1.479   3.781  17.677  0.00  0.00    +0.000 C 
ATOM     14  N   UNL     1       2.941   3.622  17.588  0.00  0.00    +0.000 N 
ATOM     15  C   UNL     1       3.443   2.277  17.895  0.00  0.00    +0.000 C 
ENDBRANCH   3  14
ENDBRANCH   1   8
BRANCH   1  16
ATOM     16  N   UNL     1       2.244   7.992  18.393  0.00  0.00    +0.000 N 
ATOM     17  C   UNL     1       1.505   8.723  19.297  0.00  0.00    +0.000 C 
ATOM     18  O   UNL     1       1.015   8.256  20.322  0.00  0.00    +0.000 OA
ATOM     19  H   UNL     1       2.629   8.447  17.579  0.00  0.00    +0.000 HD
BRANCH  17  20
ATOM     20  C   UNL     1       1.335  10.176  18.897  0.00  0.00    +0.000 C 
BRANCH  20  21
ATOM     21  C   UNL     1      -0.092  10.538  18.569  0.00  0.00    +0.000 A 
ATOM     22  C   UNL     1      -0.797   9.830  17.588  0.00  0.00    +0.000 A 
ATOM     23  C   UNL     1      -2.134  10.132  17.327  0.00  0.00    +0.000 A 
ATOM     24  C   UNL     1      -2.781  11.154  18.033  0.00  0.00    +0.000 A 
ATOM     25  C   UNL     1      -2.073  11.881  18.996  0.00  0.00    +0.000 A 
ATOM     26  C   UNL     1      -0.731  11.582  19.250  0.00  0.00    +0.000 A 
BRANCH  24  27
ATOM     27  C   UNL     1      -4.228  11.371  17.763  0.00  0.00    +0.000 C 
ATOM     28  O   UNL     1      -5.109  10.861  18.446  0.00  0.00    +0.000 OA
BRANCH  27  29
ATOM     29  O   UNL     1      -4.496  12.149  16.698  0.00  0.00    +0.000 OA
ATOM     30  H   UNL     1      -5.426  12.421  16.607  0.00  0.00    +0.000 HD
ENDBRANCH  27  29
ENDBRANCH  24  27
ENDBRANCH  20  21
ENDBRANCH  17  20
ENDBRANCH   1  16
TORSDOF 7
ENDMDL
MODEL 3
REMARK VINA RESULT:      -7.3      6.705     10.010
REMARK  Name = 
REMARK  9 active torsions:
REMARK  status: ('A' for Active; 'I' for Inactive)
REMARK    1  A    between atoms: C_1  and  C_2
REMARK    2  A    between atoms: N_6  and  C_7
REMARK    3  A    between atoms: C_12  and  C_13
REMARK    4  A    between atoms: C_13  and  C_14
REMARK    5  A    between atoms: C_13  and  N_15
REMARK    6  A    between atoms: C_16  and  C_18
REMARK    7  A    between atoms: C_18  and  C_19
REMARK    8  A    between atoms: C_22  and  C_23
REMARK    9  A    between atoms: C_23  and  O_25
REMARK                            x       y       z     vdW  Elec       q    Type
REMARK                         _______ _______ _______ _____ _____    ______ ____
ROOT
ATOM      1  C   UNL     1       7.131   6.190  18.601  0.00  0.00    +0.000 C 
ATOM      2  C   UNL     1       7.870   5.288  19.591  0.00  0.00    +0.000 C 
ENDROOT
BRANCH   1   8
ATOM      3  C   UNL     1       5.382   4.617  17.442  0.00  0.00    +0.000 A 
ATOM      4  C   UNL     1       5.056   3.905  16.256  0.00  0.00    +0.000 A 
ATOM      5  C   UNL     1       5.827   3.939  15.092  0.00  0.00    +0.000 A 
ATOM      6  C   UNL     1       6.953   4.728  15.052  0.00  0.00    +0.000 A 
ATOM      7  C   UNL     1       7.304   5.463  16.180  0.00  0.00    +0.000 A 
ATOM      8  C   UNL     1       6.565   5.413  17.400  0.00  0.00    +0.000 A 
BRANCH   3  14
ATOM      9  C   UNL     1       1.533   4.395  17.686  0.00  0.00    +0.000 C 
ATOM     10  C   UNL     1       2.107   4.796  19.047  0.00  0.00    +0.000 C 
ATOM     11  C   UNL     1       2.207   3.628  20.031  0.00  0.00    +0.000 C 
ATOM     12  C   UNL     1       3.301   2.643  19.627  0.00  0.00    +0.000 C 
ATOM     13  C   UNL     1       4.644   3.355  19.462  0.00  0.00    +0.000 C 
ATOM     14  N   UNL     1       4.515   4.487  18.527  0.00  0.00    +0.000 N 
ATOM     15  C   UNL     1       3.472   5.462  18.867  0.00  0.00    +0.000 C 
ENDBRANCH   3  14
ENDBRANCH   1   8
BRANCH   1  16
ATOM     16  N   UNL     1       8.074   7.244  18.214  0.00  0.00    +0.000 N 
ATOM     17  C   UNL     1       7.689   8.482  17.750  0.00  0.00    +0.000 C 
ATOM     18  O   UNL     1       6.520   8.830  17.606  0.00  0.00    +0.000 OA
ATOM     19  H   UNL     1       9.055   7.033  18.320  0.00  0.00    +0.000 HD
BRANCH  17  20
ATOM     20  C   UNL     1       8.859   9.386  17.410  0.00  0.00    +0.000 C 
BRANCH  20  21
ATOM     21  C   UNL     1       9.028  10.528  18.379  0.00  0.00    +0.000 A 
ATOM     22  C   UNL     1       9.308  10.278  19.729  0.00  0.00    +0.000 A 
ATOM     23  C   UNL     1       9.519  11.338  20.611  0.00  0.00    +0.000 A 
ATOM     24  C   UNL     1       9.438  12.662  20.162  0.00  0.00    +0.000 A 
ATOM     25  C   UNL     1       9.133  12.917  18.820  0.00  0.00    +0.000 A 
ATOM     26  C   UNL     1       8.914  11.852  17.939  0.00  0.00    +0.000 A 
BRANCH  24  27
ATOM     27  C   UNL     1       9.751  13.743  21.135  0.00  0.00    +0.000 C 
ATOM     28  O   UNL     1       9.501  13.644  22.331  0.00  0.00    +0.000 OA
BRANCH  27  29
ATOM     29  O   UNL     1      10.309  14.844  20.600  0.00  0.00    +0.000 OA
ATOM     30  H   UNL     1      10.347  14.858  19.627  0.00  0.00    +0.000 HD
ENDBRANCH  27  29
ENDBRANCH  24  27
ENDBRANCH  20  21
ENDBRANCH  17  20
ENDBRANCH   1  16
TORSDOF 7
ENDMDL
MODEL 4
REMARK VINA RESULT:      -7.3      6.695      9.978
REMARK  Name = 
REMARK  9 active torsions:
REMARK  status: ('A' for Active; 'I' for Inactive)
REMARK    1  A    between atoms: C_1  and  C_2
REMARK    2  A    between atoms: N_6  and  C_7
REMARK    3  A    between atoms: C_12  and  C_13
REMARK    4  A    between atoms: C_13  and  C_14
REMARK    5  A    between atoms: C_13  and  N_15
REMARK    6  A    between atoms: C_16  and  C_18
REMARK    7  A    between atoms: C_18  and  C_19
REMARK    8  A    between atoms: C_22  and  C_23
REMARK    9  A    between atoms: C_23  and  O_25
REMARK                            x       y       z     vdW  Elec       q    Type
REMARK                         _______ _______ _______ _____ _____    ______ ____
ROOT
ATOM      1  C   UNL     1       7.144   6.194  18.597  0.00  0.00    +0.000 C 
ATOM      2  C   UNL     1       7.887   5.296  19.587  0.00  0.00    +0.000 C 
ENDROOT
BRANCH   1   8
ATOM      3  C   UNL     1       5.392   4.619  17.446  0.00  0.00    +0.000 A 
ATOM      4  C   UNL     1       5.064   3.902  16.262  0.00  0.00    +0.000 A 
ATOM      5  C   UNL     1       5.834   3.930  15.098  0.00  0.00    +0.000 A 
ATOM      6  C   UNL     1       6.961   4.719  15.054  0.00  0.00    +0.000 A 
ATOM      7  C   UNL     1       7.314   5.457  16.178  0.00  0.00    +0.000 A 
ATOM      8  C   UNL     1       6.577   5.413  17.399  0.00  0.00    +0.000 A 
BRANCH   3  14
ATOM      9  C   UNL     1       1.545   4.385  17.694  0.00  0.00    +0.000 C 
ATOM     10  C   UNL     1       2.118   4.798  19.051  0.00  0.00    +0.000 C 
ATOM     11  C   UNL     1       2.222   3.637  20.044  0.00  0.00    +0.000 C 
ATOM     12  C   UNL     1       3.319   2.653  19.647  0.00  0.00    +0.000 C 
ATOM     13  C   UNL     1       4.660   3.369  19.475  0.00  0.00    +0.000 C 
ATOM     14  N   UNL     1       4.527   4.494  18.532  0.00  0.00    +0.000 N 
ATOM     15  C   UNL     1       3.481   5.467  18.866  0.00  0.00    +0.000 C 
ENDBRANCH   3  14
ENDBRANCH   1   8
BRANCH   1  16
ATOM     16  N   UNL     1       8.086   7.248  18.204  0.00  0.00    +0.000 N 
ATOM     17  C   UNL     1       7.698   8.494  17.763  0.00  0.00    +0.000 C 
ATOM     18  O   UNL     1       6.529   8.849  17.648  0.00  0.00    +0.000 OA
ATOM     19  H   UNL     1       9.067   7.030  18.288  0.00  0.00    +0.000 HD
BRANCH  17  20
ATOM     20  C   UNL     1       8.866   9.396  17.411  0.00  0.00    +0.000 C 
BRANCH  20  21
ATOM     21  C   UNL     1       9.048  10.536  18.380  0.00  0.00    +0.000 A 
ATOM     22  C   UNL     1       8.901  11.862  17.952  0.00  0.00    +0.000 A 
ATOM     23  C   UNL     1       9.015  12.912  18.864  0.00  0.00    +0.000 A 
ATOM     24  C   UNL     1       9.292  12.653  20.213  0.00  0.00    +0.000 A 
ATOM     25  C   UNL     1       9.466  11.331  20.640  0.00  0.00    +0.000 A 
ATOM     26  C   UNL     1       9.359  10.282  19.722  0.00  0.00    +0.000 A 
BRANCH  24  27
ATOM     27  C   UNL     1       9.322  13.811  21.146  0.00  0.00    +0.000 C 
ATOM     28  O   UNL     1      10.369  14.291  21.567  0.00  0.00    +0.000 OA
BRANCH  27  29
ATOM     29  O   UNL     1       8.113  14.277  21.511  0.00  0.00    +0.000 OA
ATOM     30  H   UNL     1       7.924  14.236  22.465  0.00  0.00    +0.000 HD
ENDBRANCH  27  29
ENDBRANCH  24  27
ENDBRANCH  20  21
ENDBRANCH  17  20
ENDBRANCH   1  16
TORSDOF 7
ENDMDL
MODEL 5
REMARK VINA RESULT:      -7.2      0.764      1.162
REMARK  Name = 
REMARK  9 active torsions:
REMARK  status: ('A' for Active; 'I' for Inactive)
REMARK    1  A    between atoms: C_1  and  C_2
REMARK    2  A    between atoms: N_6  and  C_7
REMARK    3  A    between atoms: C_12  and  C_13
REMARK    4  A    between atoms: C_13  and  C_14
REMARK    5  A    between atoms: C_13  and  N_15
REMARK    6  A    between atoms: C_16  and  C_18
REMARK    7  A    between atoms: C_18  and  C_19
REMARK    8  A    between atoms: C_22  and  C_23
REMARK    9  A    between atoms: C_23  and  O_25
REMARK                            x       y       z     vdW  Elec       q    Type
REMARK                         _______ _______ _______ _____ _____    ______ ____
ROOT
ATOM      1  C   UNL     1      -0.126  10.612  18.785  0.00  0.00    +0.000 C 
ATOM      2  C   UNL     1      -1.405  10.491  17.954  0.00  0.00    +0.000 C 
ENDROOT
BRANCH   1   8
ATOM      3  C   UNL     1      -0.498  12.882  20.044  0.00  0.00    +0.000 A 
ATOM      4  C   UNL     1      -0.076  14.234  20.166  0.00  0.00    +0.000 A 
ATOM      5  C   UNL     1       0.976  14.789  19.435  0.00  0.00    +0.000 A 
ATOM      6  C   UNL     1       1.686  13.993  18.565  0.00  0.00    +0.000 A 
ATOM      7  C   UNL     1       1.326  12.657  18.425  0.00  0.00    +0.000 A 
ATOM      8  C   UNL     1       0.227  12.072  19.120  0.00  0.00    +0.000 A 
BRANCH   3  14
ATOM      9  C   UNL     1      -1.537  13.758  23.660  0.00  0.00    +0.000 C 
ATOM     10  C   UNL     1      -2.216  12.454  23.238  0.00  0.00    +0.000 C 
ATOM     11  C   UNL     1      -3.672  12.640  22.806  0.00  0.00    +0.000 C 
ATOM     12  C   UNL     1      -3.775  13.369  21.469  0.00  0.00    +0.000 C 
ATOM     13  C   UNL     1      -2.957  12.655  20.392  0.00  0.00    +0.000 C 
ATOM     14  N   UNL     1      -1.565  12.469  20.841  0.00  0.00    +0.000 N 
ATOM     15  C   UNL     1      -1.411  11.777  22.126  0.00  0.00    +0.000 C 
ENDBRANCH   3  14
ENDBRANCH   1   8
BRANCH   1  16
ATOM     16  N   UNL     1       0.926   9.923  18.032  0.00  0.00    +0.000 N 
ATOM     17  C   UNL     1       1.706   8.916  18.555  0.00  0.00    +0.000 C 
ATOM     18  O   UNL     1       1.607   8.495  19.704  0.00  0.00    +0.000 OA
ATOM     19  H   UNL     1       1.055  10.208  17.072  0.00  0.00    +0.000 HD
BRANCH  17  20
ATOM     20  C   UNL     1       2.729   8.376  17.572  0.00  0.00    +0.000 C 
BRANCH  20  21
ATOM     21  C   UNL     1       3.034   6.914  17.777  0.00  0.00    +0.000 A 
ATOM     22  C   UNL     1       4.350   6.444  17.686  0.00  0.00    +0.000 A 
ATOM     23  C   UNL     1       4.635   5.100  17.931  0.00  0.00    +0.000 A 
ATOM     24  C   UNL     1       3.608   4.204  18.256  0.00  0.00    +0.000 A 
ATOM     25  C   UNL     1       2.288   4.665  18.322  0.00  0.00    +0.000 A 
ATOM     26  C   UNL     1       2.004   6.011  18.068  0.00  0.00    +0.000 A 
BRANCH  24  27
ATOM     27  C   UNL     1       3.990   2.804  18.583  0.00  0.00    +0.000 C 
ATOM     28  O   UNL     1       3.466   1.836  18.042  0.00  0.00    +0.000 OA
BRANCH  27  29
ATOM     29  O   UNL     1       4.936   2.681  19.531  0.00  0.00    +0.000 OA
ATOM     30  H   UNL     1       4.641   2.264  20.359  0.00  0.00    +0.000 HD
ENDBRANCH  27  29
ENDBRANCH  24  27
ENDBRANCH  20  21
ENDBRANCH  17  20
ENDBRANCH   1  16
TORSDOF 7
ENDMDL
MODEL 6
REMARK VINA RESULT:      -7.1      0.815      1.441
REMARK  Name = 
REMARK  9 active torsions:
REMARK  status: ('A' for Active; 'I' for Inactive)
REMARK    1  A    between atoms: C_1  and  C_2
REMARK    2  A    between atoms: N_6  and  C_7
REMARK    3  A    between atoms: C_12  and  C_13
REMARK    4  A    between atoms: C_13  and  C_14
REMARK    5  A    between atoms: C_13  and  N_15
REMARK    6  A    between atoms: C_16  and  C_18
REMARK    7  A    between atoms: C_18  and  C_19
REMARK    8  A    between atoms: C_22  and  C_23
REMARK    9  A    between atoms: C_23  and  O_25
REMARK                            x       y       z     vdW  Elec       q    Type
REMARK                         _______ _______ _______ _____ _____    ______ ____
ROOT
ATOM      1  C   UNL     1       0.726  10.415  19.000  0.00  0.00    +0.000 C 
ATOM      2  C   UNL     1      -0.638  10.513  18.315  0.00  0.00    +0.000 C 
ENDROOT
BRANCH   1   8
ATOM      3  C   UNL     1       1.198  12.629  20.325  0.00  0.00    +0.000 A 
ATOM      4  C   UNL     1       1.834  13.900  20.288  0.00  0.00    +0.000 A 
ATOM      5  C   UNL     1       2.607  14.352  19.216  0.00  0.00    +0.000 A 
ATOM      6  C   UNL     1       2.810  13.525  18.136  0.00  0.00    +0.000 A 
ATOM      7  C   UNL     1       2.228  12.262  18.132  0.00  0.00    +0.000 A 
ATOM      8  C   UNL     1       1.394  11.789  19.188  0.00  0.00    +0.000 A 
BRANCH   3  14
ATOM      9  C   UNL     1      -2.595  12.657  21.052  0.00  0.00    +0.000 C 
ATOM     10  C   UNL     1      -1.823  12.679  22.373  0.00  0.00    +0.000 C 
ATOM     11  C   UNL     1      -1.735  11.307  23.047  0.00  0.00    +0.000 C 
ATOM     12  C   UNL     1      -0.810  10.363  22.283  0.00  0.00    +0.000 C 
ATOM     13  C   UNL     1       0.573  10.987  22.093  0.00  0.00    +0.000 C 
ATOM     14  N   UNL     1       0.458  12.314  21.464  0.00  0.00    +0.000 N 
ATOM     15  C   UNL     1      -0.425  13.259  22.157  0.00  0.00    +0.000 C 
ENDBRANCH   3  14
ENDBRANCH   1   8
BRANCH   1  16
ATOM     16  N   UNL     1       1.529   9.488  18.198  0.00  0.00    +0.000 N 
ATOM     17  C   UNL     1       2.075   8.323  18.693  0.00  0.00    +0.000 C 
ATOM     18  O   UNL     1       1.950   7.945  19.855  0.00  0.00    +0.000 OA
ATOM     19  H   UNL     1       1.661   9.728  17.227  0.00  0.00    +0.000 HD
BRANCH  17  20
ATOM     20  C   UNL     1       2.871   7.547  17.661  0.00  0.00    +0.000 C 
BRANCH  20  21
ATOM     21  C   UNL     1       3.188   6.138  18.093  0.00  0.00    +0.000 A 
ATOM     22  C   UNL     1       2.228   5.125  17.971  0.00  0.00    +0.000 A 
ATOM     23  C   UNL     1       2.545   3.812  18.321  0.00  0.00    +0.000 A 
ATOM     24  C   UNL     1       3.818   3.495  18.810  0.00  0.00    +0.000 A 
ATOM     25  C   UNL     1       4.772   4.509  18.958  0.00  0.00    +0.000 A 
ATOM     26  C   UNL     1       4.449   5.826  18.615  0.00  0.00    +0.000 A 
BRANCH  24  27
ATOM     27  C   UNL     1       4.115   2.064  19.089  0.00  0.00    +0.000 C 
ATOM     28  O   UNL     1       3.544   1.148  18.508  0.00  0.00    +0.000 OA
BRANCH  27  29
ATOM     29  O   UNL     1       5.041   1.852  20.041  0.00  0.00    +0.000 OA
ATOM     30  H   UNL     1       5.962   2.011  19.767  0.00  0.00    +0.000 HD
ENDBRANCH  27  29
ENDBRANCH  24  27
ENDBRANCH  20  21
ENDBRANCH  17  20
ENDBRANCH   1  16
TORSDOF 7
ENDMDL
MODEL 7
REMARK VINA RESULT:      -7.1      2.257      3.564
REMARK  Name = 
REMARK  9 active torsions:
REMARK  status: ('A' for Active; 'I' for Inactive)
REMARK    1  A    between atoms: C_1  and  C_2
REMARK    2  A    between atoms: N_6  and  C_7
REMARK    3  A    between atoms: C_12  and  C_13
REMARK    4  A    between atoms: C_13  and  C_14
REMARK    5  A    between atoms: C_13  and  N_15
REMARK    6  A    between atoms: C_16  and  C_18
REMARK    7  A    between atoms: C_18  and  C_19
REMARK    8  A    between atoms: C_22  and  C_23
REMARK    9  A    between atoms: C_23  and  O_25
REMARK                            x       y       z     vdW  Elec       q    Type
REMARK                         _______ _______ _______ _____ _____    ______ ____
ROOT
ATOM      1  C   UNL     1       0.990   9.821  20.161  0.00  0.00    +0.000 C 
ATOM      2  C   UNL     1       0.671   9.471  21.615  0.00  0.00    +0.000 C 
ENDROOT
BRANCH   1   8
ATOM      3  C   UNL     1      -0.393  11.988  19.641  0.00  0.00    +0.000 A 
ATOM      4  C   UNL     1      -1.543  12.513  18.991  0.00  0.00    +0.000 A 
ATOM      5  C   UNL     1      -2.425  11.743  18.230  0.00  0.00    +0.000 A 
ATOM      6  C   UNL     1      -2.170  10.402  18.053  0.00  0.00    +0.000 A 
ATOM      7  C   UNL     1      -1.045   9.844  18.650  0.00  0.00    +0.000 A 
ATOM      8  C   UNL     1      -0.151  10.592  19.474  0.00  0.00    +0.000 A 
BRANCH   3  14
ATOM      9  C   UNL     1       0.762  15.606  18.941  0.00  0.00    +0.000 C 
ATOM     10  C   UNL     1       1.670  14.979  20.001  0.00  0.00    +0.000 C 
ATOM     11  C   UNL     1       1.316  15.400  21.429  0.00  0.00    +0.000 C 
ATOM     12  C   UNL     1      -0.000  14.779  21.890  0.00  0.00    +0.000 C 
ATOM     13  C   UNL     1       0.032  13.258  21.745  0.00  0.00    +0.000 C 
ATOM     14  N   UNL     1       0.397  12.879  20.367  0.00  0.00    +0.000 N 
ATOM     15  C   UNL     1       1.653  13.454  19.874  0.00  0.00    +0.000 C 
ENDBRANCH   3  14
ENDBRANCH   1   8
BRANCH   1  16
ATOM     16  N   UNL     1       1.318   8.558  19.491  0.00  0.00    +0.000 N 
ATOM     17  C   UNL     1       2.012   8.480  18.304  0.00  0.00    +0.000 C 
ATOM     18  O   UNL     1       2.422   9.456  17.681  0.00  0.00    +0.000 OA
ATOM     19  H   UNL     1       1.024   7.712  19.955  0.00  0.00    +0.000 HD
BRANCH  17  20
ATOM     20  C   UNL     1       2.212   7.057  17.819  0.00  0.00    +0.000 C 
BRANCH  20  21
ATOM     21  C   UNL     1       3.628   6.567  17.984  0.00  0.00    +0.000 A 
ATOM     22  C   UNL     1       3.962   5.697  19.029  0.00  0.00    +0.000 A 
ATOM     23  C   UNL     1       5.262   5.204  19.146  0.00  0.00    +0.000 A 
ATOM     24  C   UNL     1       6.250   5.582  18.228  0.00  0.00    +0.000 A 
ATOM     25  C   UNL     1       5.927   6.472  17.196  0.00  0.00    +0.000 A 
ATOM     26  C   UNL     1       4.625   6.972  17.087  0.00  0.00    +0.000 A 
BRANCH  24  27
ATOM     27  C   UNL     1       7.593   4.958  18.361  0.00  0.00    +0.000 C 
ATOM     28  O   UNL     1       8.302   5.125  19.348  0.00  0.00    +0.000 OA
BRANCH  27  29
ATOM     29  O   UNL     1       7.981   4.216  17.308  0.00  0.00    +0.000 OA
ATOM     30  H   UNL     1       7.320   3.580  16.984  0.00  0.00    +0.000 HD
ENDBRANCH  27  29
ENDBRANCH  24  27
ENDBRANCH  20  21
ENDBRANCH  17  20
ENDBRANCH   1  16
TORSDOF 7
ENDMDL
MODEL 8
REMARK VINA RESULT:      -7.1      0.863      1.817
REMARK  Name = 
REMARK  9 active torsions:
REMARK  status: ('A' for Active; 'I' for Inactive)
REMARK    1  A    between atoms: C_1  and  C_2
REMARK    2  A    between atoms: N_6  and  C_7
REMARK    3  A    between atoms: C_12  and  C_13
REMARK    4  A    between atoms: C_13  and  C_14
REMARK    5  A    between atoms: C_13  and  N_15
REMARK    6  A    between atoms: C_16  and  C_18
REMARK    7  A    between atoms: C_18  and  C_19
REMARK    8  A    between atoms: C_22  and  C_23
REMARK    9  A    between atoms: C_23  and  O_25
REMARK                            x       y       z     vdW  Elec       q    Type
REMARK                         _______ _______ _______ _____ _____    ______ ____
ROOT
ATOM      1  C   UNL     1       0.770  10.332  18.954  0.00  0.00    +0.000 C 
ATOM      2  C   UNL     1      -0.616  10.398  18.311  0.00  0.00    +0.000 C 
ENDROOT
BRANCH   1   8
ATOM      3  C   UNL     1       1.225  12.558  20.264  0.00  0.00    +0.000 A 
ATOM      4  C   UNL     1       1.830  13.843  20.210  0.00  0.00    +0.000 A 
ATOM      5  C   UNL     1       2.565  14.312  19.119  0.00  0.00    +0.000 A 
ATOM      6  C   UNL     1       2.760  13.487  18.034  0.00  0.00    +0.000 A 
ATOM      7  C   UNL     1       2.207  12.212  18.046  0.00  0.00    +0.000 A 
ATOM      8  C   UNL     1       1.411  11.721  19.124  0.00  0.00    +0.000 A 
BRANCH   3  14
ATOM      9  C   UNL     1      -2.539  12.633  21.130  0.00  0.00    +0.000 C 
ATOM     10  C   UNL     1      -1.720  12.609  22.422  0.00  0.00    +0.000 C 
ATOM     11  C   UNL     1      -1.632  11.220  23.059  0.00  0.00    +0.000 C 
ATOM     12  C   UNL     1      -0.752  10.279  22.239  0.00  0.00    +0.000 C 
ATOM     13  C   UNL     1       0.634  10.884  22.014  0.00  0.00    +0.000 C 
ATOM     14  N   UNL     1       0.521  12.228  21.421  0.00  0.00    +0.000 N 
ATOM     15  C   UNL     1      -0.320  13.171  22.169  0.00  0.00    +0.000 C 
ENDBRANCH   3  14
ENDBRANCH   1   8
BRANCH   1  16
ATOM     16  N   UNL     1       1.570   9.425  18.126  0.00  0.00    +0.000 N 
ATOM     17  C   UNL     1       2.169   8.280  18.604  0.00  0.00    +0.000 C 
ATOM     18  O   UNL     1       2.100   7.905  19.771  0.00  0.00    +0.000 OA
ATOM     19  H   UNL     1       1.658   9.664  17.149  0.00  0.00    +0.000 HD
BRANCH  17  20
ATOM     20  C   UNL     1       2.949   7.523  17.545  0.00  0.00    +0.000 C 
BRANCH  20  21
ATOM     21  C   UNL     1       3.290   6.113  17.955  0.00  0.00    +0.000 A 
ATOM     22  C   UNL     1       4.601   5.775  18.313  0.00  0.00    +0.000 A 
ATOM     23  C   UNL     1       4.900   4.482  18.745  0.00  0.00    +0.000 A 
ATOM     24  C   UNL     1       3.898   3.506  18.811  0.00  0.00    +0.000 A 
ATOM     25  C   UNL     1       2.591   3.832  18.430  0.00  0.00    +0.000 A 
ATOM     26  C   UNL     1       2.296   5.127  17.989  0.00  0.00    +0.000 A 
BRANCH  24  27
ATOM     27  C   UNL     1       4.268   2.171  19.355  0.00  0.00    +0.000 C 
ATOM     28  O   UNL     1       4.766   2.028  20.466  0.00  0.00    +0.000 OA
BRANCH  27  29
ATOM     29  O   UNL     1       4.035   1.137  18.526  0.00  0.00    +0.000 OA
ATOM     30  H   UNL     1       4.702   1.005  17.830  0.00  0.00    +0.000 HD
ENDBRANCH  27  29
ENDBRANCH  24  27
ENDBRANCH  20  21
ENDBRANCH  17  20
ENDBRANCH   1  16
TORSDOF 7
ENDMDL
MODEL 9
REMARK VINA RESULT:      -7.1      3.369      9.630
REMARK  Name = 
REMARK  9 active torsions:
REMARK  status: ('A' for Active; 'I' for Inactive)
REMARK    1  A    between atoms: C_1  and  C_2
REMARK    2  A    between atoms: N_6  and  C_7
REMARK    3  A    between atoms: C_12  and  C_13
REMARK    4  A    between atoms: C_13  and  C_14
REMARK    5  A    between atoms: C_13  and  N_15
REMARK    6  A    between atoms: C_16  and  C_18
REMARK    7  A    between atoms: C_18  and  C_19
REMARK    8  A    between atoms: C_22  and  C_23
REMARK    9  A    between atoms: C_23  and  O_25
REMARK                            x       y       z     vdW  Elec       q    Type
REMARK                         _______ _______ _______ _____ _____    ______ ____
ROOT
ATOM      1  C   UNL     1       2.688   7.467  18.786  0.00  0.00    +0.000 C 
ATOM      2  C   UNL     1       2.194   7.471  17.338  0.00  0.00    +0.000 C 
ENDROOT
BRANCH   1   8
ATOM      3  C   UNL     1       3.862   5.123  18.753  0.00  0.00    +0.000 A 
ATOM      4  C   UNL     1       3.900   3.826  19.335  0.00  0.00    +0.000 A 
ATOM      5  C   UNL     1       3.087   3.427  20.398  0.00  0.00    +0.000 A 
ATOM      6  C   UNL     1       2.216   4.334  20.958  0.00  0.00    +0.000 A 
ATOM      7  C   UNL     1       2.156   5.623  20.439  0.00  0.00    +0.000 A 
ATOM      8  C   UNL     1       2.937   6.047  19.323  0.00  0.00    +0.000 A 
BRANCH   3  14
ATOM      9  C   UNL     1       7.714   5.060  18.486  0.00  0.00    +0.000 C 
ATOM     10  C   UNL     1       7.138   5.882  17.332  0.00  0.00    +0.000 C 
ATOM     11  C   UNL     1       7.064   5.108  16.014  0.00  0.00    +0.000 C 
ATOM     12  C   UNL     1       5.988   4.026  16.055  0.00  0.00    +0.000 C 
ATOM     13  C   UNL     1       4.631   4.619  16.435  0.00  0.00    +0.000 C 
ATOM     14  N   UNL     1       4.734   5.377  17.696  0.00  0.00    +0.000 N 
ATOM     15  C   UNL     1       5.759   6.427  17.710  0.00  0.00    +0.000 C 
ENDBRANCH   3  14
ENDBRANCH   1   8
BRANCH   1  16
ATOM     16  N   UNL     1       1.696   8.214  19.565  0.00  0.00    +0.000 N 
ATOM     17  C   UNL     1       1.384   9.537  19.340  0.00  0.00    +0.000 C 
ATOM     18  O   UNL     1       1.906  10.228  18.470  0.00  0.00    +0.000 OA
ATOM     19  H   UNL     1       1.214   7.703  20.290  0.00  0.00    +0.000 HD
BRANCH  17  20
ATOM     20  C   UNL     1       0.332  10.075  20.291  0.00  0.00    +0.000 C 
BRANCH  20  21
ATOM     21  C   UNL     1      -0.897  10.591  19.586  0.00  0.00    +0.000 A 
ATOM     22  C   UNL     1      -1.422   9.907  18.482  0.00  0.00    +0.000 A 
ATOM     23  C   UNL     1      -2.591  10.357  17.867  0.00  0.00    +0.000 A 
ATOM     24  C   UNL     1      -3.244  11.504  18.337  0.00  0.00    +0.000 A 
ATOM     25  C   UNL     1      -2.708  12.206  19.424  0.00  0.00    +0.000 A 
ATOM     26  C   UNL     1      -1.531  11.757  20.033  0.00  0.00    +0.000 A 
BRANCH  24  27
ATOM     27  C   UNL     1      -4.527  11.884  17.687  0.00  0.00    +0.000 C 
ATOM     28  O   UNL     1      -4.885  11.415  16.613  0.00  0.00    +0.000 OA
BRANCH  27  29
ATOM     29  O   UNL     1      -5.253  12.797  18.358  0.00  0.00    +0.000 OA
ATOM     30  H   UNL     1      -5.513  13.580  17.841  0.00  0.00    +0.000 HD
ENDBRANCH  27  29
ENDBRANCH  24  27
ENDBRANCH  20  21
ENDBRANCH  17  20
ENDBRANCH   1  16
TORSDOF 7
ENDMDL
