MODEL 1
REMARK VINA RESULT:      -8.9      0.000      0.000
REMARK  Name = 
REMARK  5 active torsions:
REMARK  status: ('A' for Active; 'I' for Inactive)
REMARK    1  A    between atoms: C_1  and  O_2
REMARK    2  A    between atoms: O_2  and  C_3
REMARK    3  A    between atoms: C_6  and  C_7
REMARK    4  A    between atoms: C_15  and  C_16
REMARK    5  A    between atoms: N_18  and  C_19
REMARK                            x       y       z     vdW  Elec       q    Type
REMARK                         _______ _______ _______ _____ _____    ______ ____
ROOT
ATOM      1  C   UNL     1       2.803   6.929  18.479  0.00  0.00    +0.000 A 
ATOM      2  N   UNL     1       2.286   6.459  19.625  0.00  0.00    +0.000 NA
ATOM      3  O   UNL     1       1.568   7.536  20.124  0.00  0.00    +0.000 OA
ATOM      4  C   UNL     1       1.709   8.566  19.232  0.00  0.00    +0.000 A 
ATOM      5  N   UNL     1       1.169   9.764  19.553  0.00  0.00    +0.000 N 
ATOM      6  C   UNL     1       1.199  10.847  18.584  0.00  0.00    +0.000 C 
ATOM      7  C   UNL     1       1.483  12.141  19.343  0.00  0.00    +0.000 C 
ATOM      8  C   UNL     1       0.465  12.380  20.463  0.00  0.00    +0.000 C 
ATOM      9  C   UNL     1       0.302  11.160  21.383  0.00  0.00    +0.000 C 
ATOM     10  C   UNL     1       0.125   9.863  20.568  0.00  0.00    +0.000 C 
ATOM     11  N   UNL     1       2.443   8.231  18.197  0.00  0.00    +0.000 NA
ENDROOT
BRANCH   1  15
ATOM     12  C   UNL     1       5.529   4.652  16.094  0.00  0.00    +0.000 A 
ATOM     13  C   UNL     1       4.492   4.021  16.779  0.00  0.00    +0.000 A 
ATOM     14  C   UNL     1       3.584   4.767  17.534  0.00  0.00    +0.000 A 
ATOM     15  C   UNL     1       3.713   6.160  17.636  0.00  0.00    +0.000 A 
ATOM     16  C   UNL     1       4.759   6.787  16.946  0.00  0.00    +0.000 A 
ATOM     17  C   UNL     1       5.664   6.039  16.180  0.00  0.00    +0.000 A 
BRANCH  12  19
ATOM     18  C   UNL     1       6.379   3.949  14.003  0.00  0.00    +0.000 C 
ATOM     19  O   UNL     1       6.370   3.812  15.418  0.00  0.00    +0.000 OA
ENDBRANCH  12  19
ENDBRANCH   1  15
BRANCH   9  20
ATOM     20  C   UNL     1      -0.901  11.292  22.312  0.00  0.00    +0.000 C 
ATOM     21  O   UNL     1      -0.929  10.696  23.389  0.00  0.00    +0.000 OA
ATOM     22  N   UNL     1      -1.913  12.113  21.849  0.00  0.00    +0.000 N 
ATOM     23  H   UNL     1      -1.885  12.432  20.888  0.00  0.00    +0.000 HD
BRANCH  22  24
ATOM     24  C   UNL     1      -3.111  12.412  22.552  0.00  0.00    +0.000 A 
ATOM     25  C   UNL     1      -3.197  12.438  23.947  0.00  0.00    +0.000 A 
ATOM     26  C   UNL     1      -4.416  12.702  24.578  0.00  0.00    +0.000 A 
ATOM     27  C   UNL     1      -5.547  12.949  23.810  0.00  0.00    +0.000 A 
ATOM     28  F   UNL     1      -6.716  13.189  24.422  0.00  0.00    +0.000 F 
ATOM     29  C   UNL     1      -5.485  12.954  22.425  0.00  0.00    +0.000 A 
ATOM     30  C   UNL     1      -4.264  12.694  21.807  0.00  0.00    +0.000 A 
ATOM     31  F   UNL     1      -4.207  12.681  20.465  0.00  0.00    +0.000 F 
ENDBRANCH  22  24
ENDBRANCH   9  20
TORSDOF 4
ENDMDL
MODEL 2
REMARK VINA RESULT:      -8.5      0.948      1.015
REMARK  Name = 
REMARK  5 active torsions:
REMARK  status: ('A' for Active; 'I' for Inactive)
REMARK    1  A    between atoms: C_1  and  O_2
REMARK    2  A    between atoms: O_2  and  C_3
REMARK    3  A    between atoms: C_6  and  C_7
REMARK    4  A    between atoms: C_15  and  C_16
REMARK    5  A    between atoms: N_18  and  C_19
REMARK                            x       y       z     vdW  Elec       q    Type
REMARK                         _______ _______ _______ _____ _____    ______ ____
ROOT
ATOM      1  C   UNL     1       2.248   7.545  18.947  0.00  0.00    +0.000 A 
ATOM      2  N   UNL     1       1.764   7.281  20.170  0.00  0.00    +0.000 NA
ATOM      3  O   UNL     1       1.166   8.474  20.548  0.00  0.00    +0.000 OA
ATOM      4  C   UNL     1       1.337   9.358  19.517  0.00  0.00    +0.000 A 
ATOM      5  N   UNL     1       0.916  10.632  19.694  0.00  0.00    +0.000 N 
ATOM      6  C   UNL     1       0.975  11.568  18.583  0.00  0.00    +0.000 C 
ATOM      7  C   UNL     1       1.408  12.922  19.141  0.00  0.00    +0.000 C 
ATOM      8  C   UNL     1       0.482  13.399  20.264  0.00  0.00    +0.000 C 
ATOM      9  C   UNL     1       0.276  12.333  21.352  0.00  0.00    +0.000 C 
ATOM     10  C   UNL     1      -0.054  10.958  20.734  0.00  0.00    +0.000 C 
ATOM     11  N   UNL     1       1.977   8.823  18.504  0.00  0.00    +0.000 NA
ENDROOT
BRANCH   1  15
ATOM     12  C   UNL     1       4.626   4.728  16.775  0.00  0.00    +0.000 A 
ATOM     13  C   UNL     1       3.513   4.304  17.500  0.00  0.00    +0.000 A 
ATOM     14  C   UNL     1       2.720   5.226  18.185  0.00  0.00    +0.000 A 
ATOM     15  C   UNL     1       3.040   6.592  18.176  0.00  0.00    +0.000 A 
ATOM     16  C   UNL     1       4.160   7.011  17.446  0.00  0.00    +0.000 A 
ATOM     17  C   UNL     1       4.950   6.085  16.750  0.00  0.00    +0.000 A 
BRANCH  12  19
ATOM     18  C   UNL     1       6.351   4.146  15.267  0.00  0.00    +0.000 C 
ATOM     19  O   UNL     1       5.340   3.728  16.176  0.00  0.00    +0.000 OA
ENDBRANCH  12  19
ENDBRANCH   1  15
BRANCH   9  20
ATOM     20  C   UNL     1      -0.855  12.694  22.310  0.00  0.00    +0.000 C 
ATOM     21  O   UNL     1      -0.630  13.367  23.317  0.00  0.00    +0.000 OA
ATOM     22  N   UNL     1      -2.102  12.217  21.953  0.00  0.00    +0.000 N 
ATOM     23  H   UNL     1      -2.172  11.538  21.204  0.00  0.00    +0.000 HD
BRANCH  22  24
ATOM     24  C   UNL     1      -3.306  12.453  22.671  0.00  0.00    +0.000 A 
ATOM     25  C   UNL     1      -3.449  12.188  24.036  0.00  0.00    +0.000 A 
ATOM     26  C   UNL     1      -4.673  12.406  24.675  0.00  0.00    +0.000 A 
ATOM     27  C   UNL     1      -5.749  12.899  23.949  0.00  0.00    +0.000 A 
ATOM     28  F   UNL     1      -6.923  13.094  24.567  0.00  0.00    +0.000 F 
ATOM     29  C   UNL     1      -5.627  13.194  22.600  0.00  0.00    +0.000 A 
ATOM     30  C   UNL     1      -4.402  12.977  21.973  0.00  0.00    +0.000 A 
ATOM     31  F   UNL     1      -4.288  13.246  20.663  0.00  0.00    +0.000 F 
ENDBRANCH  22  24
ENDBRANCH   9  20
TORSDOF 4
ENDMDL
MODEL 3
REMARK VINA RESULT:      -8.4      1.173      1.619
REMARK  Name = 
REMARK  5 active torsions:
REMARK  status: ('A' for Active; 'I' for Inactive)
REMARK    1  A    between atoms: C_1  and  O_2
REMARK    2  A    between atoms: O_2  and  C_3
REMARK    3  A    between atoms: C_6  and  C_7
REMARK    4  A    between atoms: C_15  and  C_16
REMARK    5  A    between atoms: N_18  and  C_19
REMARK                            x       y       z     vdW  Elec       q    Type
REMARK                         _______ _______ _______ _____ _____    ______ ____
ROOT
ATOM      1  C   UNL     1       2.850   6.910  18.496  0.00  0.00    +0.000 A 
ATOM      2  N   UNL     1       2.352   6.587  19.700  0.00  0.00    +0.000 NA
ATOM      3  O   UNL     1       1.702   7.743  20.104  0.00  0.00    +0.000 OA
ATOM      4  C   UNL     1       1.859   8.667  19.106  0.00  0.00    +0.000 A 
ATOM      5  N   UNL     1       1.385   9.918  19.316  0.00  0.00    +0.000 N 
ATOM      6  C   UNL     1       1.430  10.892  18.238  0.00  0.00    +0.000 C 
ATOM      7  C   UNL     1       1.800  12.242  18.849  0.00  0.00    +0.000 C 
ATOM      8  C   UNL     1       0.834  12.645  19.968  0.00  0.00    +0.000 C 
ATOM      9  C   UNL     1       0.649  11.536  21.015  0.00  0.00    +0.000 C 
ATOM     10  C   UNL     1       0.384  10.171  20.347  0.00  0.00    +0.000 C 
ATOM     11  N   UNL     1       2.539   8.191  18.089  0.00  0.00    +0.000 NA
ENDROOT
BRANCH   1  15
ATOM     12  C   UNL     1       5.254   4.296  16.110  0.00  0.00    +0.000 A 
ATOM     13  C   UNL     1       5.427   5.678  16.039  0.00  0.00    +0.000 A 
ATOM     14  C   UNL     1       4.663   6.530  16.839  0.00  0.00    +0.000 A 
ATOM     15  C   UNL     1       3.693   6.014  17.710  0.00  0.00    +0.000 A 
ATOM     16  C   UNL     1       3.523   4.625  17.776  0.00  0.00    +0.000 A 
ATOM     17  C   UNL     1       4.298   3.769  16.980  0.00  0.00    +0.000 A 
BRANCH  12  19
ATOM     18  C   UNL     1       6.331   4.186  14.008  0.00  0.00    +0.000 C 
ATOM     19  O   UNL     1       6.037   3.571  15.255  0.00  0.00    +0.000 OA
ENDBRANCH  12  19
ENDBRANCH   1  15
BRANCH   9  20
ATOM     20  C   UNL     1      -0.514  11.822  21.961  0.00  0.00    +0.000 C 
ATOM     21  O   UNL     1      -0.566  11.285  23.068  0.00  0.00    +0.000 OA
ATOM     22  N   UNL     1      -1.460  12.706  21.478  0.00  0.00    +0.000 N 
ATOM     23  H   UNL     1      -1.429  12.973  20.501  0.00  0.00    +0.000 HD
BRANCH  22  24
ATOM     24  C   UNL     1      -2.609  13.147  22.189  0.00  0.00    +0.000 A 
ATOM     25  C   UNL     1      -3.880  12.593  22.012  0.00  0.00    +0.000 A 
ATOM     26  C   UNL     1      -4.978  13.098  22.715  0.00  0.00    +0.000 A 
ATOM     27  C   UNL     1      -4.799  14.150  23.604  0.00  0.00    +0.000 A 
ATOM     28  F   UNL     1      -5.859  14.637  24.266  0.00  0.00    +0.000 F 
ATOM     29  C   UNL     1      -3.545  14.701  23.817  0.00  0.00    +0.000 A 
ATOM     30  C   UNL     1      -2.457  14.188  23.114  0.00  0.00    +0.000 A 
ATOM     31  F   UNL     1      -1.245  14.733  23.308  0.00  0.00    +0.000 F 
ENDBRANCH  22  24
ENDBRANCH   9  20
TORSDOF 4
ENDMDL
MODEL 4
REMARK VINA RESULT:      -8.3      4.592     11.488
REMARK  Name = 
REMARK  5 active torsions:
REMARK  status: ('A' for Active; 'I' for Inactive)
REMARK    1  A    between atoms: C_1  and  O_2
REMARK    2  A    between atoms: O_2  and  C_3
REMARK    3  A    between atoms: C_6  and  C_7
REMARK    4  A    between atoms: C_15  and  C_16
REMARK    5  A    between atoms: N_18  and  C_19
REMARK                            x       y       z     vdW  Elec       q    Type
REMARK                         _______ _______ _______ _____ _____    ______ ____
ROOT
ATOM      1  C   UNL     1       0.911   9.185  20.520  0.00  0.00    +0.000 A 
ATOM      2  N   UNL     1       1.673   9.492  19.458  0.00  0.00    +0.000 NA
ATOM      3  O   UNL     1       2.202   8.269  19.073  0.00  0.00    +0.000 OA
ATOM      4  C   UNL     1       1.710   7.325  19.935  0.00  0.00    +0.000 A 
ATOM      5  N   UNL     1       2.165   6.056  19.815  0.00  0.00    +0.000 N 
ATOM      6  C   UNL     1       1.582   5.005  20.634  0.00  0.00    +0.000 C 
ATOM      7  C   UNL     1       2.713   4.076  21.069  0.00  0.00    +0.000 C 
ATOM      8  C   UNL     1       3.492   3.525  19.870  0.00  0.00    +0.000 C 
ATOM      9  C   UNL     1       3.951   4.631  18.907  0.00  0.00    +0.000 C 
ATOM     10  C   UNL     1       2.801   5.605  18.581  0.00  0.00    +0.000 C 
ATOM     11  N   UNL     1       0.897   7.840  20.826  0.00  0.00    +0.000 NA
ENDROOT
BRANCH   1  15
ATOM     12  C   UNL     1      -1.239  12.092  22.807  0.00  0.00    +0.000 A 
ATOM     13  C   UNL     1      -1.209  10.757  23.208  0.00  0.00    +0.000 A 
ATOM     14  C   UNL     1      -0.484   9.814  22.479  0.00  0.00    +0.000 A 
ATOM     15  C   UNL     1       0.209  10.186  21.317  0.00  0.00    +0.000 A 
ATOM     16  C   UNL     1       0.173  11.529  20.919  0.00  0.00    +0.000 A 
ATOM     17  C   UNL     1      -0.547  12.478  21.658  0.00  0.00    +0.000 A 
BRANCH  12  19
ATOM     18  C   UNL     1      -3.372  12.534  23.726  0.00  0.00    +0.000 C 
ATOM     19  O   UNL     1      -2.009  12.912  23.584  0.00  0.00    +0.000 OA
ENDBRANCH  12  19
ENDBRANCH   1  15
BRANCH   9  20
ATOM     20  C   UNL     1       4.469   4.068  17.586  0.00  0.00    +0.000 C 
ATOM     21  O   UNL     1       4.364   2.868  17.333  0.00  0.00    +0.000 OA
ATOM     22  N   UNL     1       5.041   4.997  16.736  0.00  0.00    +0.000 N 
ATOM     23  H   UNL     1       5.237   5.928  17.086  0.00  0.00    +0.000 HD
BRANCH  22  24
ATOM     24  C   UNL     1       5.562   4.714  15.445  0.00  0.00    +0.000 A 
ATOM     25  C   UNL     1       4.842   4.032  14.459  0.00  0.00    +0.000 A 
ATOM     26  C   UNL     1       5.425   3.752  13.221  0.00  0.00    +0.000 A 
ATOM     27  C   UNL     1       6.727   4.164  12.966  0.00  0.00    +0.000 A 
ATOM     28  F   UNL     1       7.285   3.881  11.780  0.00  0.00    +0.000 F 
ATOM     29  C   UNL     1       7.455   4.864  13.916  0.00  0.00    +0.000 A 
ATOM     30  C   UNL     1       6.862   5.141  15.146  0.00  0.00    +0.000 A 
ATOM     31  F   UNL     1       7.573   5.804  16.073  0.00  0.00    +0.000 F 
ENDBRANCH  22  24
ENDBRANCH   9  20
TORSDOF 4
ENDMDL
MODEL 5
REMARK VINA RESULT:      -8.3      3.886     10.973
REMARK  Name = 
REMARK  5 active torsions:
REMARK  status: ('A' for Active; 'I' for Inactive)
REMARK    1  A    between atoms: C_1  and  O_2
REMARK    2  A    between atoms: O_2  and  C_3
REMARK    3  A    between atoms: C_6  and  C_7
REMARK    4  A    between atoms: C_15  and  C_16
REMARK    5  A    between atoms: N_18  and  C_19
REMARK                            x       y       z     vdW  Elec       q    Type
REMARK                         _______ _______ _______ _____ _____    ______ ____
ROOT
ATOM      1  C   UNL     1      -1.077  11.587  22.681  0.00  0.00    +0.000 A 
ATOM      2  N   UNL     1      -1.111  10.328  23.146  0.00  0.00    +0.000 NA
ATOM      3  O   UNL     1      -0.308   9.631  22.255  0.00  0.00    +0.000 OA
ATOM      4  C   UNL     1       0.147  10.531  21.329  0.00  0.00    +0.000 A 
ATOM      5  N   UNL     1       0.880  10.062  20.293  0.00  0.00    +0.000 N 
ATOM      6  C   UNL     1       1.476  10.999  19.354  0.00  0.00    +0.000 C 
ATOM      7  C   UNL     1       1.354  10.395  17.957  0.00  0.00    +0.000 C 
ATOM      8  C   UNL     1       1.986   9.002  17.880  0.00  0.00    +0.000 C 
ATOM      9  C   UNL     1       1.486   8.066  18.991  0.00  0.00    +0.000 C 
ATOM     10  C   UNL     1       1.529   8.757  20.369  0.00  0.00    +0.000 C 
ATOM     11  N   UNL     1      -0.284  11.749  21.564  0.00  0.00    +0.000 NA
ENDROOT
BRANCH   1  15
ATOM     12  C   UNL     1      -3.315  14.756  24.486  0.00  0.00    +0.000 A 
ATOM     13  C   UNL     1      -1.981  14.948  24.126  0.00  0.00    +0.000 A 
ATOM     14  C   UNL     1      -1.259  13.923  23.510  0.00  0.00    +0.000 A 
ATOM     15  C   UNL     1      -1.853  12.677  23.264  0.00  0.00    +0.000 A 
ATOM     16  C   UNL     1      -3.193  12.491  23.630  0.00  0.00    +0.000 A 
ATOM     17  C   UNL     1      -3.921  13.524  24.239  0.00  0.00    +0.000 A 
BRANCH  12  19
ATOM     18  C   UNL     1      -4.997  16.416  24.425  0.00  0.00    +0.000 C 
ATOM     19  O   UNL     1      -3.903  15.821  25.110  0.00  0.00    +0.000 OA
ENDBRANCH  12  19
ENDBRANCH   1  15
BRANCH   9  20
ATOM     20  C   UNL     1       2.316   6.788  19.088  0.00  0.00    +0.000 C 
ATOM     21  O   UNL     1       3.338   6.757  19.774  0.00  0.00    +0.000 OA
ATOM     22  N   UNL     1       1.829   5.715  18.365  0.00  0.00    +0.000 N 
ATOM     23  H   UNL     1       1.080   5.871  17.700  0.00  0.00    +0.000 HD
BRANCH  22  24
ATOM     24  C   UNL     1       2.412   4.420  18.328  0.00  0.00    +0.000 A 
ATOM     25  C   UNL     1       3.518   4.099  17.534  0.00  0.00    +0.000 A 
ATOM     26  C   UNL     1       4.020   2.795  17.514  0.00  0.00    +0.000 A 
ATOM     27  C   UNL     1       3.422   1.815  18.295  0.00  0.00    +0.000 A 
ATOM     28  F   UNL     1       3.901   0.564  18.261  0.00  0.00    +0.000 F 
ATOM     29  C   UNL     1       2.340   2.113  19.110  0.00  0.00    +0.000 A 
ATOM     30  C   UNL     1       1.849   3.417  19.126  0.00  0.00    +0.000 A 
ATOM     31  F   UNL     1       0.790   3.701  19.902  0.00  0.00    +0.000 F 
ENDBRANCH  22  24
ENDBRANCH   9  20
TORSDOF 4
ENDMDL
MODEL 6
REMARK VINA RESULT:      -8.2      4.755     11.793
REMARK  Name = 
REMARK  5 active torsions:
REMARK  status: ('A' for Active; 'I' for Inactive)
REMARK    1  A    between atoms: C_1  and  O_2
REMARK    2  A    between atoms: O_2  and  C_3
REMARK    3  A    between atoms: C_6  and  C_7
REMARK    4  A    between atoms: C_15  and  C_16
REMARK    5  A    between atoms: N_18  and  C_19
REMARK                            x       y       z     vdW  Elec       q    Type
REMARK                         _______ _______ _______ _____ _____    ______ ____
ROOT
ATOM      1  C   UNL     1       0.595   9.953  19.898  0.00  0.00    +0.000 A 
ATOM      2  N   UNL     1       1.105  10.556  18.813  0.00  0.00    +0.000 NA
ATOM      3  O   UNL     1       1.898   9.574  18.237  0.00  0.00    +0.000 OA
ATOM      4  C   UNL     1       1.797   8.458  19.024  0.00  0.00    +0.000 A 
ATOM      5  N   UNL     1       2.564   7.388  18.713  0.00  0.00    +0.000 N 
ATOM      6  C   UNL     1       2.400   6.148  19.454  0.00  0.00    +0.000 C 
ATOM      7  C   UNL     1       3.789   5.548  19.666  0.00  0.00    +0.000 C 
ATOM      8  C   UNL     1       4.533   5.350  18.342  0.00  0.00    +0.000 C 
ATOM      9  C   UNL     1       4.547   6.620  17.477  0.00  0.00    +0.000 C 
ATOM     10  C   UNL     1       3.141   7.248  17.380  0.00  0.00    +0.000 C 
ATOM     11  N   UNL     1       0.990   8.640  20.044  0.00  0.00    +0.000 NA
ENDROOT
BRANCH   1  15
ATOM     12  C   UNL     1      -1.957  11.882  22.739  0.00  0.00    +0.000 A 
ATOM     13  C   UNL     1      -1.112  10.847  23.136  0.00  0.00    +0.000 A 
ATOM     14  C   UNL     1      -0.257  10.237  22.216  0.00  0.00    +0.000 A 
ATOM     15  C   UNL     1      -0.250  10.637  20.872  0.00  0.00    +0.000 A 
ATOM     16  C   UNL     1      -1.104  11.677  20.479  0.00  0.00    +0.000 A 
ATOM     17  C   UNL     1      -1.954  12.296  21.406  0.00  0.00    +0.000 A 
BRANCH  12  19
ATOM     18  C   UNL     1      -3.917  13.088  23.282  0.00  0.00    +0.000 C 
ATOM     19  O   UNL     1      -2.769  12.376  23.723  0.00  0.00    +0.000 OA
ENDBRANCH  12  19
ENDBRANCH   1  15
BRANCH   9  20
ATOM     20  C   UNL     1       5.031   6.346  16.055  0.00  0.00    +0.000 C 
ATOM     21  O   UNL     1       5.182   7.272  15.257  0.00  0.00    +0.000 OA
ATOM     22  N   UNL     1       5.276   5.017  15.764  0.00  0.00    +0.000 N 
ATOM     23  H   UNL     1       4.971   4.307  16.419  0.00  0.00    +0.000 HD
BRANCH  22  24
ATOM     24  C   UNL     1       5.762   4.527  14.522  0.00  0.00    +0.000 A 
ATOM     25  C   UNL     1       4.988   3.762  13.643  0.00  0.00    +0.000 A 
ATOM     26  C   UNL     1       5.537   3.277  12.454  0.00  0.00    +0.000 A 
ATOM     27  C   UNL     1       6.859   3.567  12.138  0.00  0.00    +0.000 A 
ATOM     28  F   UNL     1       7.382   3.088  11.001  0.00  0.00    +0.000 F 
ATOM     29  C   UNL     1       7.640   4.344  12.980  0.00  0.00    +0.000 A 
ATOM     30  C   UNL     1       7.082   4.826  14.161  0.00  0.00    +0.000 A 
ATOM     31  F   UNL     1       7.844   5.563  14.985  0.00  0.00    +0.000 F 
ENDBRANCH  22  24
ENDBRANCH   9  20
TORSDOF 4
ENDMDL
MODEL 7
REMARK VINA RESULT:      -8.1      1.254      1.738
REMARK  Name = 
REMARK  5 active torsions:
REMARK  status: ('A' for Active; 'I' for Inactive)
REMARK    1  A    between atoms: C_1  and  O_2
REMARK    2  A    between atoms: O_2  and  C_3
REMARK    3  A    between atoms: C_6  and  C_7
REMARK    4  A    between atoms: C_15  and  C_16
REMARK    5  A    between atoms: N_18  and  C_19
REMARK                            x       y       z     vdW  Elec       q    Type
REMARK                         _______ _______ _______ _____ _____    ______ ____
ROOT
ATOM      1  C   UNL     1       2.463   7.381  18.855  0.00  0.00    +0.000 A 
ATOM      2  N   UNL     1       1.962   7.202  20.087  0.00  0.00    +0.000 NA
ATOM      3  O   UNL     1       1.410   8.437  20.397  0.00  0.00    +0.000 OA
ATOM      4  C   UNL     1       1.622   9.257  19.321  0.00  0.00    +0.000 A 
ATOM      5  N   UNL     1       1.251  10.554  19.427  0.00  0.00    +0.000 N 
ATOM      6  C   UNL     1       1.354  11.426  18.268  0.00  0.00    +0.000 C 
ATOM      7  C   UNL     1       1.838  12.790  18.756  0.00  0.00    +0.000 C 
ATOM      8  C   UNL     1       0.925  13.363  19.846  0.00  0.00    +0.000 C 
ATOM      9  C   UNL     1       0.671  12.365  20.986  0.00  0.00    +0.000 C 
ATOM     10  C   UNL     1       0.289  10.974  20.441  0.00  0.00    +0.000 C 
ATOM     11  N   UNL     1       2.247   8.644  18.343  0.00  0.00    +0.000 NA
ENDROOT
BRANCH   1  15
ATOM     12  C   UNL     1       4.631   4.406  16.676  0.00  0.00    +0.000 A 
ATOM     13  C   UNL     1       5.046   5.737  16.659  0.00  0.00    +0.000 A 
ATOM     14  C   UNL     1       4.356   6.703  17.394  0.00  0.00    +0.000 A 
ATOM     15  C   UNL     1       3.221   6.358  18.142  0.00  0.00    +0.000 A 
ATOM     16  C   UNL     1       2.809   5.019  18.153  0.00  0.00    +0.000 A 
ATOM     17  C   UNL     1       3.509   4.047  17.423  0.00  0.00    +0.000 A 
BRANCH  12  19
ATOM     18  C   UNL     1       6.266   4.182  14.982  0.00  0.00    +0.000 C 
ATOM     19  O   UNL     1       5.367   3.561  15.892  0.00  0.00    +0.000 OA
ENDBRANCH  12  19
ENDBRANCH   1  15
BRANCH   9  20
ATOM     20  C   UNL     1      -0.450  12.822  21.915  0.00  0.00    +0.000 C 
ATOM     21  O   UNL     1      -0.192  13.288  23.026  0.00  0.00    +0.000 OA
ATOM     22  N   UNL     1      -1.729  12.672  21.411  0.00  0.00    +0.000 N 
ATOM     23  H   UNL     1      -1.862  12.132  20.563  0.00  0.00    +0.000 HD
BRANCH  22  24
ATOM     24  C   UNL     1      -2.923  13.055  22.078  0.00  0.00    +0.000 A 
ATOM     25  C   UNL     1      -3.730  14.117  21.659  0.00  0.00    +0.000 A 
ATOM     26  C   UNL     1      -4.873  14.468  22.382  0.00  0.00    +0.000 A 
ATOM     27  C   UNL     1      -5.214  13.748  23.520  0.00  0.00    +0.000 A 
ATOM     28  F   UNL     1      -6.305  14.098  24.216  0.00  0.00    +0.000 F 
ATOM     29  C   UNL     1      -4.445  12.674  23.944  0.00  0.00    +0.000 A 
ATOM     30  C   UNL     1      -3.310  12.331  23.213  0.00  0.00    +0.000 A 
ATOM     31  F   UNL     1      -2.556  11.302  23.634  0.00  0.00    +0.000 F 
ENDBRANCH  22  24
ENDBRANCH   9  20
TORSDOF 4
ENDMDL
MODEL 8
REMARK VINA RESULT:      -8.1      1.144      1.486
REMARK  Name = 
REMARK  5 active torsions:
REMARK  status: ('A' for Active; 'I' for Inactive)
REMARK    1  A    between atoms: C_1  and  O_2
REMARK    2  A    between atoms: O_2  and  C_3
REMARK    3  A    between atoms: C_6  and  C_7
REMARK    4  A    between atoms: C_15  and  C_16
REMARK    5  A    between atoms: N_18  and  C_19
REMARK                            x       y       z     vdW  Elec       q    Type
REMARK                         _______ _______ _______ _____ _____    ______ ____
ROOT
ATOM      1  C   UNL     1       2.600   7.513  18.524  0.00  0.00    +0.000 A 
ATOM      2  N   UNL     1       1.935   7.331  19.676  0.00  0.00    +0.000 NA
ATOM      3  O   UNL     1       1.422   8.589  19.958  0.00  0.00    +0.000 OA
ATOM      4  C   UNL     1       1.818   9.424  18.948  0.00  0.00    +0.000 A 
ATOM      5  N   UNL     1       1.514  10.739  19.053  0.00  0.00    +0.000 N 
ATOM      6  C   UNL     1       1.815  11.635  17.948  0.00  0.00    +0.000 C 
ATOM      7  C   UNL     1       2.312  12.951  18.542  0.00  0.00    +0.000 C 
ATOM      8  C   UNL     1       1.303  13.549  19.528  0.00  0.00    +0.000 C 
ATOM      9  C   UNL     1       0.847  12.538  20.591  0.00  0.00    +0.000 C 
ATOM     10  C   UNL     1       0.456  11.189  19.952  0.00  0.00    +0.000 C 
ATOM     11  N   UNL     1       2.525   8.801  18.034  0.00  0.00    +0.000 NA
ENDROOT
BRANCH   1  15
ATOM     12  C   UNL     1       4.838   4.459  16.531  0.00  0.00    +0.000 A 
ATOM     13  C   UNL     1       5.248   5.791  16.471  0.00  0.00    +0.000 A 
ATOM     14  C   UNL     1       4.535   6.784  17.145  0.00  0.00    +0.000 A 
ATOM     15  C   UNL     1       3.381   6.465  17.876  0.00  0.00    +0.000 A 
ATOM     16  C   UNL     1       2.974   5.125  17.931  0.00  0.00    +0.000 A 
ATOM     17  C   UNL     1       3.696   4.127  17.262  0.00  0.00    +0.000 A 
BRANCH  12  19
ATOM     18  C   UNL     1       6.376   4.160  14.761  0.00  0.00    +0.000 C 
ATOM     19  O   UNL     1       5.598   3.587  15.804  0.00  0.00    +0.000 OA
ENDBRANCH  12  19
ENDBRANCH   1  15
BRANCH   9  20
ATOM     20  C   UNL     1      -0.355  13.038  21.388  0.00  0.00    +0.000 C 
ATOM     21  O   UNL     1      -0.384  14.191  21.818  0.00  0.00    +0.000 OA
ATOM     22  N   UNL     1      -1.366  12.113  21.569  0.00  0.00    +0.000 N 
ATOM     23  H   UNL     1      -1.193  11.143  21.328  0.00  0.00    +0.000 HD
BRANCH  22  24
ATOM     24  C   UNL     1      -2.590  12.359  22.247  0.00  0.00    +0.000 A 
ATOM     25  C   UNL     1      -2.760  12.160  23.621  0.00  0.00    +0.000 A 
ATOM     26  C   UNL     1      -4.001  12.385  24.221  0.00  0.00    +0.000 A 
ATOM     27  C   UNL     1      -5.071  12.817  23.448  0.00  0.00    +0.000 A 
ATOM     28  F   UNL     1      -6.263  13.018  24.028  0.00  0.00    +0.000 F 
ATOM     29  C   UNL     1      -4.924  13.045  22.088  0.00  0.00    +0.000 A 
ATOM     30  C   UNL     1      -3.680  12.823  21.500  0.00  0.00    +0.000 A 
ATOM     31  F   UNL     1      -3.542  13.027  20.180  0.00  0.00    +0.000 F 
ENDBRANCH  22  24
ENDBRANCH   9  20
TORSDOF 4
ENDMDL
MODEL 9
REMARK VINA RESULT:      -8.0      3.728      5.428
REMARK  Name = 
REMARK  5 active torsions:
REMARK  status: ('A' for Active; 'I' for Inactive)
REMARK    1  A    between atoms: C_1  and  O_2
REMARK    2  A    between atoms: O_2  and  C_3
REMARK    3  A    between atoms: C_6  and  C_7
REMARK    4  A    between atoms: C_15  and  C_16
REMARK    5  A    between atoms: N_18  and  C_19
REMARK                            x       y       z     vdW  Elec       q    Type
REMARK                         _______ _______ _______ _____ _____    ______ ____
ROOT
ATOM      1  C   UNL     1       1.854   7.116  19.758  0.00  0.00    +0.000 A 
ATOM      2  N   UNL     1       1.871   7.946  18.703  0.00  0.00    +0.000 NA
ATOM      3  O   UNL     1       1.413   9.147  19.226  0.00  0.00    +0.000 OA
ATOM      4  C   UNL     1       1.161   8.940  20.556  0.00  0.00    +0.000 A 
ATOM      5  N   UNL     1       0.610   9.953  21.264  0.00  0.00    +0.000 N 
ATOM      6  C   UNL     1       0.435   9.812  22.701  0.00  0.00    +0.000 C 
ATOM      7  C   UNL     1      -0.904  10.446  23.068  0.00  0.00    +0.000 C 
ATOM      8  C   UNL     1      -0.991  11.904  22.605  0.00  0.00    +0.000 C 
ATOM      9  C   UNL     1      -0.627  12.074  21.122  0.00  0.00    +0.000 C 
ATOM     10  C   UNL     1       0.677  11.327  20.775  0.00  0.00    +0.000 C 
ATOM     11  N   UNL     1       1.438   7.713  20.930  0.00  0.00    +0.000 NA
ENDROOT
BRANCH   1  15
ATOM     12  C   UNL     1       2.754   2.948  19.410  0.00  0.00    +0.000 A 
ATOM     13  C   UNL     1       3.392   3.880  18.592  0.00  0.00    +0.000 A 
ATOM     14  C   UNL     1       3.120   5.244  18.725  0.00  0.00    +0.000 A 
ATOM     15  C   UNL     1       2.185   5.698  19.666  0.00  0.00    +0.000 A 
ATOM     16  C   UNL     1       1.546   4.756  20.484  0.00  0.00    +0.000 A 
ATOM     17  C   UNL     1       1.827   3.388  20.356  0.00  0.00    +0.000 A 
BRANCH  12  19
ATOM     18  C   UNL     1       3.796   1.400  17.959  0.00  0.00    +0.000 C 
ATOM     19  O   UNL     1       3.079   1.644  19.161  0.00  0.00    +0.000 OA
ENDBRANCH  12  19
ENDBRANCH   1  15
BRANCH   9  20
ATOM     20  C   UNL     1      -0.437  13.539  20.737  0.00  0.00    +0.000 C 
ATOM     21  O   UNL     1      -0.818  14.437  21.488  0.00  0.00    +0.000 OA
ATOM     22  N   UNL     1       0.178  13.751  19.517  0.00  0.00    +0.000 N 
ATOM     23  H   UNL     1       0.310  12.965  18.891  0.00  0.00    +0.000 HD
BRANCH  22  24
ATOM     24  C   UNL     1       0.488  15.023  18.966  0.00  0.00    +0.000 A 
ATOM     25  C   UNL     1      -0.483  15.978  18.646  0.00  0.00    +0.000 A 
ATOM     26  C   UNL     1      -0.115  17.197  18.070  0.00  0.00    +0.000 A 
ATOM     27  C   UNL     1       1.226  17.464  17.824  0.00  0.00    +0.000 A 
ATOM     28  F   UNL     1       1.570  18.630  17.260  0.00  0.00    +0.000 F 
ATOM     29  C   UNL     1       2.210  16.545  18.155  0.00  0.00    +0.000 A 
ATOM     30  C   UNL     1       1.833  15.335  18.732  0.00  0.00    +0.000 A 
ATOM     31  F   UNL     1       2.785  14.438  19.036  0.00  0.00    +0.000 F 
ENDBRANCH  22  24
ENDBRANCH   9  20
TORSDOF 4
ENDMDL
