MODEL 1
REMARK VINA RESULT:      -9.0      0.000      0.000
REMARK  Name = 
REMARK  4 active torsions:
REMARK  status: ('A' for Active; 'I' for Inactive)
REMARK    1  A    between atoms: C_7  and  C_8
REMARK    2  A    between atoms: N_13  and  C_14
REMARK    3  A    between atoms: C_18  and  O_19
REMARK    4  A    between atoms: O_19  and  C_20
REMARK                            x       y       z     vdW  Elec       q    Type
REMARK                         _______ _______ _______ _____ _____    ______ ____
ROOT
ATOM      1  C   UNL     1       1.185   9.509  19.999  0.00  0.00    +0.000 A 
ATOM      2  C   UNL     1       0.667   8.956  21.196  0.00  0.00    +0.000 A 
ATOM      3  N   UNL     1       0.883   7.634  21.295  0.00  0.00    +0.000 NA
ATOM      4  N   UNL     1       1.588   7.366  20.168  0.00  0.00    +0.000 N 
ATOM      5  C   UNL     1       2.135   6.109  19.848  0.00  0.00    +0.000 A 
ATOM      6  N   UNL     1       1.819   5.071  20.704  0.00  0.00    +0.000 N 
ATOM      7  N   UNL     1       2.880   6.019  18.779  0.00  0.00    +0.000 NA
ATOM      8  C   UNL     1       3.072   7.156  18.022  0.00  0.00    +0.000 A 
ATOM      9  N   UNL     1       2.515   8.313  18.226  0.00  0.00    +0.000 NA
ATOM     10  C   UNL     1       1.788   8.449  19.364  0.00  0.00    +0.000 A 
ATOM     11  H   UNL     1       1.254   5.350  21.507  0.00  0.00    +0.000 HD
ENDROOT
BRANCH   1  18
ATOM     12  O   UNL     1      -2.840  11.581  17.217  0.00  0.00    +0.000 OA
ATOM     13  C   UNL     1      -1.765  11.799  17.746  0.00  0.00    +0.000 C 
ATOM     14  N   UNL     1      -1.070  12.978  17.729  0.00  0.00    +0.000 N 
ATOM     15  C   UNL     1       0.136  12.857  18.362  0.00  0.00    +0.000 C 
ATOM     16  O   UNL     1       1.013  13.692  18.474  0.00  0.00    +0.000 OA
ATOM     17  C   UNL     1       0.162  11.448  18.862  0.00  0.00    +0.000 C 
ATOM     18  C   UNL     1       1.155  10.866  19.551  0.00  0.00    +0.000 C 
ATOM     19  N   UNL     1      -1.018  10.889  18.463  0.00  0.00    +0.000 N 
ATOM     20  H   UNL     1      -1.388  13.799  17.244  0.00  0.00    +0.000 HD
ATOM     21  H   UNL     1      -1.255   9.908  18.554  0.00  0.00    +0.000 HD
ENDBRANCH   1  18
BRANCH   6  22
ATOM     22  C   UNL     1       2.710   3.923  20.830  0.00  0.00    +0.000 C 
ATOM     23  C   UNL     1       2.360   2.741  21.692  0.00  0.00    +0.000 C 
ATOM     24  C   UNL     1       2.322   2.612  20.199  0.00  0.00    +0.000 C 
ENDBRANCH   6  22
BRANCH   8  25
ATOM     25  O   UNL     1       3.935   6.935  16.952  0.00  0.00    +0.000 OA
BRANCH  25  26
ATOM     26  C   UNL     1       5.130   6.223  17.200  0.00  0.00    +0.000 A 
ATOM     27  C   UNL     1       6.161   6.893  17.853  0.00  0.00    +0.000 A 
ATOM     28  C   UNL     1       7.382   6.241  18.027  0.00  0.00    +0.000 A 
ATOM     29  F   UNL     1       8.395   6.884  18.625  0.00  0.00    +0.000 F 
ATOM     30  C   UNL     1       7.585   4.942  17.565  0.00  0.00    +0.000 A 
ATOM     31  C   UNL     1       6.553   4.279  16.903  0.00  0.00    +0.000 A 
ATOM     32  C   UNL     1       5.338   4.930  16.706  0.00  0.00    +0.000 A 
ATOM     33  F   UNL     1       4.386   4.302  15.999  0.00  0.00    +0.000 F 
ENDBRANCH  25  26
ENDBRANCH   8  25
TORSDOF 4
ENDMDL
MODEL 2
REMARK VINA RESULT:      -8.5      0.779      1.662
REMARK  Name = 
REMARK  4 active torsions:
REMARK  status: ('A' for Active; 'I' for Inactive)
REMARK    1  A    between atoms: C_7  and  C_8
REMARK    2  A    between atoms: N_13  and  C_14
REMARK    3  A    between atoms: C_18  and  O_19
REMARK    4  A    between atoms: O_19  and  C_20
REMARK                            x       y       z     vdW  Elec       q    Type
REMARK                         _______ _______ _______ _____ _____    ______ ____
ROOT
ATOM      1  C   UNL     1       1.226   9.422  19.942  0.00  0.00    +0.000 A 
ATOM      2  C   UNL     1       0.816   8.729  21.108  0.00  0.00    +0.000 A 
ATOM      3  N   UNL     1       1.154   7.430  21.087  0.00  0.00    +0.000 NA
ATOM      4  N   UNL     1       1.828   7.320  19.915  0.00  0.00    +0.000 N 
ATOM      5  C   UNL     1       2.469   6.148  19.470  0.00  0.00    +0.000 A 
ATOM      6  N   UNL     1       2.287   5.020  20.248  0.00  0.00    +0.000 N 
ATOM      7  N   UNL     1       3.169   6.214  18.368  0.00  0.00    +0.000 NA
ATOM      8  C   UNL     1       3.223   7.421  17.703  0.00  0.00    +0.000 A 
ATOM      9  N   UNL     1       2.575   8.501  18.025  0.00  0.00    +0.000 NA
ATOM     10  C   UNL     1       1.892   8.477  19.198  0.00  0.00    +0.000 A 
ATOM     11  H   UNL     1       1.738   5.181  21.092  0.00  0.00    +0.000 HD
ENDROOT
BRANCH   1  18
ATOM     12  O   UNL     1      -2.736  11.226  16.896  0.00  0.00    +0.000 OA
ATOM     13  C   UNL     1      -1.763  11.527  17.564  0.00  0.00    +0.000 C 
ATOM     14  N   UNL     1      -1.241  12.781  17.729  0.00  0.00    +0.000 N 
ATOM     15  C   UNL     1      -0.102  12.754  18.485  0.00  0.00    +0.000 C 
ATOM     16  O   UNL     1       0.633  13.680  18.770  0.00  0.00    +0.000 OA
ATOM     17  C   UNL     1       0.068  11.318  18.863  0.00  0.00    +0.000 C 
ATOM     18  C   UNL     1       1.054  10.803  19.611  0.00  0.00    +0.000 C 
ATOM     19  N   UNL     1      -0.975  10.654  18.283  0.00  0.00    +0.000 N 
ATOM     20  H   UNL     1      -1.618  13.599  17.282  0.00  0.00    +0.000 HD
ATOM     21  H   UNL     1      -1.081   9.647  18.262  0.00  0.00    +0.000 HD
ENDBRANCH   1  18
BRANCH   6  22
ATOM     22  C   UNL     1       3.282   3.954  20.242  0.00  0.00    +0.000 C 
ATOM     23  C   UNL     1       3.055   2.657  20.969  0.00  0.00    +0.000 C 
ATOM     24  C   UNL     1       3.009   2.690  19.470  0.00  0.00    +0.000 C 
ENDBRANCH   6  22
BRANCH   8  25
ATOM     25  O   UNL     1       4.052   7.368  16.586  0.00  0.00    +0.000 OA
BRANCH  25  26
ATOM     26  C   UNL     1       5.151   6.481  16.616  0.00  0.00    +0.000 A 
ATOM     27  C   UNL     1       4.959   5.193  16.123  0.00  0.00    +0.000 A 
ATOM     28  C   UNL     1       6.001   4.271  16.226  0.00  0.00    +0.000 A 
ATOM     29  F   UNL     1       5.822   3.018  15.785  0.00  0.00    +0.000 F 
ATOM     30  C   UNL     1       7.222   4.615  16.805  0.00  0.00    +0.000 A 
ATOM     31  C   UNL     1       7.406   5.903  17.306  0.00  0.00    +0.000 A 
ATOM     32  C   UNL     1       6.363   6.823  17.228  0.00  0.00    +0.000 A 
ATOM     33  F   UNL     1       6.536   8.030  17.786  0.00  0.00    +0.000 F 
ENDBRANCH  25  26
ENDBRANCH   8  25
TORSDOF 4
ENDMDL
MODEL 3
REMARK VINA RESULT:      -8.4      6.118      9.068
REMARK  Name = 
REMARK  4 active torsions:
REMARK  status: ('A' for Active; 'I' for Inactive)
REMARK    1  A    between atoms: C_7  and  C_8
REMARK    2  A    between atoms: N_13  and  C_14
REMARK    3  A    between atoms: C_18  and  O_19
REMARK    4  A    between atoms: O_19  and  C_20
REMARK                            x       y       z     vdW  Elec       q    Type
REMARK                         _______ _______ _______ _____ _____    ______ ____
ROOT
ATOM      1  C   UNL     1      -6.430  12.078  20.218  0.00  0.00    +0.000 A 
ATOM      2  C   UNL     1      -7.107  11.635  19.055  0.00  0.00    +0.000 A 
ATOM      3  N   UNL     1      -6.299  11.540  17.987  0.00  0.00    +0.000 NA
ATOM      4  N   UNL     1      -5.092  11.881  18.500  0.00  0.00    +0.000 N 
ATOM      5  C   UNL     1      -3.881  11.850  17.782  0.00  0.00    +0.000 A 
ATOM      6  N   UNL     1      -3.979  11.556  16.434  0.00  0.00    +0.000 N 
ATOM      7  N   UNL     1      -2.777  12.106  18.431  0.00  0.00    +0.000 NA
ATOM      8  C   UNL     1      -2.866  12.404  19.774  0.00  0.00    +0.000 A 
ATOM      9  N   UNL     1      -3.965  12.535  20.457  0.00  0.00    +0.000 NA
ATOM     10  C   UNL     1      -5.121  12.213  19.821  0.00  0.00    +0.000 A 
ATOM     11  H   UNL     1      -4.928  11.348  16.121  0.00  0.00    +0.000 HD
ENDROOT
BRANCH   1  18
ATOM     12  O   UNL     1      -4.816  16.015  23.400  0.00  0.00    +0.000 OA
ATOM     13  C   UNL     1      -5.576  15.072  23.272  0.00  0.00    +0.000 C 
ATOM     14  N   UNL     1      -6.457  14.600  24.207  0.00  0.00    +0.000 N 
ATOM     15  C   UNL     1      -7.108  13.482  23.762  0.00  0.00    +0.000 C 
ATOM     16  O   UNL     1      -7.906  12.789  24.361  0.00  0.00    +0.000 OA
ATOM     17  C   UNL     1      -6.594  13.273  22.373  0.00  0.00    +0.000 C 
ATOM     18  C   UNL     1      -6.950  12.290  21.533  0.00  0.00    +0.000 C 
ATOM     19  N   UNL     1      -5.693  14.274  22.154  0.00  0.00    +0.000 N 
ATOM     20  H   UNL     1      -6.548  14.993  25.127  0.00  0.00    +0.000 HD
ATOM     21  H   UNL     1      -5.090  14.344  21.343  0.00  0.00    +0.000 HD
ENDBRANCH   1  18
BRANCH   6  22
ATOM     22  C   UNL     1      -2.853  10.957  15.728  0.00  0.00    +0.000 C 
ATOM     23  C   UNL     1      -2.531   9.493  15.851  0.00  0.00    +0.000 C 
ATOM     24  C   UNL     1      -3.114  10.024  14.575  0.00  0.00    +0.000 C 
ENDBRANCH   6  22
BRANCH   8  25
ATOM     25  O   UNL     1      -1.615  12.591  20.355  0.00  0.00    +0.000 OA
BRANCH  25  26
ATOM     26  C   UNL     1      -1.060  11.521  21.093  0.00  0.00    +0.000 A 
ATOM     27  C   UNL     1      -0.391  10.525  20.388  0.00  0.00    +0.000 A 
ATOM     28  C   UNL     1       0.085   9.413  21.084  0.00  0.00    +0.000 A 
ATOM     29  F   UNL     1       0.703   8.429  20.415  0.00  0.00    +0.000 F 
ATOM     30  C   UNL     1      -0.091   9.286  22.461  0.00  0.00    +0.000 A 
ATOM     31  C   UNL     1      -0.770  10.283  23.161  0.00  0.00    +0.000 A 
ATOM     32  C   UNL     1      -1.269  11.385  22.471  0.00  0.00    +0.000 A 
ATOM     33  F   UNL     1      -1.984  12.292  23.152  0.00  0.00    +0.000 F 
ENDBRANCH  25  26
ENDBRANCH   8  25
TORSDOF 4
ENDMDL
MODEL 4
REMARK VINA RESULT:      -8.3      3.570      7.673
REMARK  Name = 
REMARK  4 active torsions:
REMARK  status: ('A' for Active; 'I' for Inactive)
REMARK    1  A    between atoms: C_7  and  C_8
REMARK    2  A    between atoms: N_13  and  C_14
REMARK    3  A    between atoms: C_18  and  O_19
REMARK    4  A    between atoms: O_19  and  C_20
REMARK                            x       y       z     vdW  Elec       q    Type
REMARK                         _______ _______ _______ _____ _____    ______ ____
ROOT
ATOM      1  C   UNL     1       6.298   5.181  16.906  0.00  0.00    +0.000 A 
ATOM      2  C   UNL     1       6.435   4.068  17.772  0.00  0.00    +0.000 A 
ATOM      3  N   UNL     1       5.549   4.081  18.781  0.00  0.00    +0.000 NA
ATOM      4  N   UNL     1       4.816   5.189  18.514  0.00  0.00    +0.000 N 
ATOM      5  C   UNL     1       3.686   5.596  19.249  0.00  0.00    +0.000 A 
ATOM      6  N   UNL     1       3.397   4.856  20.381  0.00  0.00    +0.000 N 
ATOM      7  N   UNL     1       3.014   6.630  18.818  0.00  0.00    +0.000 NA
ATOM      8  C   UNL     1       3.460   7.267  17.679  0.00  0.00    +0.000 A 
ATOM      9  N   UNL     1       4.546   6.986  17.022  0.00  0.00    +0.000 NA
ATOM     10  C   UNL     1       5.227   5.878  17.412  0.00  0.00    +0.000 A 
ATOM     11  H   UNL     1       4.019   4.061  20.529  0.00  0.00    +0.000 HD
ENDROOT
BRANCH   1  18
ATOM     12  O   UNL     1       5.609   2.740  12.237  0.00  0.00    +0.000 OA
ATOM     13  C   UNL     1       6.210   3.613  12.837  0.00  0.00    +0.000 C 
ATOM     14  N   UNL     1       7.198   4.417  12.337  0.00  0.00    +0.000 N 
ATOM     15  C   UNL     1       7.709   5.241  13.301  0.00  0.00    +0.000 C 
ATOM     16  O   UNL     1       8.628   6.031  13.205  0.00  0.00    +0.000 OA
ATOM     17  C   UNL     1       6.908   4.934  14.526  0.00  0.00    +0.000 C 
ATOM     18  C   UNL     1       7.048   5.502  15.732  0.00  0.00    +0.000 C 
ATOM     19  N   UNL     1       6.025   3.960  14.159  0.00  0.00    +0.000 N 
ATOM     20  H   UNL     1       7.544   4.345  11.396  0.00  0.00    +0.000 HD
ATOM     21  H   UNL     1       5.415   3.460  14.795  0.00  0.00    +0.000 HD
ENDBRANCH   1  18
BRANCH   6  22
ATOM     22  C   UNL     1       2.031   4.792  20.888  0.00  0.00    +0.000 C 
ATOM     23  C   UNL     1       0.946   4.063  20.145  0.00  0.00    +0.000 C 
ATOM     24  C   UNL     1       1.498   3.484  21.413  0.00  0.00    +0.000 C 
ENDBRANCH   6  22
BRANCH   8  25
ATOM     25  O   UNL     1       2.618   8.307  17.295  0.00  0.00    +0.000 OA
BRANCH  25  26
ATOM     26  C   UNL     1       2.035   9.098  18.310  0.00  0.00    +0.000 A 
ATOM     27  C   UNL     1       1.370   8.442  19.343  0.00  0.00    +0.000 A 
ATOM     28  C   UNL     1       0.709   9.204  20.307  0.00  0.00    +0.000 A 
ATOM     29  F   UNL     1       0.037   8.587  21.289  0.00  0.00    +0.000 F 
ATOM     30  C   UNL     1       0.705  10.597  20.257  0.00  0.00    +0.000 A 
ATOM     31  C   UNL     1       1.365  11.248  19.216  0.00  0.00    +0.000 A 
ATOM     32  C   UNL     1       2.008  10.496  18.237  0.00  0.00    +0.000 A 
ATOM     33  F   UNL     1       2.569  11.141  17.204  0.00  0.00    +0.000 F 
ENDBRANCH  25  26
ENDBRANCH   8  25
TORSDOF 4
ENDMDL
MODEL 5
REMARK VINA RESULT:      -8.0      3.124      7.498
REMARK  Name = 
REMARK  4 active torsions:
REMARK  status: ('A' for Active; 'I' for Inactive)
REMARK    1  A    between atoms: C_7  and  C_8
REMARK    2  A    between atoms: N_13  and  C_14
REMARK    3  A    between atoms: C_18  and  O_19
REMARK    4  A    between atoms: O_19  and  C_20
REMARK                            x       y       z     vdW  Elec       q    Type
REMARK                         _______ _______ _______ _____ _____    ______ ____
ROOT
ATOM      1  C   UNL     1       3.379   5.383  18.654  0.00  0.00    +0.000 A 
ATOM      2  C   UNL     1       2.962   4.748  19.849  0.00  0.00    +0.000 A 
ATOM      3  N   UNL     1       2.301   5.575  20.675  0.00  0.00    +0.000 NA
ATOM      4  N   UNL     1       2.261   6.729  19.965  0.00  0.00    +0.000 N 
ATOM      5  C   UNL     1       1.586   7.895  20.374  0.00  0.00    +0.000 A 
ATOM      6  N   UNL     1       1.031   7.867  21.640  0.00  0.00    +0.000 N 
ATOM      7  N   UNL     1       1.544   8.902  19.543  0.00  0.00    +0.000 NA
ATOM      8  C   UNL     1       2.175   8.766  18.324  0.00  0.00    +0.000 A 
ATOM      9  N   UNL     1       2.886   7.748  17.941  0.00  0.00    +0.000 NA
ATOM     10  C   UNL     1       2.893   6.665  18.759  0.00  0.00    +0.000 A 
ATOM     11  H   UNL     1       1.138   6.973  22.121  0.00  0.00    +0.000 HD
ENDROOT
BRANCH   1  18
ATOM     12  O   UNL     1       7.950   7.384  16.828  0.00  0.00    +0.000 OA
ATOM     13  C   UNL     1       7.120   6.501  16.709  0.00  0.00    +0.000 C 
ATOM     14  N   UNL     1       7.108   5.511  15.765  0.00  0.00    +0.000 N 
ATOM     15  C   UNL     1       5.992   4.728  15.873  0.00  0.00    +0.000 C 
ATOM     16  O   UNL     1       5.649   3.805  15.160  0.00  0.00    +0.000 OA
ATOM     17  C   UNL     1       5.255   5.280  17.052  0.00  0.00    +0.000 C 
ATOM     18  C   UNL     1       4.093   4.830  17.545  0.00  0.00    +0.000 C 
ATOM     19  N   UNL     1       6.004   6.329  17.501  0.00  0.00    +0.000 N 
ATOM     20  H   UNL     1       7.803   5.429  15.043  0.00  0.00    +0.000 HD
ATOM     21  H   UNL     1       5.717   6.979  18.223  0.00  0.00    +0.000 HD
ENDBRANCH   1  18
BRANCH   6  22
ATOM     22  C   UNL     1      -0.112   8.713  21.962  0.00  0.00    +0.000 C 
ATOM     23  C   UNL     1      -0.233   9.405  23.291  0.00  0.00    +0.000 C 
ATOM     24  C   UNL     1       0.075  10.204  22.060  0.00  0.00    +0.000 C 
ENDBRANCH   6  22
BRANCH   8  25
ATOM     25  O   UNL     1       1.997   9.884  17.513  0.00  0.00    +0.000 OA
BRANCH  25  26
ATOM     26  C   UNL     1       1.239  10.961  18.024  0.00  0.00    +0.000 A 
ATOM     27  C   UNL     1       1.930  12.051  18.547  0.00  0.00    +0.000 A 
ATOM     28  C   UNL     1       1.205  13.085  19.140  0.00  0.00    +0.000 A 
ATOM     29  F   UNL     1       1.857  14.126  19.677  0.00  0.00    +0.000 F 
ATOM     30  C   UNL     1      -0.187  13.048  19.214  0.00  0.00    +0.000 A 
ATOM     31  C   UNL     1      -0.873  11.950  18.697  0.00  0.00    +0.000 A 
ATOM     32  C   UNL     1      -0.157  10.903  18.124  0.00  0.00    +0.000 A 
ATOM     33  F   UNL     1      -0.832   9.824  17.704  0.00  0.00    +0.000 F 
ENDBRANCH  25  26
ENDBRANCH   8  25
TORSDOF 4
ENDMDL
MODEL 6
REMARK VINA RESULT:      -8.0      3.080      7.639
REMARK  Name = 
REMARK  4 active torsions:
REMARK  status: ('A' for Active; 'I' for Inactive)
REMARK    1  A    between atoms: C_7  and  C_8
REMARK    2  A    between atoms: N_13  and  C_14
REMARK    3  A    between atoms: C_18  and  O_19
REMARK    4  A    between atoms: O_19  and  C_20
REMARK                            x       y       z     vdW  Elec       q    Type
REMARK                         _______ _______ _______ _____ _____    ______ ____
ROOT
ATOM      1  C   UNL     1       3.404   5.325  18.720  0.00  0.00    +0.000 A 
ATOM      2  C   UNL     1       2.972   4.700  19.915  0.00  0.00    +0.000 A 
ATOM      3  N   UNL     1       2.302   5.534  20.727  0.00  0.00    +0.000 NA
ATOM      4  N   UNL     1       2.272   6.683  20.008  0.00  0.00    +0.000 N 
ATOM      5  C   UNL     1       1.594   7.853  20.400  0.00  0.00    +0.000 A 
ATOM      6  N   UNL     1       1.024   7.834  21.659  0.00  0.00    +0.000 N 
ATOM      7  N   UNL     1       1.563   8.854  19.561  0.00  0.00    +0.000 NA
ATOM      8  C   UNL     1       2.208   8.708  18.351  0.00  0.00    +0.000 A 
ATOM      9  N   UNL     1       2.923   7.686  17.983  0.00  0.00    +0.000 NA
ATOM     10  C   UNL     1       2.918   6.608  18.810  0.00  0.00    +0.000 A 
ATOM     11  H   UNL     1       1.124   6.944  22.148  0.00  0.00    +0.000 HD
ENDROOT
BRANCH   1  18
ATOM     12  O   UNL     1       7.935   7.380  16.853  0.00  0.00    +0.000 OA
ATOM     13  C   UNL     1       7.123   6.478  16.754  0.00  0.00    +0.000 C 
ATOM     14  N   UNL     1       7.133   5.467  15.831  0.00  0.00    +0.000 N 
ATOM     15  C   UNL     1       6.033   4.664  15.956  0.00  0.00    +0.000 C 
ATOM     16  O   UNL     1       5.710   3.719  15.262  0.00  0.00    +0.000 OA
ATOM     17  C   UNL     1       5.284   5.226  17.121  0.00  0.00    +0.000 C 
ATOM     18  C   UNL     1       4.130   4.763  17.624  0.00  0.00    +0.000 C 
ATOM     19  N   UNL     1       6.010   6.300  17.548  0.00  0.00    +0.000 N 
ATOM     20  H   UNL     1       7.830   5.384  15.112  0.00  0.00    +0.000 HD
ATOM     21  H   UNL     1       5.709   6.960  18.256  0.00  0.00    +0.000 HD
ENDBRANCH   1  18
BRANCH   6  22
ATOM     22  C   UNL     1      -0.122   8.684  21.961  0.00  0.00    +0.000 C 
ATOM     23  C   UNL     1      -0.275   9.359  23.296  0.00  0.00    +0.000 C 
ATOM     24  C   UNL     1       0.073  10.172  22.085  0.00  0.00    +0.000 C 
ENDBRANCH   6  22
BRANCH   8  25
ATOM     25  O   UNL     1       2.042   9.820  17.530  0.00  0.00    +0.000 OA
BRANCH  25  26
ATOM     26  C   UNL     1       1.343  10.931  18.051  0.00  0.00    +0.000 A 
ATOM     27  C   UNL     1      -0.023  10.789  18.280  0.00  0.00    +0.000 A 
ATOM     28  C   UNL     1      -0.751  11.899  18.708  0.00  0.00    +0.000 A 
ATOM     29  F   UNL     1      -2.073  11.788  18.901  0.00  0.00    +0.000 F 
ATOM     30  C   UNL     1      -0.141  13.136  18.912  0.00  0.00    +0.000 A 
ATOM     31  C   UNL     1       1.225  13.275  18.672  0.00  0.00    +0.000 A 
ATOM     32  C   UNL     1       1.956  12.178  18.223  0.00  0.00    +0.000 A 
ATOM     33  F   UNL     1       3.252  12.355  17.926  0.00  0.00    +0.000 F 
ENDBRANCH  25  26
ENDBRANCH   8  25
TORSDOF 4
ENDMDL
MODEL 7
REMARK VINA RESULT:      -8.0      3.280      8.162
REMARK  Name = 
REMARK  4 active torsions:
REMARK  status: ('A' for Active; 'I' for Inactive)
REMARK    1  A    between atoms: C_7  and  C_8
REMARK    2  A    between atoms: N_13  and  C_14
REMARK    3  A    between atoms: C_18  and  O_19
REMARK    4  A    between atoms: O_19  and  C_20
REMARK                            x       y       z     vdW  Elec       q    Type
REMARK                         _______ _______ _______ _____ _____    ______ ____
ROOT
ATOM      1  C   UNL     1       3.304   5.862  18.494  0.00  0.00    +0.000 A 
ATOM      2  C   UNL     1       3.214   5.218  19.753  0.00  0.00    +0.000 A 
ATOM      3  N   UNL     1       2.585   5.964  20.676  0.00  0.00    +0.000 NA
ATOM      4  N   UNL     1       2.235   7.069  19.972  0.00  0.00    +0.000 N 
ATOM      5  C   UNL     1       1.465   8.131  20.484  0.00  0.00    +0.000 A 
ATOM      6  N   UNL     1       1.156   8.066  21.830  0.00  0.00    +0.000 N 
ATOM      7  N   UNL     1       1.115   9.085  19.663  0.00  0.00    +0.000 NA
ATOM      8  C   UNL     1       1.532   9.000  18.351  0.00  0.00    +0.000 A 
ATOM      9  N   UNL     1       2.319   8.090  17.856  0.00  0.00    +0.000 NA
ATOM     10  C   UNL     1       2.645   7.055  18.672  0.00  0.00    +0.000 A 
ATOM     11  H   UNL     1       1.488   7.220  22.293  0.00  0.00    +0.000 HD
ENDROOT
BRANCH   1  18
ATOM     12  O   UNL     1       8.387   4.368  18.089  0.00  0.00    +0.000 OA
ATOM     13  C   UNL     1       7.321   4.478  17.511  0.00  0.00    +0.000 C 
ATOM     14  N   UNL     1       7.076   4.206  16.192  0.00  0.00    +0.000 N 
ATOM     15  C   UNL     1       5.786   4.506  15.850  0.00  0.00    +0.000 C 
ATOM     16  O   UNL     1       5.263   4.437  14.755  0.00  0.00    +0.000 OA
ATOM     17  C   UNL     1       5.157   4.977  17.122  0.00  0.00    +0.000 C 
ATOM     18  C   UNL     1       3.889   5.383  17.281  0.00  0.00    +0.000 C 
ATOM     19  N   UNL     1       6.140   4.917  18.069  0.00  0.00    +0.000 N 
ATOM     20  H   UNL     1       7.785   3.895  15.551  0.00  0.00    +0.000 HD
ATOM     21  H   UNL     1       6.058   5.275  19.013  0.00  0.00    +0.000 HD
ENDBRANCH   1  18
BRANCH   6  22
ATOM     22  C   UNL     1      -0.033   8.736  22.344  0.00  0.00    +0.000 C 
ATOM     23  C   UNL     1      -0.010   9.504  23.637  0.00  0.00    +0.000 C 
ATOM     24  C   UNL     1      -0.099  10.240  22.334  0.00  0.00    +0.000 C 
ENDBRANCH   6  22
BRANCH   8  25
ATOM     25  O   UNL     1       1.036  10.043  17.574  0.00  0.00    +0.000 OA
BRANCH  25  26
ATOM     26  C   UNL     1      -0.230  10.574  17.906  0.00  0.00    +0.000 A 
ATOM     27  C   UNL     1      -1.357   9.920  17.416  0.00  0.00    +0.000 A 
ATOM     28  C   UNL     1      -2.614  10.477  17.653  0.00  0.00    +0.000 A 
ATOM     29  F   UNL     1      -3.706   9.877  17.160  0.00  0.00    +0.000 F 
ATOM     30  C   UNL     1      -2.760  11.664  18.370  0.00  0.00    +0.000 A 
ATOM     31  C   UNL     1      -1.628  12.320  18.850  0.00  0.00    +0.000 A 
ATOM     32  C   UNL     1      -0.368  11.783  18.599  0.00  0.00    +0.000 A 
ATOM     33  F   UNL     1       0.710  12.471  19.004  0.00  0.00    +0.000 F 
ENDBRANCH  25  26
ENDBRANCH   8  25
TORSDOF 4
ENDMDL
MODEL 8
REMARK VINA RESULT:      -7.9      3.468      6.376
REMARK  Name = 
REMARK  4 active torsions:
REMARK  status: ('A' for Active; 'I' for Inactive)
REMARK    1  A    between atoms: C_7  and  C_8
REMARK    2  A    between atoms: N_13  and  C_14
REMARK    3  A    between atoms: C_18  and  O_19
REMARK    4  A    between atoms: O_19  and  C_20
REMARK                            x       y       z     vdW  Elec       q    Type
REMARK                         _______ _______ _______ _____ _____    ______ ____
ROOT
ATOM      1  C   UNL     1       2.912   7.995  17.808  0.00  0.00    +0.000 A 
ATOM      2  C   UNL     1       2.433   9.326  17.873  0.00  0.00    +0.000 A 
ATOM      3  N   UNL     1       1.532   9.509  18.852  0.00  0.00    +0.000 NA
ATOM      4  N   UNL     1       1.484   8.288  19.439  0.00  0.00    +0.000 N 
ATOM      5  C   UNL     1       0.734   7.984  20.591  0.00  0.00    +0.000 A 
ATOM      6  N   UNL     1      -0.086   8.990  21.067  0.00  0.00    +0.000 N 
ATOM      7  N   UNL     1       0.862   6.791  21.108  0.00  0.00    +0.000 NA
ATOM      8  C   UNL     1       1.711   5.900  20.487  0.00  0.00    +0.000 A 
ATOM      9  N   UNL     1       2.350   6.103  19.373  0.00  0.00    +0.000 NA
ATOM     10  C   UNL     1       2.284   7.354  18.850  0.00  0.00    +0.000 A 
ATOM     11  H   UNL     1      -0.017   9.865  20.546  0.00  0.00    +0.000 HD
ENDROOT
BRANCH   1  18
ATOM     12  O   UNL     1       6.759   4.678  19.368  0.00  0.00    +0.000 OA
ATOM     13  C   UNL     1       6.239   5.242  18.422  0.00  0.00    +0.000 C 
ATOM     14  N   UNL     1       6.650   5.199  17.117  0.00  0.00    +0.000 N 
ATOM     15  C   UNL     1       5.883   6.005  16.323  0.00  0.00    +0.000 C 
ATOM     16  O   UNL     1       6.016   6.238  15.137  0.00  0.00    +0.000 OA
ATOM     17  C   UNL     1       4.854   6.576  17.245  0.00  0.00    +0.000 C 
ATOM     18  C   UNL     1       3.874   7.429  16.914  0.00  0.00    +0.000 C 
ATOM     19  N   UNL     1       5.130   6.059  18.478  0.00  0.00    +0.000 N 
ATOM     20  H   UNL     1       7.462   4.691  16.812  0.00  0.00    +0.000 HD
ATOM     21  H   UNL     1       4.677   6.340  19.340  0.00  0.00    +0.000 HD
ENDBRANCH   1  18
BRANCH   6  22
ATOM     22  C   UNL     1      -0.456   9.032  22.476  0.00  0.00    +0.000 C 
ATOM     23  C   UNL     1       0.469   9.594  23.521  0.00  0.00    +0.000 C 
ATOM     24  C   UNL     1      -0.758  10.358  23.123  0.00  0.00    +0.000 C 
ENDBRANCH   6  22
BRANCH   8  25
ATOM     25  O   UNL     1       1.803   4.694  21.176  0.00  0.00    +0.000 OA
BRANCH  25  26
ATOM     26  C   UNL     1       2.217   3.550  20.459  0.00  0.00    +0.000 A 
ATOM     27  C   UNL     1       3.554   3.173  20.555  0.00  0.00    +0.000 A 
ATOM     28  C   UNL     1       4.008   2.102  19.785  0.00  0.00    +0.000 A 
ATOM     29  F   UNL     1       5.300   1.747  19.842  0.00  0.00    +0.000 F 
ATOM     30  C   UNL     1       3.153   1.406  18.932  0.00  0.00    +0.000 A 
ATOM     31  C   UNL     1       1.818   1.793  18.832  0.00  0.00    +0.000 A 
ATOM     32  C   UNL     1       1.361   2.875  19.580  0.00  0.00    +0.000 A 
ATOM     33  F   UNL     1       0.094   3.278  19.410  0.00  0.00    +0.000 F 
ENDBRANCH  25  26
ENDBRANCH   8  25
TORSDOF 4
ENDMDL
MODEL 9
REMARK VINA RESULT:      -7.9      4.054      8.680
REMARK  Name = 
REMARK  4 active torsions:
REMARK  status: ('A' for Active; 'I' for Inactive)
REMARK    1  A    between atoms: C_7  and  C_8
REMARK    2  A    between atoms: N_13  and  C_14
REMARK    3  A    between atoms: C_18  and  O_19
REMARK    4  A    between atoms: O_19  and  C_20
REMARK                            x       y       z     vdW  Elec       q    Type
REMARK                         _______ _______ _______ _____ _____    ______ ____
ROOT
ATOM      1  C   UNL     1       1.073   9.077  20.858  0.00  0.00    +0.000 A 
ATOM      2  C   UNL     1       0.892   8.894  22.252  0.00  0.00    +0.000 A 
ATOM      3  N   UNL     1       0.090   9.821  22.799  0.00  0.00    +0.000 NA
ATOM      4  N   UNL     1      -0.276  10.564  21.725  0.00  0.00    +0.000 N 
ATOM      5  C   UNL     1      -1.199  11.627  21.766  0.00  0.00    +0.000 A 
ATOM      6  N   UNL     1      -1.660  11.985  23.019  0.00  0.00    +0.000 N 
ATOM      7  N   UNL     1      -1.535  12.190  20.637  0.00  0.00    +0.000 NA
ATOM      8  C   UNL     1      -0.956  11.719  19.477  0.00  0.00    +0.000 A 
ATOM      9  N   UNL     1      -0.033  10.806  19.399  0.00  0.00    +0.000 NA
ATOM     10  C   UNL     1       0.288  10.162  20.551  0.00  0.00    +0.000 A 
ATOM     11  H   UNL     1      -1.308  11.398  23.777  0.00  0.00    +0.000 HD
ENDROOT
BRANCH   1  18
ATOM     12  O   UNL     1       2.152   3.927  21.603  0.00  0.00    +0.000 OA
ATOM     13  C   UNL     1       2.275   4.884  20.860  0.00  0.00    +0.000 C 
ATOM     14  N   UNL     1       2.968   4.919  19.680  0.00  0.00    +0.000 N 
ATOM     15  C   UNL     1       2.964   6.172  19.133  0.00  0.00    +0.000 C 
ATOM     16  O   UNL     1       3.529   6.555  18.127  0.00  0.00    +0.000 OA
ATOM     17  C   UNL     1       2.132   6.991  20.068  0.00  0.00    +0.000 C 
ATOM     18  C   UNL     1       1.843   8.294  19.943  0.00  0.00    +0.000 C 
ATOM     19  N   UNL     1       1.749   6.142  21.066  0.00  0.00    +0.000 N 
ATOM     20  H   UNL     1       3.473   4.131  19.314  0.00  0.00    +0.000 HD
ATOM     21  H   UNL     1       1.266   6.421  21.912  0.00  0.00    +0.000 HD
ENDBRANCH   1  18
BRANCH   6  22
ATOM     22  C   UNL     1      -2.960  12.628  23.168  0.00  0.00    +0.000 C 
ATOM     23  C   UNL     1      -3.818  12.407  24.384  0.00  0.00    +0.000 C 
ATOM     24  C   UNL     1      -3.131  13.725  24.186  0.00  0.00    +0.000 C 
ENDBRANCH   6  22
BRANCH   8  25
ATOM     25  O   UNL     1      -1.450  12.361  18.345  0.00  0.00    +0.000 OA
BRANCH  25  26
ATOM     26  C   UNL     1      -2.420  11.687  17.570  0.00  0.00    +0.000 A 
ATOM     27  C   UNL     1      -2.008  11.111  16.372  0.00  0.00    +0.000 A 
ATOM     28  C   UNL     1      -2.964  10.520  15.546  0.00  0.00    +0.000 A 
ATOM     29  F   UNL     1      -2.587   9.990  14.373  0.00  0.00    +0.000 F 
ATOM     30  C   UNL     1      -4.312  10.492  15.898  0.00  0.00    +0.000 A 
ATOM     31  C   UNL     1      -4.721  11.078  17.095  0.00  0.00    +0.000 A 
ATOM     32  C   UNL     1      -3.777  11.690  17.915  0.00  0.00    +0.000 A 
ATOM     33  F   UNL     1      -4.204  12.314  19.022  0.00  0.00    +0.000 F 
ENDBRANCH  25  26
ENDBRANCH   8  25
TORSDOF 4
ENDMDL
