MODEL 1
REMARK VINA RESULT:      -7.1      0.000      0.000
REMARK  Name = 
REMARK  9 active torsions:
REMARK  status: ('A' for Active; 'I' for Inactive)
REMARK    1  A    between atoms: C_1  and  C_2
REMARK    2  A    between atoms: C_5  and  C_6
REMARK    3  A    between atoms: C_7  and  S_8
REMARK    4  A    between atoms: S_8  and  N_11
REMARK    5  A    between atoms: N_11  and  C_12
REMARK    6  A    between atoms: N_11  and  C_13
REMARK    7  A    between atoms: C_13  and  C_14
REMARK    8  A    between atoms: N_16  and  C_17
REMARK    9  A    between atoms: C_17  and  C_18
REMARK                            x       y       z     vdW  Elec       q    Type
REMARK                         _______ _______ _______ _____ _____    ______ ____
ROOT
ATOM      1  N   UNL     1       5.863   4.960  18.293  0.00  0.00    +0.000 NA
ATOM      2  C   UNL     1       6.589   5.559  19.441  0.00  0.00    +0.000 C 
ENDROOT
BRANCH   1   3
ATOM      3  S   UNL     1       4.620   3.857  18.735  0.00  0.00    +0.000 S 
ATOM      4  O   UNL     1       5.148   3.007  19.779  0.00  0.00    +0.000 OA
ATOM      5  O   UNL     1       4.032   3.325  17.529  0.00  0.00    +0.000 OA
BRANCH   3  12
ATOM      6  C   UNL     1       2.526   2.931  21.216  0.00  0.00    +0.000 C 
ATOM      7  C   UNL     1       2.509   4.235  20.515  0.00  0.00    +0.000 A 
ATOM      8  N   UNL     1       1.602   5.160  20.857  0.00  0.00    +0.000 NA
ATOM      9  O   UNL     1       1.825   6.238  20.023  0.00  0.00    +0.000 OA
ATOM     10  C   UNL     1       2.852   5.959  19.173  0.00  0.00    +0.000 A 
ATOM     11  C   UNL     1       3.175   7.021  18.200  0.00  0.00    +0.000 C 
ATOM     12  C   UNL     1       3.326   4.703  19.463  0.00  0.00    +0.000 A 
ENDBRANCH   3  12
ENDBRANCH   1   3
BRANCH   1  13
ATOM     13  C   UNL     1       6.843   4.340  17.334  0.00  0.00    +0.000 C 
BRANCH  13  14
ATOM     14  C   UNL     1       6.893   5.002  15.969  0.00  0.00    +0.000 C 
ATOM     15  O   UNL     1       6.969   6.220  15.847  0.00  0.00    +0.000 OA
ATOM     16  N   UNL     1       6.803   4.129  14.906  0.00  0.00    +0.000 N 
ATOM     17  H   UNL     1       6.695   3.137  15.077  0.00  0.00    +0.000 HD
BRANCH  16  18
ATOM     18  C   UNL     1       6.906   4.597  13.544  0.00  0.00    +0.000 C 
BRANCH  18  19
ATOM     19  C   UNL     1       6.204   3.672  12.584  0.00  0.00    +0.000 A 
ATOM     20  C   UNL     1       4.856   3.882  12.258  0.00  0.00    +0.000 A 
ATOM     21  C   UNL     1       4.194   3.019  11.382  0.00  0.00    +0.000 A 
ATOM     22  C   UNL     1       4.872   1.938  10.827  0.00  0.00    +0.000 A 
ATOM     23  C   UNL     1       6.211   1.716  11.149  0.00  0.00    +0.000 A 
ATOM     24  C   UNL     1       6.873   2.576  12.025  0.00  0.00    +0.000 A 
ENDBRANCH  18  19
ENDBRANCH  16  18
ENDBRANCH  13  14
ENDBRANCH   1  13
TORSDOF 6
ENDMDL
MODEL 2
REMARK VINA RESULT:      -7.1      1.531      1.846
REMARK  Name = 
REMARK  9 active torsions:
REMARK  status: ('A' for Active; 'I' for Inactive)
REMARK    1  A    between atoms: C_1  and  C_2
REMARK    2  A    between atoms: C_5  and  C_6
REMARK    3  A    between atoms: C_7  and  S_8
REMARK    4  A    between atoms: S_8  and  N_11
REMARK    5  A    between atoms: N_11  and  C_12
REMARK    6  A    between atoms: N_11  and  C_13
REMARK    7  A    between atoms: C_13  and  C_14
REMARK    8  A    between atoms: N_16  and  C_17
REMARK    9  A    between atoms: C_17  and  C_18
REMARK                            x       y       z     vdW  Elec       q    Type
REMARK                         _______ _______ _______ _____ _____    ______ ____
ROOT
ATOM      1  N   UNL     1       5.029   4.453  17.580  0.00  0.00    +0.000 NA
ATOM      2  C   UNL     1       4.335   5.568  16.887  0.00  0.00    +0.000 C 
ENDROOT
BRANCH   1   3
ATOM      3  S   UNL     1       4.566   4.240  19.223  0.00  0.00    +0.000 S 
ATOM      4  O   UNL     1       4.667   5.529  19.871  0.00  0.00    +0.000 OA
ATOM      5  O   UNL     1       5.229   3.065  19.735  0.00  0.00    +0.000 OA
BRANCH   3  12
ATOM      6  C   UNL     1       2.880   1.665  17.835  0.00  0.00    +0.000 C 
ATOM      7  C   UNL     1       2.294   2.711  18.703  0.00  0.00    +0.000 A 
ATOM      8  N   UNL     1       0.987   2.679  18.992  0.00  0.00    +0.000 NA
ATOM      9  O   UNL     1       0.744   3.780  19.788  0.00  0.00    +0.000 OA
ATOM     10  C   UNL     1       1.898   4.482  19.969  0.00  0.00    +0.000 A 
ATOM     11  C   UNL     1       1.773   5.708  20.781  0.00  0.00    +0.000 C 
ATOM     12  C   UNL     1       2.911   3.827  19.311  0.00  0.00    +0.000 A 
ENDBRANCH   3  12
ENDBRANCH   1   3
BRANCH   1  13
ATOM     13  C   UNL     1       6.518   4.609  17.436  0.00  0.00    +0.000 C 
BRANCH  13  14
ATOM     14  C   UNL     1       6.972   5.078  16.066  0.00  0.00    +0.000 C 
ATOM     15  O   UNL     1       7.592   6.126  15.917  0.00  0.00    +0.000 OA
ATOM     16  N   UNL     1       6.594   4.257  15.025  0.00  0.00    +0.000 N 
ATOM     17  H   UNL     1       6.042   3.429  15.212  0.00  0.00    +0.000 HD
BRANCH  16  18
ATOM     18  C   UNL     1       7.009   4.529  13.669  0.00  0.00    +0.000 C 
BRANCH  18  19
ATOM     19  C   UNL     1       6.283   3.655  12.679  0.00  0.00    +0.000 A 
ATOM     20  C   UNL     1       4.929   3.885  12.393  0.00  0.00    +0.000 A 
ATOM     21  C   UNL     1       4.245   3.069  11.490  0.00  0.00    +0.000 A 
ATOM     22  C   UNL     1       4.907   2.014  10.868  0.00  0.00    +0.000 A 
ATOM     23  C   UNL     1       6.252   1.772  11.150  0.00  0.00    +0.000 A 
ATOM     24  C   UNL     1       6.936   2.586  12.053  0.00  0.00    +0.000 A 
ENDBRANCH  18  19
ENDBRANCH  16  18
ENDBRANCH  13  14
ENDBRANCH   1  13
TORSDOF 6
ENDMDL
MODEL 3
REMARK VINA RESULT:      -7.1      0.437      1.084
REMARK  Name = 
REMARK  9 active torsions:
REMARK  status: ('A' for Active; 'I' for Inactive)
REMARK    1  A    between atoms: C_1  and  C_2
REMARK    2  A    between atoms: C_5  and  C_6
REMARK    3  A    between atoms: C_7  and  S_8
REMARK    4  A    between atoms: S_8  and  N_11
REMARK    5  A    between atoms: N_11  and  C_12
REMARK    6  A    between atoms: N_11  and  C_13
REMARK    7  A    between atoms: C_13  and  C_14
REMARK    8  A    between atoms: N_16  and  C_17
REMARK    9  A    between atoms: C_17  and  C_18
REMARK                            x       y       z     vdW  Elec       q    Type
REMARK                         _______ _______ _______ _____ _____    ______ ____
ROOT
ATOM      1  N   UNL     1       5.867   5.133  18.230  0.00  0.00    +0.000 NA
ATOM      2  C   UNL     1       6.668   5.620  19.381  0.00  0.00    +0.000 C 
ENDROOT
BRANCH   1   3
ATOM      3  S   UNL     1       4.632   4.011  18.647  0.00  0.00    +0.000 S 
ATOM      4  O   UNL     1       5.170   3.135  19.665  0.00  0.00    +0.000 OA
ATOM      5  O   UNL     1       4.042   3.508  17.430  0.00  0.00    +0.000 OA
BRANCH   3  12
ATOM      6  C   UNL     1       2.612   3.040  21.172  0.00  0.00    +0.000 C 
ATOM      7  C   UNL     1       2.552   4.343  20.473  0.00  0.00    +0.000 A 
ATOM      8  N   UNL     1       1.634   5.249  20.835  0.00  0.00    +0.000 NA
ATOM      9  O   UNL     1       1.816   6.332  19.998  0.00  0.00    +0.000 OA
ATOM     10  C   UNL     1       2.830   6.075  19.125  0.00  0.00    +0.000 A 
ATOM     11  C   UNL     1       3.109   7.144  18.146  0.00  0.00    +0.000 C 
ATOM     12  C   UNL     1       3.337   4.829  19.404  0.00  0.00    +0.000 A 
ENDBRANCH   3  12
ENDBRANCH   1   3
BRANCH   1  13
ATOM     13  C   UNL     1       6.780   4.587  17.166  0.00  0.00    +0.000 C 
BRANCH  13  14
ATOM     14  C   UNL     1       6.520   5.133  15.773  0.00  0.00    +0.000 C 
ATOM     15  O   UNL     1       5.873   6.160  15.595  0.00  0.00    +0.000 OA
ATOM     16  N   UNL     1       7.030   4.361  14.751  0.00  0.00    +0.000 N 
ATOM     17  H   UNL     1       7.514   3.498  14.966  0.00  0.00    +0.000 HD
BRANCH  16  18
ATOM     18  C   UNL     1       6.927   4.783  13.374  0.00  0.00    +0.000 C 
BRANCH  18  19
ATOM     19  C   UNL     1       6.478   3.656  12.480  0.00  0.00    +0.000 A 
ATOM     20  C   UNL     1       7.423   2.808  11.883  0.00  0.00    +0.000 A 
ATOM     21  C   UNL     1       7.015   1.772  11.040  0.00  0.00    +0.000 A 
ATOM     22  C   UNL     1       5.660   1.576  10.785  0.00  0.00    +0.000 A 
ATOM     23  C   UNL     1       4.713   2.416  11.368  0.00  0.00    +0.000 A 
ATOM     24  C   UNL     1       5.118   3.453  12.209  0.00  0.00    +0.000 A 
ENDBRANCH  18  19
ENDBRANCH  16  18
ENDBRANCH  13  14
ENDBRANCH   1  13
TORSDOF 6
ENDMDL
MODEL 4
REMARK VINA RESULT:      -7.1      1.109      1.395
REMARK  Name = 
REMARK  9 active torsions:
REMARK  status: ('A' for Active; 'I' for Inactive)
REMARK    1  A    between atoms: C_1  and  C_2
REMARK    2  A    between atoms: C_5  and  C_6
REMARK    3  A    between atoms: C_7  and  S_8
REMARK    4  A    between atoms: S_8  and  N_11
REMARK    5  A    between atoms: N_11  and  C_12
REMARK    6  A    between atoms: N_11  and  C_13
REMARK    7  A    between atoms: C_13  and  C_14
REMARK    8  A    between atoms: N_16  and  C_17
REMARK    9  A    between atoms: C_17  and  C_18
REMARK                            x       y       z     vdW  Elec       q    Type
REMARK                         _______ _______ _______ _____ _____    ______ ____
ROOT
ATOM      1  N   UNL     1       5.044   4.092  17.525  0.00  0.00    +0.000 NA
ATOM      2  C   UNL     1       3.731   3.785  16.905  0.00  0.00    +0.000 C 
ENDROOT
BRANCH   1   3
ATOM      3  S   UNL     1       4.994   4.293  19.232  0.00  0.00    +0.000 S 
ATOM      4  O   UNL     1       5.896   5.372  19.568  0.00  0.00    +0.000 OA
ATOM      5  O   UNL     1       5.086   2.990  19.848  0.00  0.00    +0.000 OA
BRANCH   3  12
ATOM      6  C   UNL     1       2.676   2.850  21.218  0.00  0.00    +0.000 C 
ATOM      7  C   UNL     1       2.547   4.170  20.561  0.00  0.00    +0.000 A 
ATOM      8  N   UNL     1       1.433   4.892  20.737  0.00  0.00    +0.000 NA
ATOM      9  O   UNL     1       1.602   6.042  19.992  0.00  0.00    +0.000 OA
ATOM     10  C   UNL     1       2.808   6.008  19.358  0.00  0.00    +0.000 A 
ATOM     11  C   UNL     1       3.104   7.169  18.497  0.00  0.00    +0.000 C 
ATOM     12  C   UNL     1       3.447   4.843  19.707  0.00  0.00    +0.000 A 
ENDBRANCH   3  12
ENDBRANCH   1   3
BRANCH   1  13
ATOM     13  C   UNL     1       5.668   5.279  16.843  0.00  0.00    +0.000 C 
BRANCH  13  14
ATOM     14  C   UNL     1       6.724   4.928  15.810  0.00  0.00    +0.000 C 
ATOM     15  O   UNL     1       7.798   4.430  16.132  0.00  0.00    +0.000 OA
ATOM     16  N   UNL     1       6.388   5.253  14.513  0.00  0.00    +0.000 N 
ATOM     17  H   UNL     1       5.503   5.706  14.322  0.00  0.00    +0.000 HD
BRANCH  16  18
ATOM     18  C   UNL     1       7.257   4.918  13.410  0.00  0.00    +0.000 C 
BRANCH  18  19
ATOM     19  C   UNL     1       6.678   3.814  12.563  0.00  0.00    +0.000 A 
ATOM     20  C   UNL     1       5.287   3.668  12.446  0.00  0.00    +0.000 A 
ATOM     21  C   UNL     1       4.744   2.637  11.676  0.00  0.00    +0.000 A 
ATOM     22  C   UNL     1       5.584   1.742  11.019  0.00  0.00    +0.000 A 
ATOM     23  C   UNL     1       6.968   1.875  11.134  0.00  0.00    +0.000 A 
ATOM     24  C   UNL     1       7.513   2.902  11.904  0.00  0.00    +0.000 A 
ENDBRANCH  18  19
ENDBRANCH  16  18
ENDBRANCH  13  14
ENDBRANCH   1  13
TORSDOF 6
ENDMDL
MODEL 5
REMARK VINA RESULT:      -7.1      2.898      8.046
REMARK  Name = 
REMARK  9 active torsions:
REMARK  status: ('A' for Active; 'I' for Inactive)
REMARK    1  A    between atoms: C_1  and  C_2
REMARK    2  A    between atoms: C_5  and  C_6
REMARK    3  A    between atoms: C_7  and  S_8
REMARK    4  A    between atoms: S_8  and  N_11
REMARK    5  A    between atoms: N_11  and  C_12
REMARK    6  A    between atoms: N_11  and  C_13
REMARK    7  A    between atoms: C_13  and  C_14
REMARK    8  A    between atoms: N_16  and  C_17
REMARK    9  A    between atoms: C_17  and  C_18
REMARK                            x       y       z     vdW  Elec       q    Type
REMARK                         _______ _______ _______ _____ _____    ______ ____
ROOT
ATOM      1  N   UNL     1       4.142   5.841  18.833  0.00  0.00    +0.000 NA
ATOM      2  C   UNL     1       3.816   6.598  17.598  0.00  0.00    +0.000 C 
ENDROOT
BRANCH   1   3
ATOM      3  S   UNL     1       5.585   4.911  18.736  0.00  0.00    +0.000 S 
ATOM      4  O   UNL     1       5.201   3.543  18.469  0.00  0.00    +0.000 OA
ATOM      5  O   UNL     1       6.435   5.272  19.846  0.00  0.00    +0.000 OA
BRANCH   3  12
ATOM      6  C   UNL     1       5.747   3.578  15.638  0.00  0.00    +0.000 C 
ATOM      7  C   UNL     1       6.485   4.775  16.102  0.00  0.00    +0.000 A 
ATOM      8  N   UNL     1       7.301   5.420  15.257  0.00  0.00    +0.000 NA
ATOM      9  O   UNL     1       7.851   6.461  15.978  0.00  0.00    +0.000 OA
ATOM     10  C   UNL     1       7.379   6.437  17.256  0.00  0.00    +0.000 A 
ATOM     11  C   UNL     1       7.913   7.484  18.149  0.00  0.00    +0.000 C 
ATOM     12  C   UNL     1       6.495   5.392  17.372  0.00  0.00    +0.000 A 
ENDBRANCH   3  12
ENDBRANCH   1   3
BRANCH   1  13
ATOM     13  C   UNL     1       2.964   5.000  19.244  0.00  0.00    +0.000 C 
BRANCH  13  14
ATOM     14  C   UNL     1       1.992   5.693  20.181  0.00  0.00    +0.000 C 
ATOM     15  O   UNL     1       1.104   5.076  20.761  0.00  0.00    +0.000 OA
ATOM     16  N   UNL     1       2.170   7.057  20.285  0.00  0.00    +0.000 N 
ATOM     17  H   UNL     1       2.894   7.512  19.743  0.00  0.00    +0.000 HD
BRANCH  16  18
ATOM     18  C   UNL     1       1.371   7.848  21.191  0.00  0.00    +0.000 C 
BRANCH  18  19
ATOM     19  C   UNL     1       0.876   9.111  20.536  0.00  0.00    +0.000 A 
ATOM     20  C   UNL     1       0.121  10.039  21.269  0.00  0.00    +0.000 A 
ATOM     21  C   UNL     1      -0.356  11.203  20.664  0.00  0.00    +0.000 A 
ATOM     22  C   UNL     1      -0.085  11.450  19.321  0.00  0.00    +0.000 A 
ATOM     23  C   UNL     1       0.660  10.532  18.581  0.00  0.00    +0.000 A 
ATOM     24  C   UNL     1       1.135   9.366  19.183  0.00  0.00    +0.000 A 
ENDBRANCH  18  19
ENDBRANCH  16  18
ENDBRANCH  13  14
ENDBRANCH   1  13
TORSDOF 6
ENDMDL
MODEL 6
REMARK VINA RESULT:      -7.0      3.247      6.577
REMARK  Name = 
REMARK  9 active torsions:
REMARK  status: ('A' for Active; 'I' for Inactive)
REMARK    1  A    between atoms: C_1  and  C_2
REMARK    2  A    between atoms: C_5  and  C_6
REMARK    3  A    between atoms: C_7  and  S_8
REMARK    4  A    between atoms: S_8  and  N_11
REMARK    5  A    between atoms: N_11  and  C_12
REMARK    6  A    between atoms: N_11  and  C_13
REMARK    7  A    between atoms: C_13  and  C_14
REMARK    8  A    between atoms: N_16  and  C_17
REMARK    9  A    between atoms: C_17  and  C_18
REMARK                            x       y       z     vdW  Elec       q    Type
REMARK                         _______ _______ _______ _____ _____    ______ ____
ROOT
ATOM      1  N   UNL     1       4.604   3.735  17.761  0.00  0.00    +0.000 NA
ATOM      2  C   UNL     1       4.790   4.067  16.326  0.00  0.00    +0.000 C 
ENDROOT
BRANCH   1   3
ATOM      3  S   UNL     1       3.035   3.156  18.159  0.00  0.00    +0.000 S 
ATOM      4  O   UNL     1       2.926   1.811  17.640  0.00  0.00    +0.000 OA
ATOM      5  O   UNL     1       2.074   4.186  17.843  0.00  0.00    +0.000 OA
BRANCH   3  12
ATOM      6  C   UNL     1       0.771   4.462  20.297  0.00  0.00    +0.000 C 
ATOM      7  C   UNL     1       1.890   3.568  20.667  0.00  0.00    +0.000 A 
ATOM      8  N   UNL     1       2.065   3.219  21.949  0.00  0.00    +0.000 NA
ATOM      9  O   UNL     1       3.184   2.412  21.976  0.00  0.00    +0.000 OA
ATOM     10  C   UNL     1       3.692   2.285  20.718  0.00  0.00    +0.000 A 
ATOM     11  C   UNL     1       4.917   1.469  20.608  0.00  0.00    +0.000 C 
ATOM     12  C   UNL     1       2.890   2.990  19.854  0.00  0.00    +0.000 A 
ENDBRANCH   3  12
ENDBRANCH   1   3
BRANCH   1  13
ATOM     13  C   UNL     1       4.997   4.911  18.614  0.00  0.00    +0.000 C 
BRANCH  13  14
ATOM     14  C   UNL     1       4.657   6.263  18.015  0.00  0.00    +0.000 C 
ATOM     15  O   UNL     1       5.479   6.906  17.369  0.00  0.00    +0.000 OA
ATOM     16  N   UNL     1       3.383   6.710  18.295  0.00  0.00    +0.000 N 
ATOM     17  H   UNL     1       2.770   6.150  18.874  0.00  0.00    +0.000 HD
BRANCH  16  18
ATOM     18  C   UNL     1       2.885   7.946  17.738  0.00  0.00    +0.000 C 
BRANCH  18  19
ATOM     19  C   UNL     1       1.871   8.595  18.644  0.00  0.00    +0.000 A 
ATOM     20  C   UNL     1       1.758   8.189  19.983  0.00  0.00    +0.000 A 
ATOM     21  C   UNL     1       0.809   8.774  20.824  0.00  0.00    +0.000 A 
ATOM     22  C   UNL     1      -0.036   9.767  20.335  0.00  0.00    +0.000 A 
ATOM     23  C   UNL     1       0.064  10.173  19.004  0.00  0.00    +0.000 A 
ATOM     24  C   UNL     1       1.010   9.588  18.162  0.00  0.00    +0.000 A 
ENDBRANCH  18  19
ENDBRANCH  16  18
ENDBRANCH  13  14
ENDBRANCH   1  13
TORSDOF 6
ENDMDL
MODEL 7
REMARK VINA RESULT:      -7.0      3.443      7.576
REMARK  Name = 
REMARK  9 active torsions:
REMARK  status: ('A' for Active; 'I' for Inactive)
REMARK    1  A    between atoms: C_1  and  C_2
REMARK    2  A    between atoms: C_5  and  C_6
REMARK    3  A    between atoms: C_7  and  S_8
REMARK    4  A    between atoms: S_8  and  N_11
REMARK    5  A    between atoms: N_11  and  C_12
REMARK    6  A    between atoms: N_11  and  C_13
REMARK    7  A    between atoms: C_13  and  C_14
REMARK    8  A    between atoms: N_16  and  C_17
REMARK    9  A    between atoms: C_17  and  C_18
REMARK                            x       y       z     vdW  Elec       q    Type
REMARK                         _______ _______ _______ _____ _____    ______ ____
ROOT
ATOM      1  N   UNL     1       3.668   4.791  18.386  0.00  0.00    +0.000 NA
ATOM      2  C   UNL     1       2.687   4.338  17.368  0.00  0.00    +0.000 C 
ENDROOT
BRANCH   1   3
ATOM      3  S   UNL     1       5.289   4.314  18.072  0.00  0.00    +0.000 S 
ATOM      4  O   UNL     1       5.298   3.620  16.803  0.00  0.00    +0.000 OA
ATOM      5  O   UNL     1       5.834   3.730  19.275  0.00  0.00    +0.000 OA
BRANCH   3  12
ATOM      6  C   UNL     1       5.132   6.711  15.700  0.00  0.00    +0.000 C 
ATOM      7  C   UNL     1       6.111   6.659  16.809  0.00  0.00    +0.000 A 
ATOM      8  N   UNL     1       7.035   7.621  16.924  0.00  0.00    +0.000 NA
ATOM      9  O   UNL     1       7.800   7.286  18.023  0.00  0.00    +0.000 OA
ATOM     10  C   UNL     1       7.348   6.119  18.561  0.00  0.00    +0.000 A 
ATOM     11  C   UNL     1       8.101   5.627  19.732  0.00  0.00    +0.000 C 
ATOM     12  C   UNL     1       6.265   5.696  17.830  0.00  0.00    +0.000 A 
ENDBRANCH   3  12
ENDBRANCH   1   3
BRANCH   1  13
ATOM     13  C   UNL     1       3.216   4.365  19.757  0.00  0.00    +0.000 C 
BRANCH  13  14
ATOM     14  C   UNL     1       2.140   5.244  20.367  0.00  0.00    +0.000 C 
ATOM     15  O   UNL     1       1.050   4.790  20.699  0.00  0.00    +0.000 OA
ATOM     16  N   UNL     1       2.479   6.577  20.469  0.00  0.00    +0.000 N 
ATOM     17  H   UNL     1       3.380   6.894  20.133  0.00  0.00    +0.000 HD
BRANCH  16  18
ATOM     18  C   UNL     1       1.589   7.528  21.093  0.00  0.00    +0.000 C 
BRANCH  18  19
ATOM     19  C   UNL     1       1.178   8.615  20.134  0.00  0.00    +0.000 A 
ATOM     20  C   UNL     1       0.242   9.584  20.523  0.00  0.00    +0.000 A 
ATOM     21  C   UNL     1      -0.157  10.584  19.634  0.00  0.00    +0.000 A 
ATOM     22  C   UNL     1       0.374  10.622  18.347  0.00  0.00    +0.000 A 
ATOM     23  C   UNL     1       1.300   9.659  17.947  0.00  0.00    +0.000 A 
ATOM     24  C   UNL     1       1.698   8.658  18.834  0.00  0.00    +0.000 A 
ENDBRANCH  18  19
ENDBRANCH  16  18
ENDBRANCH  13  14
ENDBRANCH   1  13
TORSDOF 6
ENDMDL
MODEL 8
REMARK VINA RESULT:      -7.0      2.648      7.863
REMARK  Name = 
REMARK  9 active torsions:
REMARK  status: ('A' for Active; 'I' for Inactive)
REMARK    1  A    between atoms: C_1  and  C_2
REMARK    2  A    between atoms: C_5  and  C_6
REMARK    3  A    between atoms: C_7  and  S_8
REMARK    4  A    between atoms: S_8  and  N_11
REMARK    5  A    between atoms: N_11  and  C_12
REMARK    6  A    between atoms: N_11  and  C_13
REMARK    7  A    between atoms: C_13  and  C_14
REMARK    8  A    between atoms: N_16  and  C_17
REMARK    9  A    between atoms: C_17  and  C_18
REMARK                            x       y       z     vdW  Elec       q    Type
REMARK                         _______ _______ _______ _____ _____    ______ ____
ROOT
ATOM      1  N   UNL     1       3.942   5.355  18.693  0.00  0.00    +0.000 NA
ATOM      2  C   UNL     1       2.839   5.743  17.778  0.00  0.00    +0.000 C 
ENDROOT
BRANCH   1   3
ATOM      3  S   UNL     1       5.068   4.245  18.019  0.00  0.00    +0.000 S 
ATOM      4  O   UNL     1       4.324   3.325  17.187  0.00  0.00    +0.000 OA
ATOM      5  O   UNL     1       5.951   3.795  19.069  0.00  0.00    +0.000 OA
BRANCH   3  12
ATOM      6  C   UNL     1       7.484   6.521  18.639  0.00  0.00    +0.000 C 
ATOM      7  C   UNL     1       7.117   5.995  17.305  0.00  0.00    +0.000 A 
ATOM      8  N   UNL     1       7.769   6.429  16.218  0.00  0.00    +0.000 NA
ATOM      9  O   UNL     1       7.194   5.782  15.144  0.00  0.00    +0.000 OA
ATOM     10  C   UNL     1       6.189   4.970  15.579  0.00  0.00    +0.000 A 
ATOM     11  C   UNL     1       5.464   4.237  14.522  0.00  0.00    +0.000 C 
ATOM     12  C   UNL     1       6.118   5.063  16.948  0.00  0.00    +0.000 A 
ENDBRANCH   3  12
ENDBRANCH   1   3
BRANCH   1  13
ATOM     13  C   UNL     1       3.375   4.853  19.994  0.00  0.00    +0.000 C 
BRANCH  13  14
ATOM     14  C   UNL     1       2.109   5.560  20.443  0.00  0.00    +0.000 C 
ATOM     15  O   UNL     1       1.047   4.960  20.571  0.00  0.00    +0.000 OA
ATOM     16  N   UNL     1       2.252   6.917  20.646  0.00  0.00    +0.000 N 
ATOM     17  H   UNL     1       3.146   7.359  20.477  0.00  0.00    +0.000 HD
BRANCH  16  18
ATOM     18  C   UNL     1       1.157   7.717  21.142  0.00  0.00    +0.000 C 
BRANCH  18  19
ATOM     19  C   UNL     1       0.965   8.965  20.321  0.00  0.00    +0.000 A 
ATOM     20  C   UNL     1       0.248  10.052  20.843  0.00  0.00    +0.000 A 
ATOM     21  C   UNL     1       0.051  11.206  20.081  0.00  0.00    +0.000 A 
ATOM     22  C   UNL     1       0.566  11.282  18.790  0.00  0.00    +0.000 A 
ATOM     23  C   UNL     1       1.275  10.205  18.258  0.00  0.00    +0.000 A 
ATOM     24  C   UNL     1       1.471   9.051  19.017  0.00  0.00    +0.000 A 
ENDBRANCH  18  19
ENDBRANCH  16  18
ENDBRANCH  13  14
ENDBRANCH   1  13
TORSDOF 6
ENDMDL
MODEL 9
REMARK VINA RESULT:      -7.0      1.054      1.679
REMARK  Name = 
REMARK  9 active torsions:
REMARK  status: ('A' for Active; 'I' for Inactive)
REMARK    1  A    between atoms: C_1  and  C_2
REMARK    2  A    between atoms: C_5  and  C_6
REMARK    3  A    between atoms: C_7  and  S_8
REMARK    4  A    between atoms: S_8  and  N_11
REMARK    5  A    between atoms: N_11  and  C_12
REMARK    6  A    between atoms: N_11  and  C_13
REMARK    7  A    between atoms: C_13  and  C_14
REMARK    8  A    between atoms: N_16  and  C_17
REMARK    9  A    between atoms: C_17  and  C_18
REMARK                            x       y       z     vdW  Elec       q    Type
REMARK                         _______ _______ _______ _____ _____    ______ ____
ROOT
ATOM      1  N   UNL     1       5.008   4.088  17.590  0.00  0.00    +0.000 NA
ATOM      2  C   UNL     1       3.696   3.812  16.951  0.00  0.00    +0.000 C 
ENDROOT
BRANCH   1   3
ATOM      3  S   UNL     1       4.947   4.237  19.302  0.00  0.00    +0.000 S 
ATOM      4  O   UNL     1       5.846   5.306  19.676  0.00  0.00    +0.000 OA
ATOM      5  O   UNL     1       5.037   2.916  19.879  0.00  0.00    +0.000 OA
BRANCH   3  12
ATOM      6  C   UNL     1       2.627   2.741  21.246  0.00  0.00    +0.000 C 
ATOM      7  C   UNL     1       2.496   4.075  20.619  0.00  0.00    +0.000 A 
ATOM      8  N   UNL     1       1.379   4.790  20.808  0.00  0.00    +0.000 NA
ATOM      9  O   UNL     1       1.547   5.957  20.091  0.00  0.00    +0.000 OA
ATOM     10  C   UNL     1       2.755   5.941  19.460  0.00  0.00    +0.000 A 
ATOM     11  C   UNL     1       3.051   7.123  18.627  0.00  0.00    +0.000 C 
ATOM     12  C   UNL     1       3.397   4.771  19.784  0.00  0.00    +0.000 A 
ENDBRANCH   3  12
ENDBRANCH   1   3
BRANCH   1  13
ATOM     13  C   UNL     1       5.647   5.290  16.949  0.00  0.00    +0.000 C 
BRANCH  13  14
ATOM     14  C   UNL     1       6.687   4.960  15.893  0.00  0.00    +0.000 C 
ATOM     15  O   UNL     1       7.825   4.616  16.196  0.00  0.00    +0.000 OA
ATOM     16  N   UNL     1       6.256   5.123  14.594  0.00  0.00    +0.000 N 
ATOM     17  H   UNL     1       5.317   5.456  14.413  0.00  0.00    +0.000 HD
BRANCH  16  18
ATOM     18  C   UNL     1       7.106   4.783  13.477  0.00  0.00    +0.000 C 
BRANCH  18  19
ATOM     19  C   UNL     1       6.460   3.757  12.581  0.00  0.00    +0.000 A 
ATOM     20  C   UNL     1       7.241   2.774  11.954  0.00  0.00    +0.000 A 
ATOM     21  C   UNL     1       6.653   1.831  11.109  0.00  0.00    +0.000 A 
ATOM     22  C   UNL     1       5.280   1.863  10.882  0.00  0.00    +0.000 A 
ATOM     23  C   UNL     1       4.494   2.839  11.495  0.00  0.00    +0.000 A 
ATOM     24  C   UNL     1       5.081   3.783  12.338  0.00  0.00    +0.000 A 
ENDBRANCH  18  19
ENDBRANCH  16  18
ENDBRANCH  13  14
ENDBRANCH   1  13
TORSDOF 6
ENDMDL
