MODEL 1
REMARK VINA RESULT:      -8.1      0.000      0.000
REMARK  Name = 
REMARK  4 active torsions:
REMARK  status: ('A' for Active; 'I' for Inactive)
REMARK    1  A    between atoms: N_3  and  C_4
REMARK    2  A    between atoms: C_4  and  C_5
REMARK    3  A    between atoms: N_20  and  C_21
REMARK    4  A    between atoms: C_21  and  C_22
REMARK                            x       y       z     vdW  Elec       q    Type
REMARK                         _______ _______ _______ _____ _____    ______ ____
ROOT
ATOM      1  O   UNL     1       4.442   6.683  16.810  0.00  0.00    +0.000 OA
ATOM      2  C   UNL     1       3.943   5.753  17.419  0.00  0.00    +0.000 C 
ATOM      3  N   UNL     1       4.627   4.481  17.421  0.00  0.00    +0.000 N 
ATOM      4  C   UNL     1       4.007   3.329  17.905  0.00  0.00    +0.000 A 
ATOM      5  C   UNL     1       4.505   2.040  17.914  0.00  0.00    +0.000 A 
ATOM      6  C   UNL     1       3.471   1.185  18.399  0.00  0.00    +0.000 A 
ATOM      7  C   UNL     1       2.386   1.969  18.702  0.00  0.00    +0.000 A 
ATOM      8  N   UNL     1       2.760   3.250  18.440  0.00  0.00    +0.000 N 
ATOM      9  S   UNL     1       1.826   4.635  18.522  0.00  0.00    +0.000 S 
ATOM     10  O   UNL     1       1.318   4.633  19.876  0.00  0.00    +0.000 OA
ATOM     11  O   UNL     1       0.971   4.531  17.364  0.00  0.00    +0.000 OA
ATOM     12  N   UNL     1       2.867   5.913  18.292  0.00  0.00    +0.000 N 
ENDROOT
BRANCH   3  13
ATOM     13  C   UNL     1       6.056   4.503  17.027  0.00  0.00    +0.000 C 
BRANCH  13  14
ATOM     14  C   UNL     1       6.294   4.477  15.537  0.00  0.00    +0.000 A 
ATOM     15  C   UNL     1       5.447   3.682  14.738  0.00  0.00    +0.000 A 
ATOM     16  C   UNL     1       5.657   3.571  13.361  0.00  0.00    +0.000 A 
ATOM     17  C   UNL     1       6.710   4.256  12.761  0.00  0.00    +0.000 A 
ATOM     18  C   UNL     1       7.533   5.067  13.537  0.00  0.00    +0.000 A 
ATOM     19 CL   UNL     1       8.821   5.937  12.801  0.00  0.00    +0.000 Cl
ATOM     20  C   UNL     1       7.329   5.180  14.912  0.00  0.00    +0.000 A 
ENDBRANCH  13  14
ENDBRANCH   3  13
BRANCH  12  21
ATOM     21  C   UNL     1       2.975   6.909  19.373  0.00  0.00    +0.000 C 
BRANCH  21  22
ATOM     22  C   UNL     1       2.007   8.059  19.284  0.00  0.00    +0.000 A 
ATOM     23  C   UNL     1       1.760   8.686  18.052  0.00  0.00    +0.000 A 
ATOM     24  C   UNL     1       0.817   9.714  17.951  0.00  0.00    +0.000 A 
ATOM     25  C   UNL     1       0.114  10.127  19.080  0.00  0.00    +0.000 A 
ATOM     26  C   UNL     1       0.360   9.511  20.299  0.00  0.00    +0.000 A 
ATOM     27  F   UNL     1      -0.318   9.903  21.385  0.00  0.00    +0.000 F 
ATOM     28  C   UNL     1       1.294   8.484  20.414  0.00  0.00    +0.000 A 
ENDBRANCH  21  22
ENDBRANCH  12  21
TORSDOF 4
ENDMDL
MODEL 2
REMARK VINA RESULT:      -8.0      0.986      1.338
REMARK  Name = 
REMARK  4 active torsions:
REMARK  status: ('A' for Active; 'I' for Inactive)
REMARK    1  A    between atoms: N_3  and  C_4
REMARK    2  A    between atoms: C_4  and  C_5
REMARK    3  A    between atoms: N_20  and  C_21
REMARK    4  A    between atoms: C_21  and  C_22
REMARK                            x       y       z     vdW  Elec       q    Type
REMARK                         _______ _______ _______ _____ _____    ______ ____
ROOT
ATOM      1  O   UNL     1       4.532   6.586  16.708  0.00  0.00    +0.000 OA
ATOM      2  C   UNL     1       4.017   5.672  17.328  0.00  0.00    +0.000 C 
ATOM      3  N   UNL     1       4.674   4.386  17.337  0.00  0.00    +0.000 N 
ATOM      4  C   UNL     1       4.033   3.251  17.833  0.00  0.00    +0.000 A 
ATOM      5  C   UNL     1       4.504   1.952  17.850  0.00  0.00    +0.000 A 
ATOM      6  C   UNL     1       3.455   1.123  18.348  0.00  0.00    +0.000 A 
ATOM      7  C   UNL     1       2.388   1.933  18.651  0.00  0.00    +0.000 A 
ATOM      8  N   UNL     1       2.787   3.203  18.376  0.00  0.00    +0.000 N 
ATOM      9  S   UNL     1       1.884   4.608  18.452  0.00  0.00    +0.000 S 
ATOM     10  O   UNL     1       1.383   4.628  19.809  0.00  0.00    +0.000 OA
ATOM     11  O   UNL     1       1.020   4.513  17.300  0.00  0.00    +0.000 OA
ATOM     12  N   UNL     1       2.951   5.862  18.205  0.00  0.00    +0.000 N 
ENDROOT
BRANCH   3  13
ATOM     13  C   UNL     1       6.102   4.374  16.934  0.00  0.00    +0.000 C 
BRANCH  13  14
ATOM     14  C   UNL     1       6.329   4.365  15.443  0.00  0.00    +0.000 A 
ATOM     15  C   UNL     1       7.479   5.005  14.936  0.00  0.00    +0.000 A 
ATOM     16  C   UNL     1       7.710   5.080  13.560  0.00  0.00    +0.000 A 
ATOM     17  C   UNL     1       6.802   4.513  12.671  0.00  0.00    +0.000 A 
ATOM     18  C   UNL     1       5.680   3.852  13.161  0.00  0.00    +0.000 A 
ATOM     19 CL   UNL     1       4.566   3.127  12.071  0.00  0.00    +0.000 Cl
ATOM     20  C   UNL     1       5.443   3.775  14.534  0.00  0.00    +0.000 A 
ENDBRANCH  13  14
ENDBRANCH   3  13
BRANCH  12  21
ATOM     21  C   UNL     1       3.085   6.864  19.277  0.00  0.00    +0.000 C 
BRANCH  21  22
ATOM     22  C   UNL     1       2.103   8.003  19.218  0.00  0.00    +0.000 A 
ATOM     23  C   UNL     1       1.875   8.682  18.010  0.00  0.00    +0.000 A 
ATOM     24  C   UNL     1       0.919   9.701  17.932  0.00  0.00    +0.000 A 
ATOM     25  C   UNL     1       0.185  10.053  19.062  0.00  0.00    +0.000 A 
ATOM     26  C   UNL     1       0.413   9.386  20.258  0.00  0.00    +0.000 A 
ATOM     27  F   UNL     1      -0.296   9.720  21.344  0.00  0.00    +0.000 F 
ATOM     28  C   UNL     1       1.359   8.367  20.349  0.00  0.00    +0.000 A 
ENDBRANCH  21  22
ENDBRANCH  12  21
TORSDOF 4
ENDMDL
MODEL 3
REMARK VINA RESULT:      -7.7      2.185      2.735
REMARK  Name = 
REMARK  4 active torsions:
REMARK  status: ('A' for Active; 'I' for Inactive)
REMARK    1  A    between atoms: N_3  and  C_4
REMARK    2  A    between atoms: C_4  and  C_5
REMARK    3  A    between atoms: N_20  and  C_21
REMARK    4  A    between atoms: C_21  and  C_22
REMARK                            x       y       z     vdW  Elec       q    Type
REMARK                         _______ _______ _______ _____ _____    ______ ____
ROOT
ATOM      1  O   UNL     1       2.833   6.947  17.370  0.00  0.00    +0.000 OA
ATOM      2  C   UNL     1       2.828   5.908  18.008  0.00  0.00    +0.000 C 
ATOM      3  N   UNL     1       3.684   4.828  17.577  0.00  0.00    +0.000 N 
ATOM      4  C   UNL     1       3.563   3.549  18.120  0.00  0.00    +0.000 A 
ATOM      5  C   UNL     1       4.261   2.409  17.768  0.00  0.00    +0.000 A 
ATOM      6  C   UNL     1       3.715   1.325  18.516  0.00  0.00    +0.000 A 
ATOM      7  C   UNL     1       2.726   1.828  19.324  0.00  0.00    +0.000 A 
ATOM      8  N   UNL     1       2.697   3.168  19.096  0.00  0.00    +0.000 N 
ATOM      9  S   UNL     1       1.632   4.298  19.718  0.00  0.00    +0.000 S 
ATOM     10  O   UNL     1       1.749   4.136  21.151  0.00  0.00    +0.000 OA
ATOM     11  O   UNL     1       0.409   4.038  18.997  0.00  0.00    +0.000 OA
ATOM     12  N   UNL     1       2.208   5.788  19.251  0.00  0.00    +0.000 N 
ENDROOT
BRANCH   3  13
ATOM     13  C   UNL     1       4.783   5.191  16.648  0.00  0.00    +0.000 C 
BRANCH  13  14
ATOM     14  C   UNL     1       6.000   5.776  17.319  0.00  0.00    +0.000 A 
ATOM     15  C   UNL     1       6.757   4.950  18.174  0.00  0.00    +0.000 A 
ATOM     16  C   UNL     1       7.858   5.455  18.870  0.00  0.00    +0.000 A 
ATOM     17  C   UNL     1       8.224   6.790  18.717  0.00  0.00    +0.000 A 
ATOM     18  C   UNL     1       7.503   7.606  17.852  0.00  0.00    +0.000 A 
ATOM     19 CL   UNL     1       7.963   9.248  17.637  0.00  0.00    +0.000 Cl
ATOM     20  C   UNL     1       6.401   7.108  17.156  0.00  0.00    +0.000 A 
ENDBRANCH  13  14
ENDBRANCH   3  13
BRANCH  12  21
ATOM     21  C   UNL     1       2.561   6.746  20.313  0.00  0.00    +0.000 C 
BRANCH  21  22
ATOM     22  C   UNL     1       1.593   7.884  20.498  0.00  0.00    +0.000 A 
ATOM     23  C   UNL     1       1.464   8.876  19.511  0.00  0.00    +0.000 A 
ATOM     24  C   UNL     1       0.523   9.901  19.647  0.00  0.00    +0.000 A 
ATOM     25  C   UNL     1      -0.295   9.949  20.773  0.00  0.00    +0.000 A 
ATOM     26  C   UNL     1      -0.166   8.973  21.751  0.00  0.00    +0.000 A 
ATOM     27  F   UNL     1      -0.956   9.014  22.831  0.00  0.00    +0.000 F 
ATOM     28  C   UNL     1       0.764   7.943  21.626  0.00  0.00    +0.000 A 
ENDBRANCH  21  22
ENDBRANCH  12  21
TORSDOF 4
ENDMDL
MODEL 4
REMARK VINA RESULT:      -7.6      2.251      2.918
REMARK  Name = 
REMARK  4 active torsions:
REMARK  status: ('A' for Active; 'I' for Inactive)
REMARK    1  A    between atoms: N_3  and  C_4
REMARK    2  A    between atoms: C_4  and  C_5
REMARK    3  A    between atoms: N_20  and  C_21
REMARK    4  A    between atoms: C_21  and  C_22
REMARK                            x       y       z     vdW  Elec       q    Type
REMARK                         _______ _______ _______ _____ _____    ______ ____
ROOT
ATOM      1  O   UNL     1       2.760   6.911  17.387  0.00  0.00    +0.000 OA
ATOM      2  C   UNL     1       2.776   5.879  18.035  0.00  0.00    +0.000 C 
ATOM      3  N   UNL     1       3.647   4.808  17.610  0.00  0.00    +0.000 N 
ATOM      4  C   UNL     1       3.550   3.534  18.168  0.00  0.00    +0.000 A 
ATOM      5  C   UNL     1       4.263   2.401  17.824  0.00  0.00    +0.000 A 
ATOM      6  C   UNL     1       3.740   1.316  18.588  0.00  0.00    +0.000 A 
ATOM      7  C   UNL     1       2.748   1.813  19.397  0.00  0.00    +0.000 A 
ATOM      8  N   UNL     1       2.696   3.150  19.155  0.00  0.00    +0.000 N 
ATOM      9  S   UNL     1       1.617   4.270  19.771  0.00  0.00    +0.000 S 
ATOM     10  O   UNL     1       1.746   4.125  21.205  0.00  0.00    +0.000 OA
ATOM     11  O   UNL     1       0.394   3.981  19.062  0.00  0.00    +0.000 OA
ATOM     12  N   UNL     1       2.166   5.763  19.284  0.00  0.00    +0.000 N 
ENDROOT
BRANCH   3  13
ATOM     13  C   UNL     1       4.733   5.178  16.670  0.00  0.00    +0.000 C 
BRANCH  13  14
ATOM     14  C   UNL     1       5.959   5.758  17.330  0.00  0.00    +0.000 A 
ATOM     15  C   UNL     1       6.727   4.923  18.168  0.00  0.00    +0.000 A 
ATOM     16  C   UNL     1       7.838   5.422  18.853  0.00  0.00    +0.000 A 
ATOM     17  C   UNL     1       8.202   6.758  18.707  0.00  0.00    +0.000 A 
ATOM     18  C   UNL     1       7.470   7.581  17.858  0.00  0.00    +0.000 A 
ATOM     19 CL   UNL     1       7.928   9.226  17.652  0.00  0.00    +0.000 Cl
ATOM     20  C   UNL     1       6.359   7.090  17.173  0.00  0.00    +0.000 A 
ENDBRANCH  13  14
ENDBRANCH   3  13
BRANCH  12  21
ATOM     21  C   UNL     1       2.511   6.739  20.333  0.00  0.00    +0.000 C 
BRANCH  21  22
ATOM     22  C   UNL     1       1.521   7.858  20.518  0.00  0.00    +0.000 A 
ATOM     23  C   UNL     1       0.664   7.871  21.631  0.00  0.00    +0.000 A 
ATOM     24  C   UNL     1      -0.215   8.938  21.843  0.00  0.00    +0.000 A 
ATOM     25  C   UNL     1      -0.248  10.001  20.944  0.00  0.00    +0.000 A 
ATOM     26  C   UNL     1       0.595   9.988  19.841  0.00  0.00    +0.000 A 
ATOM     27  F   UNL     1       0.568  11.011  18.978  0.00  0.00    +0.000 F 
ATOM     28  C   UNL     1       1.478   8.933  19.620  0.00  0.00    +0.000 A 
ENDBRANCH  21  22
ENDBRANCH  12  21
TORSDOF 4
ENDMDL
MODEL 5
REMARK VINA RESULT:      -7.6      0.804      1.211
REMARK  Name = 
REMARK  4 active torsions:
REMARK  status: ('A' for Active; 'I' for Inactive)
REMARK    1  A    between atoms: N_3  and  C_4
REMARK    2  A    between atoms: C_4  and  C_5
REMARK    3  A    between atoms: N_20  and  C_21
REMARK    4  A    between atoms: C_21  and  C_22
REMARK                            x       y       z     vdW  Elec       q    Type
REMARK                         _______ _______ _______ _____ _____    ______ ____
ROOT
ATOM      1  O   UNL     1       4.411   6.763  17.002  0.00  0.00    +0.000 OA
ATOM      2  C   UNL     1       3.925   5.801  17.571  0.00  0.00    +0.000 C 
ATOM      3  N   UNL     1       4.615   4.534  17.499  0.00  0.00    +0.000 N 
ATOM      4  C   UNL     1       4.008   3.356  17.934  0.00  0.00    +0.000 A 
ATOM      5  C   UNL     1       4.511   2.071  17.871  0.00  0.00    +0.000 A 
ATOM      6  C   UNL     1       3.488   1.188  18.329  0.00  0.00    +0.000 A 
ATOM      7  C   UNL     1       2.405   1.950  18.687  0.00  0.00    +0.000 A 
ATOM      8  N   UNL     1       2.769   3.244  18.484  0.00  0.00    +0.000 N 
ATOM      9  S   UNL     1       1.831   4.619  18.649  0.00  0.00    +0.000 S 
ATOM     10  O   UNL     1       1.344   4.547  20.009  0.00  0.00    +0.000 OA
ATOM     11  O   UNL     1       0.958   4.569  17.501  0.00  0.00    +0.000 OA
ATOM     12  N   UNL     1       2.863   5.912  18.467  0.00  0.00    +0.000 N 
ENDROOT
BRANCH   3  13
ATOM     13  C   UNL     1       6.038   4.583  17.084  0.00  0.00    +0.000 C 
BRANCH  13  14
ATOM     14  C   UNL     1       6.256   4.531  15.593  0.00  0.00    +0.000 A 
ATOM     15  C   UNL     1       5.378   3.749  14.815  0.00  0.00    +0.000 A 
ATOM     16  C   UNL     1       5.568   3.614  13.437  0.00  0.00    +0.000 A 
ATOM     17  C   UNL     1       6.632   4.262  12.815  0.00  0.00    +0.000 A 
ATOM     18  C   UNL     1       7.486   5.061  13.569  0.00  0.00    +0.000 A 
ATOM     19 CL   UNL     1       8.787   5.885  12.806  0.00  0.00    +0.000 Cl
ATOM     20  C   UNL     1       7.302   5.198  14.945  0.00  0.00    +0.000 A 
ENDBRANCH  13  14
ENDBRANCH   3  13
BRANCH  12  21
ATOM     21  C   UNL     1       2.983   6.853  19.595  0.00  0.00    +0.000 C 
BRANCH  21  22
ATOM     22  C   UNL     1       1.917   7.914  19.661  0.00  0.00    +0.000 A 
ATOM     23  C   UNL     1       1.235   8.161  20.864  0.00  0.00    +0.000 A 
ATOM     24  C   UNL     1       0.288   9.187  20.951  0.00  0.00    +0.000 A 
ATOM     25  C   UNL     1       0.010   9.973  19.835  0.00  0.00    +0.000 A 
ATOM     26  C   UNL     1       0.680   9.726  18.644  0.00  0.00    +0.000 A 
ATOM     27  F   UNL     1       0.418  10.485  17.572  0.00  0.00    +0.000 F 
ATOM     28  C   UNL     1       1.628   8.711  18.545  0.00  0.00    +0.000 A 
ENDBRANCH  21  22
ENDBRANCH  12  21
TORSDOF 4
ENDMDL
MODEL 6
REMARK VINA RESULT:      -7.6      1.262      1.798
REMARK  Name = 
REMARK  4 active torsions:
REMARK  status: ('A' for Active; 'I' for Inactive)
REMARK    1  A    between atoms: N_3  and  C_4
REMARK    2  A    between atoms: C_4  and  C_5
REMARK    3  A    between atoms: N_20  and  C_21
REMARK    4  A    between atoms: C_21  and  C_22
REMARK                            x       y       z     vdW  Elec       q    Type
REMARK                         _______ _______ _______ _____ _____    ______ ____
ROOT
ATOM      1  O   UNL     1       4.526   6.742  16.858  0.00  0.00    +0.000 OA
ATOM      2  C   UNL     1       4.017   5.793  17.430  0.00  0.00    +0.000 C 
ATOM      3  N   UNL     1       4.676   4.510  17.361  0.00  0.00    +0.000 N 
ATOM      4  C   UNL     1       4.042   3.348  17.798  0.00  0.00    +0.000 A 
ATOM      5  C   UNL     1       4.515   2.050  17.738  0.00  0.00    +0.000 A 
ATOM      6  C   UNL     1       3.471   1.193  18.198  0.00  0.00    +0.000 A 
ATOM      7  C   UNL     1       2.406   1.982  18.555  0.00  0.00    +0.000 A 
ATOM      8  N   UNL     1       2.801   3.266  18.348  0.00  0.00    +0.000 N 
ATOM      9  S   UNL     1       1.896   4.663  18.510  0.00  0.00    +0.000 S 
ATOM     10  O   UNL     1       1.407   4.606  19.871  0.00  0.00    +0.000 OA
ATOM     11  O   UNL     1       1.022   4.631  17.362  0.00  0.00    +0.000 OA
ATOM     12  N   UNL     1       2.958   5.931  18.325  0.00  0.00    +0.000 N 
ENDROOT
BRANCH   3  13
ATOM     13  C   UNL     1       6.100   4.524  16.946  0.00  0.00    +0.000 C 
BRANCH  13  14
ATOM     14  C   UNL     1       6.317   4.460  15.455  0.00  0.00    +0.000 A 
ATOM     15  C   UNL     1       7.487   5.039  14.922  0.00  0.00    +0.000 A 
ATOM     16  C   UNL     1       7.711   5.063  13.543  0.00  0.00    +0.000 A 
ATOM     17  C   UNL     1       6.775   4.505  12.677  0.00  0.00    +0.000 A 
ATOM     18  C   UNL     1       5.632   3.905  13.194  0.00  0.00    +0.000 A 
ATOM     19 CL   UNL     1       4.482   3.191  12.133  0.00  0.00    +0.000 Cl
ATOM     20  C   UNL     1       5.401   3.879  14.570  0.00  0.00    +0.000 A 
ENDBRANCH  13  14
ENDBRANCH   3  13
BRANCH  12  21
ATOM     21  C   UNL     1       3.100   6.872  19.451  0.00  0.00    +0.000 C 
BRANCH  21  22
ATOM     22  C   UNL     1       1.995   7.885  19.583  0.00  0.00    +0.000 A 
ATOM     23  C   UNL     1       1.357   8.083  20.819  0.00  0.00    +0.000 A 
ATOM     24  C   UNL     1       0.372   9.065  20.966  0.00  0.00    +0.000 A 
ATOM     25  C   UNL     1       0.013   9.858  19.878  0.00  0.00    +0.000 A 
ATOM     26  C   UNL     1       0.640   9.661  18.655  0.00  0.00    +0.000 A 
ATOM     27  F   UNL     1       0.300  10.426  17.610  0.00  0.00    +0.000 F 
ATOM     28  C   UNL     1       1.625   8.688  18.496  0.00  0.00    +0.000 A 
ENDBRANCH  21  22
ENDBRANCH  12  21
TORSDOF 4
ENDMDL
MODEL 7
REMARK VINA RESULT:      -7.4      3.512      6.549
REMARK  Name = 
REMARK  4 active torsions:
REMARK  status: ('A' for Active; 'I' for Inactive)
REMARK    1  A    between atoms: N_3  and  C_4
REMARK    2  A    between atoms: C_4  and  C_5
REMARK    3  A    between atoms: N_20  and  C_21
REMARK    4  A    between atoms: C_21  and  C_22
REMARK                            x       y       z     vdW  Elec       q    Type
REMARK                         _______ _______ _______ _____ _____    ______ ____
ROOT
ATOM      1  O   UNL     1       3.904   4.536  16.752  0.00  0.00    +0.000 OA
ATOM      2  C   UNL     1       4.855   5.097  17.268  0.00  0.00    +0.000 C 
ATOM      3  N   UNL     1       4.981   6.527  17.116  0.00  0.00    +0.000 N 
ATOM      4  C   UNL     1       6.149   7.193  17.485  0.00  0.00    +0.000 A 
ATOM      5  C   UNL     1       6.441   8.537  17.342  0.00  0.00    +0.000 A 
ATOM      6  C   UNL     1       7.793   8.728  17.755  0.00  0.00    +0.000 A 
ATOM      7  C   UNL     1       8.282   7.513  18.167  0.00  0.00    +0.000 A 
ATOM      8  N   UNL     1       7.257   6.629  18.037  0.00  0.00    +0.000 N 
ATOM      9  S   UNL     1       7.281   4.976  18.291  0.00  0.00    +0.000 S 
ATOM     10  O   UNL     1       7.762   4.839  19.648  0.00  0.00    +0.000 OA
ATOM     11  O   UNL     1       8.006   4.473  17.149  0.00  0.00    +0.000 OA
ATOM     12  N   UNL     1       5.702   4.464  18.177  0.00  0.00    +0.000 N 
ENDROOT
BRANCH   3  13
ATOM     13  C   UNL     1       3.758   7.253  16.693  0.00  0.00    +0.000 C 
BRANCH  13  14
ATOM     14  C   UNL     1       2.936   7.807  17.830  0.00  0.00    +0.000 A 
ATOM     15  C   UNL     1       2.843   7.053  19.018  0.00  0.00    +0.000 A 
ATOM     16  C   UNL     1       2.047   7.487  20.082  0.00  0.00    +0.000 A 
ATOM     17  C   UNL     1       1.338   8.680  19.977  0.00  0.00    +0.000 A 
ATOM     18  C   UNL     1       1.447   9.446  18.821  0.00  0.00    +0.000 A 
ATOM     19 CL   UNL     1       0.595  10.934  18.694  0.00  0.00    +0.000 Cl
ATOM     20  C   UNL     1       2.239   9.018  17.756  0.00  0.00    +0.000 A 
ENDBRANCH  13  14
ENDBRANCH   3  13
BRANCH  12  21
ATOM     21  C   UNL     1       5.110   3.809  19.357  0.00  0.00    +0.000 C 
BRANCH  21  22
ATOM     22  C   UNL     1       3.696   3.325  19.181  0.00  0.00    +0.000 A 
ATOM     23  C   UNL     1       3.428   2.174  18.421  0.00  0.00    +0.000 A 
ATOM     24  C   UNL     1       2.124   1.683  18.304  0.00  0.00    +0.000 A 
ATOM     25  C   UNL     1       1.074   2.339  18.942  0.00  0.00    +0.000 A 
ATOM     26  C   UNL     1       1.336   3.479  19.690  0.00  0.00    +0.000 A 
ATOM     27  F   UNL     1       0.328   4.107  20.308  0.00  0.00    +0.000 F 
ATOM     28  C   UNL     1       2.631   3.977  19.818  0.00  0.00    +0.000 A 
ENDBRANCH  21  22
ENDBRANCH  12  21
TORSDOF 4
ENDMDL
MODEL 8
REMARK VINA RESULT:      -7.4      5.532      9.775
REMARK  Name = 
REMARK  4 active torsions:
REMARK  status: ('A' for Active; 'I' for Inactive)
REMARK    1  A    between atoms: N_3  and  C_4
REMARK    2  A    between atoms: C_4  and  C_5
REMARK    3  A    between atoms: N_20  and  C_21
REMARK    4  A    between atoms: C_21  and  C_22
REMARK                            x       y       z     vdW  Elec       q    Type
REMARK                         _______ _______ _______ _____ _____    ______ ____
ROOT
ATOM      1  O   UNL     1      -0.413   8.540  21.366  0.00  0.00    +0.000 OA
ATOM      2  C   UNL     1       0.329   9.160  20.624  0.00  0.00    +0.000 C 
ATOM      3  N   UNL     1       0.489  10.580  20.836  0.00  0.00    +0.000 N 
ATOM      4  C   UNL     1       1.139  11.381  19.898  0.00  0.00    +0.000 A 
ATOM      5  C   UNL     1       1.313  12.752  19.929  0.00  0.00    +0.000 A 
ATOM      6  C   UNL     1       1.934  13.133  18.703  0.00  0.00    +0.000 A 
ATOM      7  C   UNL     1       2.152  11.992  17.971  0.00  0.00    +0.000 A 
ATOM      8  N   UNL     1       1.709  10.960  18.737  0.00  0.00    +0.000 N 
ATOM      9  S   UNL     1       1.623   9.339  18.336  0.00  0.00    +0.000 S 
ATOM     10  O   UNL     1       2.976   9.003  17.950  0.00  0.00    +0.000 OA
ATOM     11  O   UNL     1       0.510   9.280  17.418  0.00  0.00    +0.000 OA
ATOM     12  N   UNL     1       1.196   8.535  19.729  0.00  0.00    +0.000 N 
ENDROOT
BRANCH   3  13
ATOM     13  C   UNL     1       0.062  11.099  22.158  0.00  0.00    +0.000 C 
BRANCH  13  14
ATOM     14  C   UNL     1      -1.336  11.666  22.185  0.00  0.00    +0.000 A 
ATOM     15  C   UNL     1      -1.873  12.182  20.988  0.00  0.00    +0.000 A 
ATOM     16  C   UNL     1      -3.138  12.774  20.966  0.00  0.00    +0.000 A 
ATOM     17  C   UNL     1      -3.888  12.854  22.136  0.00  0.00    +0.000 A 
ATOM     18  C   UNL     1      -3.380  12.320  23.316  0.00  0.00    +0.000 A 
ATOM     19 CL   UNL     1      -4.310  12.392  24.761  0.00  0.00    +0.000 Cl
ATOM     20  C   UNL     1      -2.117  11.730  23.345  0.00  0.00    +0.000 A 
ENDBRANCH  13  14
ENDBRANCH   3  13
BRANCH  12  21
ATOM     21  C   UNL     1       2.128   7.516  20.241  0.00  0.00    +0.000 C 
BRANCH  21  22
ATOM     22  C   UNL     1       1.865   6.111  19.768  0.00  0.00    +0.000 A 
ATOM     23  C   UNL     1       2.145   5.743  18.442  0.00  0.00    +0.000 A 
ATOM     24  C   UNL     1       1.962   4.425  18.012  0.00  0.00    +0.000 A 
ATOM     25  C   UNL     1       1.493   3.462  18.902  0.00  0.00    +0.000 A 
ATOM     26  C   UNL     1       1.211   3.824  20.212  0.00  0.00    +0.000 A 
ATOM     27  F   UNL     1       0.766   2.899  21.070  0.00  0.00    +0.000 F 
ATOM     28  C   UNL     1       1.393   5.133  20.654  0.00  0.00    +0.000 A 
ENDBRANCH  21  22
ENDBRANCH  12  21
TORSDOF 4
ENDMDL
MODEL 9
REMARK VINA RESULT:      -7.3      2.454      3.136
REMARK  Name = 
REMARK  4 active torsions:
REMARK  status: ('A' for Active; 'I' for Inactive)
REMARK    1  A    between atoms: N_3  and  C_4
REMARK    2  A    between atoms: C_4  and  C_5
REMARK    3  A    between atoms: N_20  and  C_21
REMARK    4  A    between atoms: C_21  and  C_22
REMARK                            x       y       z     vdW  Elec       q    Type
REMARK                         _______ _______ _______ _____ _____    ______ ____
ROOT
ATOM      1  O   UNL     1       2.733   6.953  17.470  0.00  0.00    +0.000 OA
ATOM      2  C   UNL     1       2.751   5.910  18.101  0.00  0.00    +0.000 C 
ATOM      3  N   UNL     1       3.634   4.854  17.666  0.00  0.00    +0.000 N 
ATOM      4  C   UNL     1       3.543   3.570  18.202  0.00  0.00    +0.000 A 
ATOM      5  C   UNL     1       4.269   2.449  17.846  0.00  0.00    +0.000 A 
ATOM      6  C   UNL     1       3.747   1.347  18.587  0.00  0.00    +0.000 A 
ATOM      7  C   UNL     1       2.745   1.822  19.395  0.00  0.00    +0.000 A 
ATOM      8  N   UNL     1       2.684   3.163  19.175  0.00  0.00    +0.000 N 
ATOM      9  S   UNL     1       1.591   4.263  19.800  0.00  0.00    +0.000 S 
ATOM     10  O   UNL     1       1.709   4.096  21.232  0.00  0.00    +0.000 OA
ATOM     11  O   UNL     1       0.376   3.977  19.075  0.00  0.00    +0.000 OA
ATOM     12  N   UNL     1       2.132   5.769  19.342  0.00  0.00    +0.000 N 
ENDROOT
BRANCH   3  13
ATOM     13  C   UNL     1       4.725   5.248  16.742  0.00  0.00    +0.000 C 
BRANCH  13  14
ATOM     14  C   UNL     1       5.903   5.912  17.412  0.00  0.00    +0.000 A 
ATOM     15  C   UNL     1       6.349   7.151  16.909  0.00  0.00    +0.000 A 
ATOM     16  C   UNL     1       7.472   7.782  17.451  0.00  0.00    +0.000 A 
ATOM     17  C   UNL     1       8.161   7.189  18.506  0.00  0.00    +0.000 A 
ATOM     18  C   UNL     1       7.710   5.982  19.029  0.00  0.00    +0.000 A 
ATOM     19 CL   UNL     1       8.540   5.256  20.349  0.00  0.00    +0.000 Cl
ATOM     20  C   UNL     1       6.591   5.346  18.491  0.00  0.00    +0.000 A 
ENDBRANCH  13  14
ENDBRANCH   3  13
BRANCH  12  21
ATOM     21  C   UNL     1       2.460   6.730  20.410  0.00  0.00    +0.000 C 
BRANCH  21  22
ATOM     22  C   UNL     1       1.472   7.852  20.589  0.00  0.00    +0.000 A 
ATOM     23  C   UNL     1       0.589   7.854  21.681  0.00  0.00    +0.000 A 
ATOM     24  C   UNL     1      -0.289   8.923  21.889  0.00  0.00    +0.000 A 
ATOM     25  C   UNL     1      -0.295   9.999  21.005  0.00  0.00    +0.000 A 
ATOM     26  C   UNL     1       0.574   9.997  19.922  0.00  0.00    +0.000 A 
ATOM     27  F   UNL     1       0.573  11.033  19.075  0.00  0.00    +0.000 F 
ATOM     28  C   UNL     1       1.456   8.940  19.706  0.00  0.00    +0.000 A 
ENDBRANCH  21  22
ENDBRANCH  12  21
TORSDOF 4
ENDMDL
