MODEL 1
REMARK VINA RESULT:      -7.6      0.000      0.000
REMARK  Name = 
REMARK  5 active torsions:
REMARK  status: ('A' for Active; 'I' for Inactive)
REMARK    1  A    between atoms: C_1  and  O_2
REMARK    2  A    between atoms: O_2  and  C_3
REMARK    3  A    between atoms: C_6  and  C_7
REMARK    4  A    between atoms: N_9  and  C_10
REMARK    5  A    between atoms: C_10  and  N_11
REMARK                            x       y       z     vdW  Elec       q    Type
REMARK                         _______ _______ _______ _____ _____    ______ ____
ROOT
ATOM      1  C   UNL     1       2.510   6.132  19.747  0.00  0.00    +0.000 C 
ATOM      2  N   UNL     1       3.535   5.671  19.101  0.00  0.00    +0.000 NA
ATOM      3  N   UNL     1       3.984   4.401  19.389  0.00  0.00    +0.000 N 
ATOM      4  C   UNL     1       3.223   3.445  20.056  0.00  0.00    +0.000 C 
ATOM      5  O   UNL     1       3.593   2.293  20.289  0.00  0.00    +0.000 OA
ATOM      6  C   UNL     1       1.820   3.871  20.420  0.00  0.00    +0.000 C 
ATOM      7  C   UNL     1       1.771   5.329  20.783  0.00  0.00    +0.000 C 
ENDROOT
BRANCH   1  11
ATOM      8  C   UNL     1       1.059  10.086  19.039  0.00  0.00    +0.000 A 
ATOM      9  C   UNL     1       1.770   9.411  18.034  0.00  0.00    +0.000 A 
ATOM     10  C   UNL     1       2.266   8.127  18.269  0.00  0.00    +0.000 A 
ATOM     11  C   UNL     1       2.056   7.522  19.507  0.00  0.00    +0.000 A 
ATOM     12  C   UNL     1       1.404   8.223  20.530  0.00  0.00    +0.000 A 
ATOM     13  C   UNL     1       0.902   9.503  20.286  0.00  0.00    +0.000 A 
BRANCH   8  15
ATOM     14  C   UNL     1      -0.239  11.941  19.674  0.00  0.00    +0.000 C 
ATOM     15  O   UNL     1       0.591  11.323  18.694  0.00  0.00    +0.000 OA
ENDBRANCH   8  15
ENDBRANCH   1  11
BRANCH   3  16
ATOM     16  C   UNL     1       5.274   4.031  18.798  0.00  0.00    +0.000 C 
BRANCH  16  17
ATOM     17  N   UNL     1       5.511   4.720  17.506  0.00  0.00    +0.000 NA
ATOM     18  C   UNL     1       6.945   4.949  17.308  0.00  0.00    +0.000 C 
ATOM     19  C   UNL     1       7.362   5.313  15.880  0.00  0.00    +0.000 C 
ATOM     20  C   UNL     1       6.755   4.379  14.849  0.00  0.00    +0.000 C 
ATOM     21  C   UNL     1       5.245   4.372  15.009  0.00  0.00    +0.000 C 
ATOM     22  C   UNL     1       4.835   3.981  16.429  0.00  0.00    +0.000 C 
ENDBRANCH  16  17
ENDBRANCH   3  16
TORSDOF 4
ENDMDL
MODEL 2
REMARK VINA RESULT:      -7.5      0.615      1.199
REMARK  Name = 
REMARK  5 active torsions:
REMARK  status: ('A' for Active; 'I' for Inactive)
REMARK    1  A    between atoms: C_1  and  O_2
REMARK    2  A    between atoms: O_2  and  C_3
REMARK    3  A    between atoms: C_6  and  C_7
REMARK    4  A    between atoms: N_9  and  C_10
REMARK    5  A    between atoms: C_10  and  N_11
REMARK                            x       y       z     vdW  Elec       q    Type
REMARK                         _______ _______ _______ _____ _____    ______ ____
ROOT
ATOM      1  C   UNL     1       2.338   6.318  19.791  0.00  0.00    +0.000 C 
ATOM      2  N   UNL     1       3.327   5.776  19.152  0.00  0.00    +0.000 NA
ATOM      3  N   UNL     1       3.751   4.520  19.527  0.00  0.00    +0.000 N 
ATOM      4  C   UNL     1       2.987   3.644  20.292  0.00  0.00    +0.000 C 
ATOM      5  O   UNL     1       3.332   2.504  20.606  0.00  0.00    +0.000 OA
ATOM      6  C   UNL     1       1.609   4.140  20.665  0.00  0.00    +0.000 C 
ATOM      7  C   UNL     1       1.613   5.623  20.910  0.00  0.00    +0.000 C 
ENDROOT
BRANCH   1  11
ATOM      8  C   UNL     1       1.258  10.339  18.841  0.00  0.00    +0.000 A 
ATOM      9  C   UNL     1       0.921   9.802  20.092  0.00  0.00    +0.000 A 
ATOM     10  C   UNL     1       1.252   8.480  20.399  0.00  0.00    +0.000 A 
ATOM     11  C   UNL     1       1.914   7.697  19.454  0.00  0.00    +0.000 A 
ATOM     12  C   UNL     1       2.190   8.216  18.183  0.00  0.00    +0.000 A 
ATOM     13  C   UNL     1       1.865   9.541  17.885  0.00  0.00    +0.000 A 
BRANCH   8  15
ATOM     14  C   UNL     1       1.941  12.585  18.984  0.00  0.00    +0.000 C 
ATOM     15  O   UNL     1       0.916  11.650  18.656  0.00  0.00    +0.000 OA
ENDBRANCH   8  15
ENDBRANCH   1  11
BRANCH   3  16
ATOM     16  C   UNL     1       5.010   4.065  18.927  0.00  0.00    +0.000 C 
BRANCH  16  17
ATOM     17  N   UNL     1       5.300   4.764  17.651  0.00  0.00    +0.000 NA
ATOM     18  C   UNL     1       6.679   5.260  17.647  0.00  0.00    +0.000 C 
ATOM     19  C   UNL     1       7.227   5.672  16.277  0.00  0.00    +0.000 C 
ATOM     20  C   UNL     1       6.964   4.619  15.215  0.00  0.00    +0.000 C 
ATOM     21  C   UNL     1       5.476   4.325  15.160  0.00  0.00    +0.000 C 
ATOM     22  C   UNL     1       4.941   3.888  16.525  0.00  0.00    +0.000 C 
ENDBRANCH  16  17
ENDBRANCH   3  16
TORSDOF 4
ENDMDL
MODEL 3
REMARK VINA RESULT:      -7.4      3.343      5.116
REMARK  Name = 
REMARK  5 active torsions:
REMARK  status: ('A' for Active; 'I' for Inactive)
REMARK    1  A    between atoms: C_1  and  O_2
REMARK    2  A    between atoms: O_2  and  C_3
REMARK    3  A    between atoms: C_6  and  C_7
REMARK    4  A    between atoms: N_9  and  C_10
REMARK    5  A    between atoms: C_10  and  N_11
REMARK                            x       y       z     vdW  Elec       q    Type
REMARK                         _______ _______ _______ _____ _____    ______ ____
ROOT
ATOM      1  C   UNL     1       0.914   9.193  19.894  0.00  0.00    +0.000 C 
ATOM      2  N   UNL     1       1.614   8.172  20.277  0.00  0.00    +0.000 NA
ATOM      3  N   UNL     1       2.350   7.482  19.339  0.00  0.00    +0.000 N 
ATOM      4  C   UNL     1       2.684   7.995  18.089  0.00  0.00    +0.000 C 
ATOM      5  O   UNL     1       3.373   7.409  17.252  0.00  0.00    +0.000 OA
ATOM      6  C   UNL     1       2.221   9.409  17.823  0.00  0.00    +0.000 C 
ATOM      7  C   UNL     1       0.890   9.676  18.469  0.00  0.00    +0.000 C 
ENDROOT
BRANCH   1  11
ATOM      8  C   UNL     1      -1.449  11.348  22.724  0.00  0.00    +0.000 A 
ATOM      9  C   UNL     1      -0.796  10.168  23.112  0.00  0.00    +0.000 A 
ATOM     10  C   UNL     1      -0.040   9.448  22.185  0.00  0.00    +0.000 A 
ATOM     11  C   UNL     1       0.057   9.904  20.870  0.00  0.00    +0.000 A 
ATOM     12  C   UNL     1      -0.649  11.045  20.470  0.00  0.00    +0.000 A 
ATOM     13  C   UNL     1      -1.396  11.766  21.404  0.00  0.00    +0.000 A 
BRANCH   8  15
ATOM     14  C   UNL     1      -3.285  12.709  23.279  0.00  0.00    +0.000 C 
ATOM     15  O   UNL     1      -2.134  11.991  23.716  0.00  0.00    +0.000 OA
ENDBRANCH   8  15
ENDBRANCH   1  11
BRANCH   3  16
ATOM     16  C   UNL     1       2.927   6.211  19.789  0.00  0.00    +0.000 C 
BRANCH  16  17
ATOM     17  N   UNL     1       1.906   5.136  19.873  0.00  0.00    +0.000 NA
ATOM     18  C   UNL     1       1.842   4.398  18.608  0.00  0.00    +0.000 C 
ATOM     19  C   UNL     1       1.111   3.054  18.668  0.00  0.00    +0.000 C 
ATOM     20  C   UNL     1       1.569   2.202  19.837  0.00  0.00    +0.000 C 
ATOM     21  C   UNL     1       1.402   2.991  21.125  0.00  0.00    +0.000 C 
ATOM     22  C   UNL     1       2.158   4.319  21.069  0.00  0.00    +0.000 C 
ENDBRANCH  16  17
ENDBRANCH   3  16
TORSDOF 4
ENDMDL
MODEL 4
REMARK VINA RESULT:      -7.3      1.847      4.090
REMARK  Name = 
REMARK  5 active torsions:
REMARK  status: ('A' for Active; 'I' for Inactive)
REMARK    1  A    between atoms: C_1  and  O_2
REMARK    2  A    between atoms: O_2  and  C_3
REMARK    3  A    between atoms: C_6  and  C_7
REMARK    4  A    between atoms: N_9  and  C_10
REMARK    5  A    between atoms: C_10  and  N_11
REMARK                            x       y       z     vdW  Elec       q    Type
REMARK                         _______ _______ _______ _____ _____    ______ ____
ROOT
ATOM      1  C   UNL     1       3.258   6.480  17.917  0.00  0.00    +0.000 C 
ATOM      2  N   UNL     1       2.922   5.233  18.022  0.00  0.00    +0.000 NA
ATOM      3  N   UNL     1       3.661   4.287  17.347  0.00  0.00    +0.000 N 
ATOM      4  C   UNL     1       4.941   4.517  16.851  0.00  0.00    +0.000 C 
ATOM      5  O   UNL     1       5.633   3.672  16.279  0.00  0.00    +0.000 OA
ATOM      6  C   UNL     1       5.513   5.886  17.139  0.00  0.00    +0.000 C 
ATOM      7  C   UNL     1       4.441   6.939  17.109  0.00  0.00    +0.000 C 
ENDROOT
BRANCH   1  11
ATOM      8  C   UNL     1       1.004   9.566  19.823  0.00  0.00    +0.000 A 
ATOM      9  C   UNL     1       1.346   8.408  20.537  0.00  0.00    +0.000 A 
ATOM     10  C   UNL     1       2.064   7.385  19.912  0.00  0.00    +0.000 A 
ATOM     11  C   UNL     1       2.433   7.521  18.574  0.00  0.00    +0.000 A 
ATOM     12  C   UNL     1       2.033   8.648  17.845  0.00  0.00    +0.000 A 
ATOM     13  C   UNL     1       1.324   9.671  18.478  0.00  0.00    +0.000 A 
BRANCH   8  15
ATOM     14  C   UNL     1       0.042  10.155  21.886  0.00  0.00    +0.000 C 
ATOM     15  O   UNL     1       0.330  10.516  20.538  0.00  0.00    +0.000 OA
ENDBRANCH   8  15
ENDBRANCH   1  11
BRANCH   3  16
ATOM     16  C   UNL     1       3.095   2.934  17.318  0.00  0.00    +0.000 C 
BRANCH  16  17
ATOM     17  N   UNL     1       2.542   2.535  18.637  0.00  0.00    +0.000 NA
ATOM     18  C   UNL     1       3.559   2.693  19.681  0.00  0.00    +0.000 C 
ATOM     19  C   UNL     1       3.033   2.671  21.119  0.00  0.00    +0.000 C 
ATOM     20  C   UNL     1       1.834   3.582  21.306  0.00  0.00    +0.000 C 
ATOM     21  C   UNL     1       0.756   3.200  20.307  0.00  0.00    +0.000 C 
ATOM     22  C   UNL     1       1.279   3.251  18.871  0.00  0.00    +0.000 C 
ENDBRANCH  16  17
ENDBRANCH   3  16
TORSDOF 4
ENDMDL
MODEL 5
REMARK VINA RESULT:      -7.3      1.766      3.952
REMARK  Name = 
REMARK  5 active torsions:
REMARK  status: ('A' for Active; 'I' for Inactive)
REMARK    1  A    between atoms: C_1  and  O_2
REMARK    2  A    between atoms: O_2  and  C_3
REMARK    3  A    between atoms: C_6  and  C_7
REMARK    4  A    between atoms: N_9  and  C_10
REMARK    5  A    between atoms: C_10  and  N_11
REMARK                            x       y       z     vdW  Elec       q    Type
REMARK                         _______ _______ _______ _____ _____    ______ ____
ROOT
ATOM      1  C   UNL     1       3.342   6.473  17.844  0.00  0.00    +0.000 C 
ATOM      2  N   UNL     1       2.977   5.234  17.954  0.00  0.00    +0.000 NA
ATOM      3  N   UNL     1       3.679   4.271  17.265  0.00  0.00    +0.000 N 
ATOM      4  C   UNL     1       4.955   4.468  16.745  0.00  0.00    +0.000 C 
ATOM      5  O   UNL     1       5.614   3.607  16.159  0.00  0.00    +0.000 OA
ATOM      6  C   UNL     1       5.566   5.822  17.023  0.00  0.00    +0.000 C 
ATOM      7  C   UNL     1       4.521   6.903  17.013  0.00  0.00    +0.000 C 
ENDROOT
BRANCH   1  11
ATOM      8  C   UNL     1       0.954   9.447  19.764  0.00  0.00    +0.000 A 
ATOM      9  C   UNL     1       1.391   9.645  18.445  0.00  0.00    +0.000 A 
ATOM     10  C   UNL     1       2.191   8.686  17.820  0.00  0.00    +0.000 A 
ATOM     11  C   UNL     1       2.557   7.534  18.516  0.00  0.00    +0.000 A 
ATOM     12  C   UNL     1       2.175   7.370  19.853  0.00  0.00    +0.000 A 
ATOM     13  C   UNL     1       1.368   8.329  20.470  0.00  0.00    +0.000 A 
BRANCH   8  15
ATOM     14  C   UNL     1      -0.429  11.288  19.287  0.00  0.00    +0.000 C 
ATOM     15  O   UNL     1       0.151  10.431  20.268  0.00  0.00    +0.000 OA
ENDBRANCH   8  15
ENDBRANCH   1  11
BRANCH   3  16
ATOM     16  C   UNL     1       3.078   2.933  17.247  0.00  0.00    +0.000 C 
BRANCH  16  17
ATOM     17  N   UNL     1       2.527   2.553  18.572  0.00  0.00    +0.000 NA
ATOM     18  C   UNL     1       3.539   2.745  19.615  0.00  0.00    +0.000 C 
ATOM     19  C   UNL     1       3.010   2.744  21.052  0.00  0.00    +0.000 C 
ATOM     20  C   UNL     1       1.798   3.644  21.218  0.00  0.00    +0.000 C 
ATOM     21  C   UNL     1       0.728   3.228  20.224  0.00  0.00    +0.000 C 
ATOM     22  C   UNL     1       1.254   3.257  18.789  0.00  0.00    +0.000 C 
ENDBRANCH  16  17
ENDBRANCH   3  16
TORSDOF 4
ENDMDL
MODEL 6
REMARK VINA RESULT:      -7.2      1.882      3.977
REMARK  Name = 
REMARK  5 active torsions:
REMARK  status: ('A' for Active; 'I' for Inactive)
REMARK    1  A    between atoms: C_1  and  O_2
REMARK    2  A    between atoms: O_2  and  C_3
REMARK    3  A    between atoms: C_6  and  C_7
REMARK    4  A    between atoms: N_9  and  C_10
REMARK    5  A    between atoms: C_10  and  N_11
REMARK                            x       y       z     vdW  Elec       q    Type
REMARK                         _______ _______ _______ _____ _____    ______ ____
ROOT
ATOM      1  C   UNL     1       3.350   6.688  18.514  0.00  0.00    +0.000 C 
ATOM      2  N   UNL     1       3.723   5.663  19.212  0.00  0.00    +0.000 NA
ATOM      3  N   UNL     1       4.588   4.753  18.645  0.00  0.00    +0.000 N 
ATOM      4  C   UNL     1       5.368   5.023  17.525  0.00  0.00    +0.000 C 
ATOM      5  O   UNL     1       6.174   4.236  17.026  0.00  0.00    +0.000 OA
ATOM      6  C   UNL     1       5.245   6.424  16.971  0.00  0.00    +0.000 C 
ATOM      7  C   UNL     1       3.842   6.944  17.116  0.00  0.00    +0.000 C 
ENDROOT
BRANCH   1  11
ATOM      8  C   UNL     1       0.617   9.529  20.157  0.00  0.00    +0.000 A 
ATOM      9  C   UNL     1       1.011   8.417  20.917  0.00  0.00    +0.000 A 
ATOM     10  C   UNL     1       1.887   7.473  20.376  0.00  0.00    +0.000 A 
ATOM     11  C   UNL     1       2.363   7.640  19.076  0.00  0.00    +0.000 A 
ATOM     12  C   UNL     1       1.916   8.714  18.297  0.00  0.00    +0.000 A 
ATOM     13  C   UNL     1       1.047   9.659  18.846  0.00  0.00    +0.000 A 
BRANCH   8  15
ATOM     14  C   UNL     1      -0.169  10.349  22.216  0.00  0.00    +0.000 C 
ATOM     15  O   UNL     1      -0.217  10.406  20.793  0.00  0.00    +0.000 OA
ENDBRANCH   8  15
ENDBRANCH   1  11
BRANCH   3  16
ATOM     16  C   UNL     1       4.785   3.506  19.394  0.00  0.00    +0.000 C 
BRANCH  16  17
ATOM     17  N   UNL     1       3.512   2.769  19.590  0.00  0.00    +0.000 NA
ATOM     18  C   UNL     1       2.892   3.156  20.860  0.00  0.00    +0.000 C 
ATOM     19  C   UNL     1       1.422   2.761  21.022  0.00  0.00    +0.000 C 
ATOM     20  C   UNL     1       0.590   3.136  19.809  0.00  0.00    +0.000 C 
ATOM     21  C   UNL     1       1.206   2.514  18.569  0.00  0.00    +0.000 C 
ATOM     22  C   UNL     1       2.666   2.935  18.398  0.00  0.00    +0.000 C 
ENDBRANCH  16  17
ENDBRANCH   3  16
TORSDOF 4
ENDMDL
MODEL 7
REMARK VINA RESULT:      -7.2      3.064      4.911
REMARK  Name = 
REMARK  5 active torsions:
REMARK  status: ('A' for Active; 'I' for Inactive)
REMARK    1  A    between atoms: C_1  and  O_2
REMARK    2  A    between atoms: O_2  and  C_3
REMARK    3  A    between atoms: C_6  and  C_7
REMARK    4  A    between atoms: N_9  and  C_10
REMARK    5  A    between atoms: C_10  and  N_11
REMARK                            x       y       z     vdW  Elec       q    Type
REMARK                         _______ _______ _______ _____ _____    ______ ____
ROOT
ATOM      1  C   UNL     1       0.959   9.272  19.901  0.00  0.00    +0.000 C 
ATOM      2  N   UNL     1       1.629   8.217  20.244  0.00  0.00    +0.000 NA
ATOM      3  N   UNL     1       2.320   7.525  19.275  0.00  0.00    +0.000 N 
ATOM      4  C   UNL     1       2.649   8.058  18.032  0.00  0.00    +0.000 C 
ATOM      5  O   UNL     1       3.299   7.469  17.167  0.00  0.00    +0.000 OA
ATOM      6  C   UNL     1       2.233   9.494  17.811  0.00  0.00    +0.000 C 
ATOM      7  C   UNL     1       0.926   9.792  18.490  0.00  0.00    +0.000 C 
ENDROOT
BRANCH   1  11
ATOM      8  C   UNL     1      -1.488  11.236  22.798  0.00  0.00    +0.000 A 
ATOM      9  C   UNL     1      -1.342  11.789  21.516  0.00  0.00    +0.000 A 
ATOM     10  C   UNL     1      -0.525  11.162  20.572  0.00  0.00    +0.000 A 
ATOM     11  C   UNL     1       0.148   9.989  20.913  0.00  0.00    +0.000 A 
ATOM     12  C   UNL     1       0.053   9.477  22.213  0.00  0.00    +0.000 A 
ATOM     13  C   UNL     1      -0.773  10.102  23.149  0.00  0.00    +0.000 A 
BRANCH   8  15
ATOM     14  C   UNL     1      -2.413  13.314  23.395  0.00  0.00    +0.000 C 
ATOM     15  O   UNL     1      -2.335  11.911  23.632  0.00  0.00    +0.000 OA
ENDBRANCH   8  15
ENDBRANCH   1  11
BRANCH   3  16
ATOM     16  C   UNL     1       2.859   6.223  19.681  0.00  0.00    +0.000 C 
BRANCH  16  17
ATOM     17  N   UNL     1       1.978   5.103  19.264  0.00  0.00    +0.000 NA
ATOM     18  C   UNL     1       2.668   4.250  18.292  0.00  0.00    +0.000 C 
ATOM     19  C   UNL     1       2.033   2.877  18.055  0.00  0.00    +0.000 C 
ATOM     20  C   UNL     1       1.705   2.164  19.354  0.00  0.00    +0.000 C 
ATOM     21  C   UNL     1       0.816   3.056  20.202  0.00  0.00    +0.000 C 
ATOM     22  C   UNL     1       1.467   4.415  20.459  0.00  0.00    +0.000 C 
ENDBRANCH  16  17
ENDBRANCH   3  16
TORSDOF 4
ENDMDL
MODEL 8
REMARK VINA RESULT:      -7.2      1.785      3.827
REMARK  Name = 
REMARK  5 active torsions:
REMARK  status: ('A' for Active; 'I' for Inactive)
REMARK    1  A    between atoms: C_1  and  O_2
REMARK    2  A    between atoms: O_2  and  C_3
REMARK    3  A    between atoms: C_6  and  C_7
REMARK    4  A    between atoms: N_9  and  C_10
REMARK    5  A    between atoms: C_10  and  N_11
REMARK                            x       y       z     vdW  Elec       q    Type
REMARK                         _______ _______ _______ _____ _____    ______ ____
ROOT
ATOM      1  C   UNL     1       3.499   6.712  18.220  0.00  0.00    +0.000 C 
ATOM      2  N   UNL     1       3.832   5.729  18.997  0.00  0.00    +0.000 NA
ATOM      3  N   UNL     1       4.674   4.754  18.510  0.00  0.00    +0.000 N 
ATOM      4  C   UNL     1       5.474   4.917  17.383  0.00  0.00    +0.000 C 
ATOM      5  O   UNL     1       6.261   4.071  16.955  0.00  0.00    +0.000 OA
ATOM      6  C   UNL     1       5.402   6.276  16.727  0.00  0.00    +0.000 C 
ATOM      7  C   UNL     1       4.015   6.849  16.813  0.00  0.00    +0.000 C 
ENDROOT
BRANCH   1  11
ATOM      8  C   UNL     1       0.613   9.551  19.579  0.00  0.00    +0.000 A 
ATOM      9  C   UNL     1       1.139   9.655  18.281  0.00  0.00    +0.000 A 
ATOM     10  C   UNL     1       2.099   8.742  17.840  0.00  0.00    +0.000 A 
ATOM     11  C   UNL     1       2.537   7.732  18.697  0.00  0.00    +0.000 A 
ATOM     12  C   UNL     1       2.059   7.672  20.012  0.00  0.00    +0.000 A 
ATOM     13  C   UNL     1       1.092   8.582  20.445  0.00  0.00    +0.000 A 
BRANCH   8  15
ATOM     14  C   UNL     1      -1.341  10.668  18.898  0.00  0.00    +0.000 C 
ATOM     15  O   UNL     1      -0.343  10.475  19.897  0.00  0.00    +0.000 OA
ENDBRANCH   8  15
ENDBRANCH   1  11
BRANCH   3  16
ATOM     16  C   UNL     1       4.822   3.561  19.350  0.00  0.00    +0.000 C 
BRANCH  16  17
ATOM     17  N   UNL     1       3.542   2.827  19.505  0.00  0.00    +0.000 NA
ATOM     18  C   UNL     1       2.947   3.115  20.813  0.00  0.00    +0.000 C 
ATOM     19  C   UNL     1       1.473   2.727  20.965  0.00  0.00    +0.000 C 
ATOM     20  C   UNL     1       0.629   3.214  19.801  0.00  0.00    +0.000 C 
ATOM     21  C   UNL     1       1.217   2.689  18.504  0.00  0.00    +0.000 C 
ATOM     22  C   UNL     1       2.681   3.103  18.345  0.00  0.00    +0.000 C 
ENDBRANCH  16  17
ENDBRANCH   3  16
TORSDOF 4
ENDMDL
MODEL 9
REMARK VINA RESULT:      -7.1      0.907      1.608
REMARK  Name = 
REMARK  5 active torsions:
REMARK  status: ('A' for Active; 'I' for Inactive)
REMARK    1  A    between atoms: C_1  and  O_2
REMARK    2  A    between atoms: O_2  and  C_3
REMARK    3  A    between atoms: C_6  and  C_7
REMARK    4  A    between atoms: N_9  and  C_10
REMARK    5  A    between atoms: C_10  and  N_11
REMARK                            x       y       z     vdW  Elec       q    Type
REMARK                         _______ _______ _______ _____ _____    ______ ____
ROOT
ATOM      1  C   UNL     1       2.478   6.087  19.390  0.00  0.00    +0.000 C 
ATOM      2  N   UNL     1       3.072   5.512  18.392  0.00  0.00    +0.000 NA
ATOM      3  N   UNL     1       3.523   4.219  18.542  0.00  0.00    +0.000 N 
ATOM      4  C   UNL     1       3.084   3.361  19.546  0.00  0.00    +0.000 C 
ATOM      5  O   UNL     1       3.447   2.190  19.674  0.00  0.00    +0.000 OA
ATOM      6  C   UNL     1       2.024   3.923  20.464  0.00  0.00    +0.000 C 
ATOM      7  C   UNL     1       2.235   5.392  20.702  0.00  0.00    +0.000 C 
ENDROOT
BRANCH   1  11
ATOM      8  C   UNL     1       1.108  10.117  19.049  0.00  0.00    +0.000 A 
ATOM      9  C   UNL     1       1.742   9.500  17.960  0.00  0.00    +0.000 A 
ATOM     10  C   UNL     1       2.212   8.189  18.074  0.00  0.00    +0.000 A 
ATOM     11  C   UNL     1       2.052   7.501  19.276  0.00  0.00    +0.000 A 
ATOM     12  C   UNL     1       1.479   8.142  20.381  0.00  0.00    +0.000 A 
ATOM     13  C   UNL     1       1.003   9.449  20.259  0.00  0.00    +0.000 A 
BRANCH   8  15
ATOM     14  C   UNL     1       1.104  12.357  19.765  0.00  0.00    +0.000 C 
ATOM     15  O   UNL     1       0.658  11.387  18.821  0.00  0.00    +0.000 OA
ENDBRANCH   8  15
ENDBRANCH   1  11
BRANCH   3  16
ATOM     16  C   UNL     1       4.384   3.714  17.468  0.00  0.00    +0.000 C 
BRANCH  16  17
ATOM     17  N   UNL     1       5.762   4.255  17.560  0.00  0.00    +0.000 NA
ATOM     18  C   UNL     1       6.014   5.194  16.463  0.00  0.00    +0.000 C 
ATOM     19  C   UNL     1       7.242   6.093  16.635  0.00  0.00    +0.000 C 
ATOM     20  C   UNL     1       7.289   6.744  18.005  0.00  0.00    +0.000 C 
ATOM     21  C   UNL     1       7.228   5.666  19.073  0.00  0.00    +0.000 C 
ATOM     22  C   UNL     1       5.985   4.789  18.912  0.00  0.00    +0.000 C 
ENDBRANCH  16  17
ENDBRANCH   3  16
TORSDOF 4
ENDMDL
