MODEL 1
REMARK VINA RESULT:      -9.3      0.000      0.000
REMARK  Name = 
REMARK  7 active torsions:
REMARK  status: ('A' for Active; 'I' for Inactive)
REMARK    1  A    between atoms: C_1  and  C_2
REMARK    2  A    between atoms: C_2  and  O_3
REMARK    3  A    between atoms: O_3  and  C_4
REMARK    4  A    between atoms: C_9  and  C_10
REMARK    5  A    between atoms: N_12  and  C_13
REMARK    6  A    between atoms: C_18  and  N_19
REMARK    7  A    between atoms: N_19  and  C_20
REMARK                            x       y       z     vdW  Elec       q    Type
REMARK                         _______ _______ _______ _____ _____    ______ ____
ROOT
ATOM      1  C   UNL     1       2.869   3.961  18.852  0.00  0.00    +0.000 A 
ATOM      2  C   UNL     1       2.331   2.669  18.954  0.00  0.00    +0.000 A 
ATOM      3  C   UNL     1       1.520   2.311  20.031  0.00  0.00    +0.000 A 
ATOM      4  C   UNL     1       1.236   3.245  21.020  0.00  0.00    +0.000 A 
ATOM      5  C   UNL     1       1.769   4.532  20.935  0.00  0.00    +0.000 A 
ATOM      6  C   UNL     1       2.573   4.918  19.847  0.00  0.00    +0.000 A 
ENDROOT
BRANCH   1   9
ATOM      7  C   UNL     1       5.070   4.189  17.771  0.00  0.00    +0.000 C 
ATOM      8  O   UNL     1       5.710   3.759  18.731  0.00  0.00    +0.000 OA
ATOM      9  N   UNL     1       3.690   4.309  17.748  0.00  0.00    +0.000 N 
ATOM     10  H   UNL     1       3.243   4.518  16.864  0.00  0.00    +0.000 HD
BRANCH   7  16
ATOM     11  C   UNL     1       6.884   5.407  16.425  0.00  0.00    +0.000 A 
ATOM     12  N   UNL     1       7.559   5.628  15.268  0.00  0.00    +0.000 NA
ATOM     13  C   UNL     1       7.201   4.908  14.182  0.00  0.00    +0.000 A 
ATOM     14  C   UNL     1       6.175   3.991  14.181  0.00  0.00    +0.000 A 
ATOM     15  C   UNL     1       5.481   3.788  15.371  0.00  0.00    +0.000 A 
ATOM     16  C   UNL     1       5.832   4.501  16.532  0.00  0.00    +0.000 A 
BRANCH  11  17
ATOM     17  O   UNL     1       7.266   6.131  17.539  0.00  0.00    +0.000 OA
BRANCH  17  19
ATOM     18  C   UNL     1       8.065   8.381  17.738  0.00  0.00    +0.000 C 
ATOM     19  C   UNL     1       6.855   7.503  17.471  0.00  0.00    +0.000 C 
ENDBRANCH  17  19
ENDBRANCH  11  17
ENDBRANCH   7  16
ENDBRANCH   1   9
BRANCH   6  20
ATOM     20  N   UNL     1       3.078   6.247  19.767  0.00  0.00    +0.000 N 
ATOM     21  H   UNL     1       3.929   6.262  19.216  0.00  0.00    +0.000 HD
BRANCH  20  22
ATOM     22  C   UNL     1       2.335   7.404  19.409  0.00  0.00    +0.000 A 
ATOM     23  C   UNL     1       1.578   8.037  20.402  0.00  0.00    +0.000 A 
ATOM     24  C   UNL     1       0.907   9.233  20.137  0.00  0.00    +0.000 A 
ATOM     25  C   UNL     1       1.005   9.822  18.880  0.00  0.00    +0.000 A 
ATOM     26  C   UNL     1       1.778   9.220  17.890  0.00  0.00    +0.000 A 
ATOM     27  C   UNL     1       2.450   8.023  18.157  0.00  0.00    +0.000 A 
ENDBRANCH  20  22
ENDBRANCH   6  20
TORSDOF 6
ENDMDL
MODEL 2
REMARK VINA RESULT:      -9.1      0.300      1.005
REMARK  Name = 
REMARK  7 active torsions:
REMARK  status: ('A' for Active; 'I' for Inactive)
REMARK    1  A    between atoms: C_1  and  C_2
REMARK    2  A    between atoms: C_2  and  O_3
REMARK    3  A    between atoms: O_3  and  C_4
REMARK    4  A    between atoms: C_9  and  C_10
REMARK    5  A    between atoms: N_12  and  C_13
REMARK    6  A    between atoms: C_18  and  N_19
REMARK    7  A    between atoms: N_19  and  C_20
REMARK                            x       y       z     vdW  Elec       q    Type
REMARK                         _______ _______ _______ _____ _____    ______ ____
ROOT
ATOM      1  C   UNL     1       2.828   3.845  18.907  0.00  0.00    +0.000 A 
ATOM      2  C   UNL     1       2.218   2.581  18.934  0.00  0.00    +0.000 A 
ATOM      3  C   UNL     1       1.398   2.202  19.997  0.00  0.00    +0.000 A 
ATOM      4  C   UNL     1       1.177   3.086  21.046  0.00  0.00    +0.000 A 
ATOM      5  C   UNL     1       1.781   4.343  21.035  0.00  0.00    +0.000 A 
ATOM      6  C   UNL     1       2.596   4.752  19.963  0.00  0.00    +0.000 A 
ENDROOT
BRANCH   1   9
ATOM      7  C   UNL     1       5.039   4.251  17.902  0.00  0.00    +0.000 C 
ATOM      8  O   UNL     1       5.676   3.951  18.912  0.00  0.00    +0.000 OA
ATOM      9  N   UNL     1       3.657   4.216  17.817  0.00  0.00    +0.000 N 
ATOM     10  H   UNL     1       3.232   4.322  16.904  0.00  0.00    +0.000 HD
BRANCH   7  16
ATOM     11  C   UNL     1       6.791   5.562  16.562  0.00  0.00    +0.000 A 
ATOM     12  N   UNL     1       7.490   5.788  15.421  0.00  0.00    +0.000 NA
ATOM     13  C   UNL     1       7.242   4.989  14.361  0.00  0.00    +0.000 A 
ATOM     14  C   UNL     1       6.301   3.983  14.369  0.00  0.00    +0.000 A 
ATOM     15  C   UNL     1       5.580   3.775  15.542  0.00  0.00    +0.000 A 
ATOM     16  C   UNL     1       5.820   4.572  16.677  0.00  0.00    +0.000 A 
BRANCH  11  17
ATOM     17  O   UNL     1       7.062   6.370  17.651  0.00  0.00    +0.000 OA
BRANCH  17  19
ATOM     18  C   UNL     1       8.326   8.303  18.287  0.00  0.00    +0.000 C 
ATOM     19  C   UNL     1       7.357   7.722  17.274  0.00  0.00    +0.000 C 
ENDBRANCH  17  19
ENDBRANCH  11  17
ENDBRANCH   7  16
ENDBRANCH   1   9
BRANCH   6  20
ATOM     20  N   UNL     1       3.174   6.053  19.961  0.00  0.00    +0.000 N 
ATOM     21  H   UNL     1       4.071   6.033  19.489  0.00  0.00    +0.000 HD
BRANCH  20  22
ATOM     22  C   UNL     1       2.528   7.255  19.565  0.00  0.00    +0.000 A 
ATOM     23  C   UNL     1       2.627   7.647  18.224  0.00  0.00    +0.000 A 
ATOM     24  C   UNL     1       1.932   8.763  17.752  0.00  0.00    +0.000 A 
ATOM     25  C   UNL     1       1.112   9.487  18.612  0.00  0.00    +0.000 A 
ATOM     26  C   UNL     1       0.980   9.092  19.941  0.00  0.00    +0.000 A 
ATOM     27  C   UNL     1       1.675   7.975  20.412  0.00  0.00    +0.000 A 
ENDBRANCH  20  22
ENDBRANCH   6  20
TORSDOF 6
ENDMDL
MODEL 3
REMARK VINA RESULT:      -8.9      1.069      1.106
REMARK  Name = 
REMARK  7 active torsions:
REMARK  status: ('A' for Active; 'I' for Inactive)
REMARK    1  A    between atoms: C_1  and  C_2
REMARK    2  A    between atoms: C_2  and  O_3
REMARK    3  A    between atoms: O_3  and  C_4
REMARK    4  A    between atoms: C_9  and  C_10
REMARK    5  A    between atoms: N_12  and  C_13
REMARK    6  A    between atoms: C_18  and  N_19
REMARK    7  A    between atoms: N_19  and  C_20
REMARK                            x       y       z     vdW  Elec       q    Type
REMARK                         _______ _______ _______ _____ _____    ______ ____
ROOT
ATOM      1  C   UNL     1       3.350   3.778  19.396  0.00  0.00    +0.000 A 
ATOM      2  C   UNL     1       2.879   2.464  19.539  0.00  0.00    +0.000 A 
ATOM      3  C   UNL     1       1.881   2.156  20.464  0.00  0.00    +0.000 A 
ATOM      4  C   UNL     1       1.341   3.161  21.256  0.00  0.00    +0.000 A 
ATOM      5  C   UNL     1       1.803   4.472  21.128  0.00  0.00    +0.000 A 
ATOM      6  C   UNL     1       2.795   4.807  20.188  0.00  0.00    +0.000 A 
ENDROOT
BRANCH   1   9
ATOM      7  C   UNL     1       4.140   4.068  17.081  0.00  0.00    +0.000 C 
ATOM      8  O   UNL     1       3.051   3.823  16.561  0.00  0.00    +0.000 OA
ATOM      9  N   UNL     1       4.364   4.076  18.449  0.00  0.00    +0.000 N 
ATOM     10  H   UNL     1       5.244   4.445  18.787  0.00  0.00    +0.000 HD
BRANCH   7  16
ATOM     11  C   UNL     1       6.207   5.450  16.446  0.00  0.00    +0.000 A 
ATOM     12  N   UNL     1       7.212   5.760  15.588  0.00  0.00    +0.000 NA
ATOM     13  C   UNL     1       7.292   5.064  14.433  0.00  0.00    +0.000 A 
ATOM     14  C   UNL     1       6.394   4.086  14.070  0.00  0.00    +0.000 A 
ATOM     15  C   UNL     1       5.358   3.792  14.953  0.00  0.00    +0.000 A 
ATOM     16  C   UNL     1       5.248   4.477  16.177  0.00  0.00    +0.000 A 
BRANCH  11  17
ATOM     17  O   UNL     1       6.141   6.150  17.636  0.00  0.00    +0.000 OA
BRANCH  17  19
ATOM     18  C   UNL     1       7.863   5.737  19.250  0.00  0.00    +0.000 C 
ATOM     19  C   UNL     1       7.428   6.602  18.081  0.00  0.00    +0.000 C 
ENDBRANCH  17  19
ENDBRANCH  11  17
ENDBRANCH   7  16
ENDBRANCH   1   9
BRANCH   6  20
ATOM     20  N   UNL     1       3.226   6.157  20.055  0.00  0.00    +0.000 N 
ATOM     21  H   UNL     1       4.140   6.187  19.615  0.00  0.00    +0.000 HD
BRANCH  20  22
ATOM     22  C   UNL     1       2.470   7.227  19.505  0.00  0.00    +0.000 A 
ATOM     23  C   UNL     1       1.711   8.016  20.378  0.00  0.00    +0.000 A 
ATOM     24  C   UNL     1       1.026   9.141  19.913  0.00  0.00    +0.000 A 
ATOM     25  C   UNL     1       1.112   9.503  18.572  0.00  0.00    +0.000 A 
ATOM     26  C   UNL     1       1.887   8.745  17.697  0.00  0.00    +0.000 A 
ATOM     27  C   UNL     1       2.573   7.620  18.165  0.00  0.00    +0.000 A 
ENDBRANCH  20  22
ENDBRANCH   6  20
TORSDOF 6
ENDMDL
MODEL 4
REMARK VINA RESULT:      -8.1      1.021      1.408
REMARK  Name = 
REMARK  7 active torsions:
REMARK  status: ('A' for Active; 'I' for Inactive)
REMARK    1  A    between atoms: C_1  and  C_2
REMARK    2  A    between atoms: C_2  and  O_3
REMARK    3  A    between atoms: O_3  and  C_4
REMARK    4  A    between atoms: C_9  and  C_10
REMARK    5  A    between atoms: N_12  and  C_13
REMARK    6  A    between atoms: C_18  and  N_19
REMARK    7  A    between atoms: N_19  and  C_20
REMARK                            x       y       z     vdW  Elec       q    Type
REMARK                         _______ _______ _______ _____ _____    ______ ____
ROOT
ATOM      1  C   UNL     1       3.840   4.080  19.412  0.00  0.00    +0.000 A 
ATOM      2  C   UNL     1       3.728   2.836  20.049  0.00  0.00    +0.000 A 
ATOM      3  C   UNL     1       2.811   2.636  21.082  0.00  0.00    +0.000 A 
ATOM      4  C   UNL     1       1.993   3.683  21.488  0.00  0.00    +0.000 A 
ATOM      5  C   UNL     1       2.097   4.929  20.867  0.00  0.00    +0.000 A 
ATOM      6  C   UNL     1       3.002   5.145  19.812  0.00  0.00    +0.000 A 
ENDROOT
BRANCH   1   9
ATOM      7  C   UNL     1       4.446   4.108  17.026  0.00  0.00    +0.000 C 
ATOM      8  O   UNL     1       3.321   3.813  16.622  0.00  0.00    +0.000 OA
ATOM      9  N   UNL     1       4.776   4.266  18.362  0.00  0.00    +0.000 N 
ATOM     10  H   UNL     1       5.679   4.665  18.588  0.00  0.00    +0.000 HD
BRANCH   7  16
ATOM     11  C   UNL     1       6.599   5.217  16.175  0.00  0.00    +0.000 A 
ATOM     12  N   UNL     1       7.522   5.430  15.203  0.00  0.00    +0.000 NA
ATOM     13  C   UNL     1       7.350   4.801  14.021  0.00  0.00    +0.000 A 
ATOM     14  C   UNL     1       6.277   3.983  13.743  0.00  0.00    +0.000 A 
ATOM     15  C   UNL     1       5.330   3.788  14.744  0.00  0.00    +0.000 A 
ATOM     16  C   UNL     1       5.479   4.408  15.998  0.00  0.00    +0.000 A 
BRANCH  11  17
ATOM     17  O   UNL     1       6.789   5.847  17.391  0.00  0.00    +0.000 OA
BRANCH  17  19
ATOM     18  C   UNL     1       7.831   7.985  17.681  0.00  0.00    +0.000 C 
ATOM     19  C   UNL     1       6.547   7.259  17.323  0.00  0.00    +0.000 C 
ENDBRANCH  17  19
ENDBRANCH  11  17
ENDBRANCH   7  16
ENDBRANCH   1   9
BRANCH   6  20
ATOM     20  N   UNL     1       3.065   6.416  19.174  0.00  0.00    +0.000 N 
ATOM     21  H   UNL     1       3.034   6.299  18.166  0.00  0.00    +0.000 HD
BRANCH  20  22
ATOM     22  C   UNL     1       2.265   7.548  19.482  0.00  0.00    +0.000 A 
ATOM     23  C   UNL     1       1.938   8.429  18.444  0.00  0.00    +0.000 A 
ATOM     24  C   UNL     1       1.073   9.504  18.664  0.00  0.00    +0.000 A 
ATOM     25  C   UNL     1       0.506   9.696  19.920  0.00  0.00    +0.000 A 
ATOM     26  C   UNL     1       0.797   8.810  20.955  0.00  0.00    +0.000 A 
ATOM     27  C   UNL     1       1.662   7.734  20.734  0.00  0.00    +0.000 A 
ENDBRANCH  20  22
ENDBRANCH   6  20
TORSDOF 6
ENDMDL
MODEL 5
REMARK VINA RESULT:      -8.0      1.637      4.614
REMARK  Name = 
REMARK  7 active torsions:
REMARK  status: ('A' for Active; 'I' for Inactive)
REMARK    1  A    between atoms: C_1  and  C_2
REMARK    2  A    between atoms: C_2  and  O_3
REMARK    3  A    between atoms: O_3  and  C_4
REMARK    4  A    between atoms: C_9  and  C_10
REMARK    5  A    between atoms: N_12  and  C_13
REMARK    6  A    between atoms: C_18  and  N_19
REMARK    7  A    between atoms: N_19  and  C_20
REMARK                            x       y       z     vdW  Elec       q    Type
REMARK                         _______ _______ _______ _____ _____    ______ ____
ROOT
ATOM      1  C   UNL     1       2.319   7.535  18.318  0.00  0.00    +0.000 A 
ATOM      2  C   UNL     1       1.733   8.671  17.741  0.00  0.00    +0.000 A 
ATOM      3  C   UNL     1       1.047   9.602  18.522  0.00  0.00    +0.000 A 
ATOM      4  C   UNL     1       0.942   9.406  19.894  0.00  0.00    +0.000 A 
ATOM      5  C   UNL     1       1.515   8.278  20.481  0.00  0.00    +0.000 A 
ATOM      6  C   UNL     1       2.227   7.337  19.714  0.00  0.00    +0.000 A 
ENDROOT
BRANCH   1   9
ATOM      7  C   UNL     1       4.372   6.698  17.246  0.00  0.00    +0.000 C 
ATOM      8  O   UNL     1       5.101   7.583  17.695  0.00  0.00    +0.000 OA
ATOM      9  N   UNL     1       3.015   6.600  17.510  0.00  0.00    +0.000 N 
ATOM     10  H   UNL     1       2.534   5.753  17.233  0.00  0.00    +0.000 HD
BRANCH   7  16
ATOM     11  C   UNL     1       4.987   4.257  16.747  0.00  0.00    +0.000 A 
ATOM     12  N   UNL     1       5.580   3.315  15.969  0.00  0.00    +0.000 NA
ATOM     13  C   UNL     1       6.210   3.729  14.848  0.00  0.00    +0.000 A 
ATOM     14  C   UNL     1       6.306   5.051  14.472  0.00  0.00    +0.000 A 
ATOM     15  C   UNL     1       5.706   6.006  15.290  0.00  0.00    +0.000 A 
ATOM     16  C   UNL     1       5.023   5.618  16.457  0.00  0.00    +0.000 A 
BRANCH  11  17
ATOM     17  O   UNL     1       4.326   3.827  17.882  0.00  0.00    +0.000 OA
BRANCH  17  19
ATOM     18  C   UNL     1       3.870   1.660  18.796  0.00  0.00    +0.000 C 
ATOM     19  C   UNL     1       3.577   2.624  17.661  0.00  0.00    +0.000 C 
ENDBRANCH  17  19
ENDBRANCH  11  17
ENDBRANCH   7  16
ENDBRANCH   1   9
BRANCH   6  20
ATOM     20  N   UNL     1       2.830   6.211  20.342  0.00  0.00    +0.000 N 
ATOM     21  H   UNL     1       3.283   6.497  21.204  0.00  0.00    +0.000 HD
BRANCH  20  22
ATOM     22  C   UNL     1       2.204   4.963  20.601  0.00  0.00    +0.000 A 
ATOM     23  C   UNL     1       1.211   4.525  19.716  0.00  0.00    +0.000 A 
ATOM     24  C   UNL     1       0.630   3.263  19.860  0.00  0.00    +0.000 A 
ATOM     25  C   UNL     1       1.053   2.414  20.879  0.00  0.00    +0.000 A 
ATOM     26  C   UNL     1       2.060   2.824  21.749  0.00  0.00    +0.000 A 
ATOM     27  C   UNL     1       2.642   4.086  21.603  0.00  0.00    +0.000 A 
ENDBRANCH  20  22
ENDBRANCH   6  20
TORSDOF 6
ENDMDL
MODEL 6
REMARK VINA RESULT:      -8.0      1.357      2.527
REMARK  Name = 
REMARK  7 active torsions:
REMARK  status: ('A' for Active; 'I' for Inactive)
REMARK    1  A    between atoms: C_1  and  C_2
REMARK    2  A    between atoms: C_2  and  O_3
REMARK    3  A    between atoms: O_3  and  C_4
REMARK    4  A    between atoms: C_9  and  C_10
REMARK    5  A    between atoms: N_12  and  C_13
REMARK    6  A    between atoms: C_18  and  N_19
REMARK    7  A    between atoms: N_19  and  C_20
REMARK                            x       y       z     vdW  Elec       q    Type
REMARK                         _______ _______ _______ _____ _____    ______ ____
ROOT
ATOM      1  C   UNL     1       2.741   4.324  18.961  0.00  0.00    +0.000 A 
ATOM      2  C   UNL     1       2.505   3.147  18.235  0.00  0.00    +0.000 A 
ATOM      3  C   UNL     1       1.458   2.290  18.576  0.00  0.00    +0.000 A 
ATOM      4  C   UNL     1       0.632   2.603  19.649  0.00  0.00    +0.000 A 
ATOM      5  C   UNL     1       0.859   3.768  20.384  0.00  0.00    +0.000 A 
ATOM      6  C   UNL     1       1.898   4.654  20.045  0.00  0.00    +0.000 A 
ENDROOT
BRANCH   1   9
ATOM      7  C   UNL     1       5.137   4.882  18.850  0.00  0.00    +0.000 C 
ATOM      8  O   UNL     1       5.518   3.842  19.388  0.00  0.00    +0.000 OA
ATOM      9  N   UNL     1       3.809   5.186  18.600  0.00  0.00    +0.000 N 
ATOM     10  H   UNL     1       3.604   5.984  18.011  0.00  0.00    +0.000 HD
BRANCH   7  16
ATOM     11  C   UNL     1       6.156   6.514  17.152  0.00  0.00    +0.000 A 
ATOM     12  N   UNL     1       7.134   7.374  16.768  0.00  0.00    +0.000 NA
ATOM     13  C   UNL     1       8.167   7.572  17.615  0.00  0.00    +0.000 A 
ATOM     14  C   UNL     1       8.293   6.928  18.826  0.00  0.00    +0.000 A 
ATOM     15  C   UNL     1       7.290   6.037  19.197  0.00  0.00    +0.000 A 
ATOM     16  C   UNL     1       6.185   5.814  18.355  0.00  0.00    +0.000 A 
BRANCH  11  17
ATOM     17  O   UNL     1       5.090   6.329  16.291  0.00  0.00    +0.000 OA
BRANCH  17  19
ATOM     18  C   UNL     1       5.518   4.214  15.249  0.00  0.00    +0.000 C 
ATOM     19  C   UNL     1       5.482   5.719  15.053  0.00  0.00    +0.000 C 
ENDBRANCH  17  19
ENDBRANCH  11  17
ENDBRANCH   7  16
ENDBRANCH   1   9
BRANCH   6  20
ATOM     20  N   UNL     1       2.087   5.852  20.791  0.00  0.00    +0.000 N 
ATOM     21  H   UNL     1       3.065   5.954  21.038  0.00  0.00    +0.000 HD
BRANCH  20  22
ATOM     22  C   UNL     1       1.616   7.144  20.433  0.00  0.00    +0.000 A 
ATOM     23  C   UNL     1       0.852   7.850  21.369  0.00  0.00    +0.000 A 
ATOM     24  C   UNL     1       0.445   9.163  21.116  0.00  0.00    +0.000 A 
ATOM     25  C   UNL     1       0.818   9.791  19.932  0.00  0.00    +0.000 A 
ATOM     26  C   UNL     1       1.604   9.111  19.004  0.00  0.00    +0.000 A 
ATOM     27  C   UNL     1       2.011   7.799  19.259  0.00  0.00    +0.000 A 
ENDBRANCH  20  22
ENDBRANCH   6  20
TORSDOF 6
ENDMDL
MODEL 7
REMARK VINA RESULT:      -8.0      1.614      4.543
REMARK  Name = 
REMARK  7 active torsions:
REMARK  status: ('A' for Active; 'I' for Inactive)
REMARK    1  A    between atoms: C_1  and  C_2
REMARK    2  A    between atoms: C_2  and  O_3
REMARK    3  A    between atoms: O_3  and  C_4
REMARK    4  A    between atoms: C_9  and  C_10
REMARK    5  A    between atoms: N_12  and  C_13
REMARK    6  A    between atoms: C_18  and  N_19
REMARK    7  A    between atoms: N_19  and  C_20
REMARK                            x       y       z     vdW  Elec       q    Type
REMARK                         _______ _______ _______ _____ _____    ______ ____
ROOT
ATOM      1  C   UNL     1       2.330   7.543  18.331  0.00  0.00    +0.000 A 
ATOM      2  C   UNL     1       1.729   8.669  17.749  0.00  0.00    +0.000 A 
ATOM      3  C   UNL     1       1.038   9.599  18.527  0.00  0.00    +0.000 A 
ATOM      4  C   UNL     1       0.943   9.412  19.901  0.00  0.00    +0.000 A 
ATOM      5  C   UNL     1       1.531   8.294  20.493  0.00  0.00    +0.000 A 
ATOM      6  C   UNL     1       2.248   7.355  19.728  0.00  0.00    +0.000 A 
ENDROOT
BRANCH   1   9
ATOM      7  C   UNL     1       4.384   6.720  17.251  0.00  0.00    +0.000 C 
ATOM      8  O   UNL     1       5.106   7.617  17.687  0.00  0.00    +0.000 OA
ATOM      9  N   UNL     1       3.031   6.609  17.525  0.00  0.00    +0.000 N 
ATOM     10  H   UNL     1       2.557   5.754  17.259  0.00  0.00    +0.000 HD
BRANCH   7  16
ATOM     11  C   UNL     1       5.135   4.302  16.834  0.00  0.00    +0.000 A 
ATOM     12  N   UNL     1       5.725   3.357  16.058  0.00  0.00    +0.000 NA
ATOM     13  C   UNL     1       6.219   3.743  14.861  0.00  0.00    +0.000 A 
ATOM     14  C   UNL     1       6.180   5.041  14.404  0.00  0.00    +0.000 A 
ATOM     15  C   UNL     1       5.586   6.002  15.219  0.00  0.00    +0.000 A 
ATOM     16  C   UNL     1       5.041   5.641  16.465  0.00  0.00    +0.000 A 
BRANCH  11  17
ATOM     17  O   UNL     1       4.613   3.899  18.049  0.00  0.00    +0.000 OA
BRANCH  17  19
ATOM     18  C   UNL     1       2.543   3.019  17.225  0.00  0.00    +0.000 C 
ATOM     19  C   UNL     1       3.840   2.696  17.944  0.00  0.00    +0.000 C 
ENDBRANCH  17  19
ENDBRANCH  11  17
ENDBRANCH   7  16
ENDBRANCH   1   9
BRANCH   6  20
ATOM     20  N   UNL     1       2.867   6.240  20.362  0.00  0.00    +0.000 N 
ATOM     21  H   UNL     1       3.210   6.509  21.278  0.00  0.00    +0.000 HD
BRANCH  20  22
ATOM     22  C   UNL     1       2.311   4.940  20.496  0.00  0.00    +0.000 A 
ATOM     23  C   UNL     1       2.989   4.011  21.295  0.00  0.00    +0.000 A 
ATOM     24  C   UNL     1       2.442   2.750  21.547  0.00  0.00    +0.000 A 
ATOM     25  C   UNL     1       1.199   2.412  21.019  0.00  0.00    +0.000 A 
ATOM     26  C   UNL     1       0.500   3.337  20.246  0.00  0.00    +0.000 A 
ATOM     27  C   UNL     1       1.047   4.598  19.996  0.00  0.00    +0.000 A 
ENDBRANCH  20  22
ENDBRANCH   6  20
TORSDOF 6
ENDMDL
MODEL 8
REMARK VINA RESULT:      -7.9      2.462      6.322
REMARK  Name = 
REMARK  7 active torsions:
REMARK  status: ('A' for Active; 'I' for Inactive)
REMARK    1  A    between atoms: C_1  and  C_2
REMARK    2  A    between atoms: C_2  and  O_3
REMARK    3  A    between atoms: O_3  and  C_4
REMARK    4  A    between atoms: C_9  and  C_10
REMARK    5  A    between atoms: N_12  and  C_13
REMARK    6  A    between atoms: C_18  and  N_19
REMARK    7  A    between atoms: N_19  and  C_20
REMARK                            x       y       z     vdW  Elec       q    Type
REMARK                         _______ _______ _______ _____ _____    ______ ____
ROOT
ATOM      1  C   UNL     1       2.391   5.261  20.189  0.00  0.00    +0.000 A 
ATOM      2  C   UNL     1       1.388   4.418  20.691  0.00  0.00    +0.000 A 
ATOM      3  C   UNL     1       1.572   3.036  20.746  0.00  0.00    +0.000 A 
ATOM      4  C   UNL     1       2.765   2.481  20.299  0.00  0.00    +0.000 A 
ATOM      5  C   UNL     1       3.769   3.308  19.792  0.00  0.00    +0.000 A 
ATOM      6  C   UNL     1       3.611   4.705  19.746  0.00  0.00    +0.000 A 
ENDROOT
BRANCH   1   9
ATOM      7  C   UNL     1       2.015   7.360  18.958  0.00  0.00    +0.000 C 
ATOM      8  O   UNL     1       2.001   6.835  17.844  0.00  0.00    +0.000 OA
ATOM      9  N   UNL     1       2.189   6.665  20.143  0.00  0.00    +0.000 N 
ATOM     10  H   UNL     1       2.024   7.156  21.014  0.00  0.00    +0.000 HD
BRANCH   7  16
ATOM     11  C   UNL     1       1.052   9.473  20.052  0.00  0.00    +0.000 A 
ATOM     12  N   UNL     1       0.843  10.814  20.068  0.00  0.00    +0.000 NA
ATOM     13  C   UNL     1       1.340  11.541  19.044  0.00  0.00    +0.000 A 
ATOM     14  C   UNL     1       2.018  10.992  17.978  0.00  0.00    +0.000 A 
ATOM     15  C   UNL     1       2.209   9.613  17.969  0.00  0.00    +0.000 A 
ATOM     16  C   UNL     1       1.726   8.818  19.024  0.00  0.00    +0.000 A 
BRANCH  11  17
ATOM     17  O   UNL     1       0.559   8.734  21.112  0.00  0.00    +0.000 OA
BRANCH  17  19
ATOM     18  C   UNL     1      -0.223   9.550  23.224  0.00  0.00    +0.000 C 
ATOM     19  C   UNL     1       1.000   9.234  22.382  0.00  0.00    +0.000 C 
ENDBRANCH  17  19
ENDBRANCH  11  17
ENDBRANCH   7  16
ENDBRANCH   1   9
BRANCH   6  20
ATOM     20  N   UNL     1       4.663   5.528  19.254  0.00  0.00    +0.000 N 
ATOM     21  H   UNL     1       5.339   5.702  19.990  0.00  0.00    +0.000 HD
BRANCH  20  22
ATOM     22  C   UNL     1       5.401   5.316  18.059  0.00  0.00    +0.000 A 
ATOM     23  C   UNL     1       6.730   4.888  18.170  0.00  0.00    +0.000 A 
ATOM     24  C   UNL     1       7.476   4.567  17.033  0.00  0.00    +0.000 A 
ATOM     25  C   UNL     1       6.892   4.649  15.772  0.00  0.00    +0.000 A 
ATOM     26  C   UNL     1       5.562   5.044  15.647  0.00  0.00    +0.000 A 
ATOM     27  C   UNL     1       4.817   5.364  16.786  0.00  0.00    +0.000 A 
ENDBRANCH  20  22
ENDBRANCH   6  20
TORSDOF 6
ENDMDL
MODEL 9
REMARK VINA RESULT:      -7.9      2.363      6.059
REMARK  Name = 
REMARK  7 active torsions:
REMARK  status: ('A' for Active; 'I' for Inactive)
REMARK    1  A    between atoms: C_1  and  C_2
REMARK    2  A    between atoms: C_2  and  O_3
REMARK    3  A    between atoms: O_3  and  C_4
REMARK    4  A    between atoms: C_9  and  C_10
REMARK    5  A    between atoms: N_12  and  C_13
REMARK    6  A    between atoms: C_18  and  N_19
REMARK    7  A    between atoms: N_19  and  C_20
REMARK                            x       y       z     vdW  Elec       q    Type
REMARK                         _______ _______ _______ _____ _____    ______ ____
ROOT
ATOM      1  C   UNL     1       2.311   4.501  18.190  0.00  0.00    +0.000 A 
ATOM      2  C   UNL     1       1.516   3.522  18.804  0.00  0.00    +0.000 A 
ATOM      3  C   UNL     1       1.889   2.177  18.785  0.00  0.00    +0.000 A 
ATOM      4  C   UNL     1       3.065   1.797  18.149  0.00  0.00    +0.000 A 
ATOM      5  C   UNL     1       3.862   2.760  17.530  0.00  0.00    +0.000 A 
ATOM      6  C   UNL     1       3.515   4.123  17.555  0.00  0.00    +0.000 A 
ENDROOT
BRANCH   1   9
ATOM      7  C   UNL     1       2.302   6.732  19.232  0.00  0.00    +0.000 C 
ATOM      8  O   UNL     1       3.022   6.416  20.179  0.00  0.00    +0.000 OA
ATOM      9  N   UNL     1       1.920   5.864  18.222  0.00  0.00    +0.000 N 
ATOM     10  H   UNL     1       1.464   6.253  17.405  0.00  0.00    +0.000 HD
BRANCH   7  16
ATOM     11  C   UNL     1       1.234   8.899  20.098  0.00  0.00    +0.000 A 
ATOM     12  N   UNL     1       0.927  10.214  19.953  0.00  0.00    +0.000 NA
ATOM     13  C   UNL     1       1.323  10.833  18.820  0.00  0.00    +0.000 A 
ATOM     14  C   UNL     1       1.992  10.196  17.798  0.00  0.00    +0.000 A 
ATOM     15  C   UNL     1       2.285   8.844  17.955  0.00  0.00    +0.000 A 
ATOM     16  C   UNL     1       1.908   8.163  19.127  0.00  0.00    +0.000 A 
BRANCH  11  17
ATOM     17  O   UNL     1       0.844   8.274  21.267  0.00  0.00    +0.000 OA
BRANCH  17  19
ATOM     18  C   UNL     1      -0.003   9.407  23.201  0.00  0.00    +0.000 C 
ATOM     19  C   UNL     1      -0.343   8.851  21.830  0.00  0.00    +0.000 C 
ENDBRANCH  17  19
ENDBRANCH  11  17
ENDBRANCH   7  16
ENDBRANCH   1   9
BRANCH   6  20
ATOM     20  N   UNL     1       4.363   5.088  16.943  0.00  0.00    +0.000 N 
ATOM     21  H   UNL     1       3.807   5.844  16.559  0.00  0.00    +0.000 HD
BRANCH  20  22
ATOM     22  C   UNL     1       5.514   5.681  17.528  0.00  0.00    +0.000 A 
ATOM     23  C   UNL     1       6.008   5.132  18.718  0.00  0.00    +0.000 A 
ATOM     24  C   UNL     1       7.192   5.606  19.287  0.00  0.00    +0.000 A 
ATOM     25  C   UNL     1       7.909   6.620  18.659  0.00  0.00    +0.000 A 
ATOM     26  C   UNL     1       7.446   7.156  17.459  0.00  0.00    +0.000 A 
ATOM     27  C   UNL     1       6.262   6.680  16.891  0.00  0.00    +0.000 A 
ENDBRANCH  20  22
ENDBRANCH   6  20
TORSDOF 6
ENDMDL
