MODEL 1
REMARK VINA RESULT:      -8.2      0.000      0.000
REMARK  Name = 
REMARK  6 active torsions:
REMARK  status: ('A' for Active; 'I' for Inactive)
REMARK    1  A    between atoms: C_1  and  O_2
REMARK    2  A    between atoms: O_2  and  C_3
REMARK    3  A    between atoms: C_6  and  C_7
REMARK    4  A    between atoms: C_7  and  C_8
REMARK    5  A    between atoms: N_11  and  C_12
REMARK    6  A    between atoms: N_17  and  C_18
REMARK                            x       y       z     vdW  Elec       q    Type
REMARK                         _______ _______ _______ _____ _____    ______ ____
ROOT
ATOM      1  C   UNL     1       5.979   5.014  17.532  0.00  0.00    +0.000 C 
ATOM      2  N   UNL     1       6.255   3.797  18.299  0.00  0.00    +0.000 N 
ATOM      3  C   UNL     1       5.152   3.359  18.936  0.00  0.00    +0.000 C 
ATOM      4  N   UNL     1       5.054   2.251  19.563  0.00  0.00    +0.000 NA
ATOM      5  N   UNL     1       4.131   4.244  18.825  0.00  0.00    +0.000 N 
ATOM      6  C   UNL     1       4.496   5.272  17.973  0.00  0.00    +0.000 C 
ATOM      7  O   UNL     1       3.776   6.206  17.635  0.00  0.00    +0.000 OA
ATOM      8  H   UNL     1       6.951   3.144  17.984  0.00  0.00    +0.000 HD
ATOM      9  H   UNL     1       5.947   1.756  19.524  0.00  0.00    +0.000 HD
ENDROOT
BRANCH   1  13
ATOM     10  C   UNL     1       6.554   4.190  13.268  0.00  0.00    +0.000 A 
ATOM     11  C   UNL     1       7.574   4.768  14.018  0.00  0.00    +0.000 A 
ATOM     12  C   UNL     1       7.386   5.058  15.376  0.00  0.00    +0.000 A 
ATOM     13  C   UNL     1       6.171   4.758  16.030  0.00  0.00    +0.000 A 
ATOM     14  C   UNL     1       5.139   4.228  15.233  0.00  0.00    +0.000 A 
ATOM     15  C   UNL     1       5.327   3.948  13.874  0.00  0.00    +0.000 A 
BRANCH  10  17
ATOM     16  C   UNL     1       6.690   2.597  11.529  0.00  0.00    +0.000 C 
ATOM     17  O   UNL     1       6.848   3.948  11.955  0.00  0.00    +0.000 OA
ENDBRANCH  10  17
ENDBRANCH   1  13
BRANCH   1  18
ATOM     18  C   UNL     1       6.825   6.210  17.884  0.00  0.00    +0.000 A 
ATOM     19  C   UNL     1       7.888   6.290  18.821  0.00  0.00    +0.000 A 
ATOM     20  N   UNL     1       8.462   7.494  18.855  0.00  0.00    +0.000 NA
ATOM     21  N   UNL     1       7.788   8.196  17.931  0.00  0.00    +0.000 N 
ATOM     22  C   UNL     1       8.107   9.583  17.698  0.00  0.00    +0.000 C 
ATOM     23  C   UNL     1       6.818   7.470  17.305  0.00  0.00    +0.000 A 
ENDBRANCH   1  18
BRANCH   5  24
ATOM     24  C   UNL     1       2.831   4.188  19.493  0.00  0.00    +0.000 C 
ATOM     25  C   UNL     1       2.964   3.766  20.961  0.00  0.00    +0.000 C 
ATOM     26  C   UNL     1       1.595   3.676  21.611  0.00  0.00    +0.000 C 
ATOM     27  O   UNL     1       0.736   2.806  20.876  0.00  0.00    +0.000 OA
ATOM     28  C   UNL     1       0.513   3.259  19.542  0.00  0.00    +0.000 C 
ATOM     29  C   UNL     1       1.816   3.311  18.757  0.00  0.00    +0.000 C 
ENDBRANCH   5  24
TORSDOF 4
ENDMDL
MODEL 2
REMARK VINA RESULT:      -7.9      2.198      4.880
REMARK  Name = 
REMARK  6 active torsions:
REMARK  status: ('A' for Active; 'I' for Inactive)
REMARK    1  A    between atoms: C_1  and  O_2
REMARK    2  A    between atoms: O_2  and  C_3
REMARK    3  A    between atoms: C_6  and  C_7
REMARK    4  A    between atoms: C_7  and  C_8
REMARK    5  A    between atoms: N_11  and  C_12
REMARK    6  A    between atoms: N_17  and  C_18
REMARK                            x       y       z     vdW  Elec       q    Type
REMARK                         _______ _______ _______ _____ _____    ______ ____
ROOT
ATOM      1  C   UNL     1       5.585   5.819  17.135  0.00  0.00    +0.000 C 
ATOM      2  N   UNL     1       4.276   6.472  17.063  0.00  0.00    +0.000 N 
ATOM      3  C   UNL     1       3.404   5.917  17.927  0.00  0.00    +0.000 C 
ATOM      4  N   UNL     1       2.237   6.363  18.186  0.00  0.00    +0.000 NA
ATOM      5  N   UNL     1       3.923   4.808  18.511  0.00  0.00    +0.000 N 
ATOM      6  C   UNL     1       5.247   4.661  18.139  0.00  0.00    +0.000 C 
ATOM      7  O   UNL     1       6.005   3.781  18.534  0.00  0.00    +0.000 OA
ATOM      8  H   UNL     1       4.205   7.447  16.829  0.00  0.00    +0.000 HD
ATOM      9  H   UNL     1       2.057   7.197  17.622  0.00  0.00    +0.000 HD
ENDROOT
BRANCH   1  13
ATOM     10  C   UNL     1       8.569   8.668  18.611  0.00  0.00    +0.000 A 
ATOM     11  C   UNL     1       7.671   9.040  17.614  0.00  0.00    +0.000 A 
ATOM     12  C   UNL     1       6.733   8.124  17.120  0.00  0.00    +0.000 A 
ATOM     13  C   UNL     1       6.653   6.809  17.626  0.00  0.00    +0.000 A 
ATOM     14  C   UNL     1       7.609   6.444  18.592  0.00  0.00    +0.000 A 
ATOM     15  C   UNL     1       8.553   7.359  19.077  0.00  0.00    +0.000 A 
BRANCH  10  17
ATOM     16  C   UNL     1       9.345  10.881  18.323  0.00  0.00    +0.000 C 
ATOM     17  O   UNL     1       9.438   9.641  19.020  0.00  0.00    +0.000 OA
ENDBRANCH  10  17
ENDBRANCH   1  13
BRANCH   1  18
ATOM     18  C   UNL     1       6.092   5.235  15.843  0.00  0.00    +0.000 A 
ATOM     19  C   UNL     1       7.430   5.170  15.373  0.00  0.00    +0.000 A 
ATOM     20  N   UNL     1       7.539   4.541  14.200  0.00  0.00    +0.000 NA
ATOM     21  N   UNL     1       6.279   4.181  13.912  0.00  0.00    +0.000 N 
ATOM     22  C   UNL     1       5.985   3.492  12.680  0.00  0.00    +0.000 C 
ATOM     23  C   UNL     1       5.381   4.548  14.870  0.00  0.00    +0.000 A 
ENDBRANCH   1  18
BRANCH   5  24
ATOM     24  C   UNL     1       3.234   3.863  19.390  0.00  0.00    +0.000 C 
ATOM     25  C   UNL     1       2.162   3.066  18.639  0.00  0.00    +0.000 C 
ATOM     26  C   UNL     1       1.438   2.127  19.589  0.00  0.00    +0.000 C 
ATOM     27  O   UNL     1       0.900   2.840  20.700  0.00  0.00    +0.000 OA
ATOM     28  C   UNL     1       1.909   3.488  21.474  0.00  0.00    +0.000 C 
ATOM     29  C   UNL     1       2.654   4.523  20.643  0.00  0.00    +0.000 C 
ENDBRANCH   5  24
TORSDOF 4
ENDMDL
MODEL 3
REMARK VINA RESULT:      -7.4      0.717      1.045
REMARK  Name = 
REMARK  6 active torsions:
REMARK  status: ('A' for Active; 'I' for Inactive)
REMARK    1  A    between atoms: C_1  and  O_2
REMARK    2  A    between atoms: O_2  and  C_3
REMARK    3  A    between atoms: C_6  and  C_7
REMARK    4  A    between atoms: C_7  and  C_8
REMARK    5  A    between atoms: N_11  and  C_12
REMARK    6  A    between atoms: N_17  and  C_18
REMARK                            x       y       z     vdW  Elec       q    Type
REMARK                         _______ _______ _______ _____ _____    ______ ____
ROOT
ATOM      1  C   UNL     1       6.021   5.021  17.723  0.00  0.00    +0.000 C 
ATOM      2  N   UNL     1       6.349   3.824  18.500  0.00  0.00    +0.000 N 
ATOM      3  C   UNL     1       5.292   3.402  19.220  0.00  0.00    +0.000 C 
ATOM      4  N   UNL     1       5.237   2.312  19.881  0.00  0.00    +0.000 NA
ATOM      5  N   UNL     1       4.265   4.285  19.156  0.00  0.00    +0.000 N 
ATOM      6  C   UNL     1       4.570   5.291  18.255  0.00  0.00    +0.000 C 
ATOM      7  O   UNL     1       3.828   6.215  17.942  0.00  0.00    +0.000 OA
ATOM      8  H   UNL     1       7.023   3.162  18.156  0.00  0.00    +0.000 HD
ATOM      9  H   UNL     1       6.126   1.815  19.795  0.00  0.00    +0.000 HD
ENDROOT
BRANCH   1  13
ATOM     10  C   UNL     1       6.303   4.085  13.452  0.00  0.00    +0.000 A 
ATOM     11  C   UNL     1       7.405   4.589  14.138  0.00  0.00    +0.000 A 
ATOM     12  C   UNL     1       7.312   4.915  15.497  0.00  0.00    +0.000 A 
ATOM     13  C   UNL     1       6.112   4.726  16.218  0.00  0.00    +0.000 A 
ATOM     14  C   UNL     1       5.001   4.270  15.485  0.00  0.00    +0.000 A 
ATOM     15  C   UNL     1       5.094   3.954  14.124  0.00  0.00    +0.000 A 
BRANCH  10  17
ATOM     16  C   UNL     1       5.863   2.622  11.650  0.00  0.00    +0.000 C 
ATOM     17  O   UNL     1       6.507   3.799  12.131  0.00  0.00    +0.000 OA
ENDBRANCH  10  17
ENDBRANCH   1  13
BRANCH   1  18
ATOM     18  C   UNL     1       6.887   6.225  17.986  0.00  0.00    +0.000 A 
ATOM     19  C   UNL     1       7.988   6.338  18.874  0.00  0.00    +0.000 A 
ATOM     20  N   UNL     1       8.569   7.539  18.831  0.00  0.00    +0.000 NA
ATOM     21  N   UNL     1       7.860   8.205  17.907  0.00  0.00    +0.000 N 
ATOM     22  C   UNL     1       8.176   9.578  17.600  0.00  0.00    +0.000 C 
ATOM     23  C   UNL     1       6.861   7.459  17.354  0.00  0.00    +0.000 A 
ENDBRANCH   1  18
BRANCH   5  24
ATOM     24  C   UNL     1       3.012   4.246  19.910  0.00  0.00    +0.000 C 
ATOM     25  C   UNL     1       1.969   3.350  19.233  0.00  0.00    +0.000 C 
ATOM     26  C   UNL     1       0.669   3.366  20.019  0.00  0.00    +0.000 C 
ATOM     27  O   UNL     1       0.198   4.700  20.201  0.00  0.00    +0.000 OA
ATOM     28  C   UNL     1       1.115   5.507  20.936  0.00  0.00    +0.000 C 
ATOM     29  C   UNL     1       2.441   5.636  20.200  0.00  0.00    +0.000 C 
ENDBRANCH   5  24
TORSDOF 4
ENDMDL
MODEL 4
REMARK VINA RESULT:      -7.2      7.297      9.941
REMARK  Name = 
REMARK  6 active torsions:
REMARK  status: ('A' for Active; 'I' for Inactive)
REMARK    1  A    between atoms: C_1  and  O_2
REMARK    2  A    between atoms: O_2  and  C_3
REMARK    3  A    between atoms: C_6  and  C_7
REMARK    4  A    between atoms: C_7  and  C_8
REMARK    5  A    between atoms: N_11  and  C_12
REMARK    6  A    between atoms: N_17  and  C_18
REMARK                            x       y       z     vdW  Elec       q    Type
REMARK                         _______ _______ _______ _____ _____    ______ ____
ROOT
ATOM      1  C   UNL     1       0.943  11.278  18.963  0.00  0.00    +0.000 C 
ATOM      2  N   UNL     1       1.687  11.964  17.904  0.00  0.00    +0.000 N 
ATOM      3  C   UNL     1       2.402  12.994  18.396  0.00  0.00    +0.000 C 
ATOM      4  N   UNL     1       3.251  13.683  17.739  0.00  0.00    +0.000 NA
ATOM      5  N   UNL     1       2.118  13.214  19.704  0.00  0.00    +0.000 N 
ATOM      6  C   UNL     1       1.274  12.223  20.172  0.00  0.00    +0.000 C 
ATOM      7  O   UNL     1       0.869  12.116  21.324  0.00  0.00    +0.000 OA
ATOM      8  H   UNL     1       2.017  11.456  17.102  0.00  0.00    +0.000 HD
ATOM      9  H   UNL     1       3.291  13.347  16.774  0.00  0.00    +0.000 HD
ENDROOT
BRANCH   1  13
ATOM     10  C   UNL     1       2.273   7.123  19.368  0.00  0.00    +0.000 A 
ATOM     11  C   UNL     1       1.660   7.775  20.435  0.00  0.00    +0.000 A 
ATOM     12  C   UNL     1       1.257   9.112  20.319  0.00  0.00    +0.000 A 
ATOM     13  C   UNL     1       1.439   9.833  19.118  0.00  0.00    +0.000 A 
ATOM     14  C   UNL     1       2.112   9.166  18.077  0.00  0.00    +0.000 A 
ATOM     15  C   UNL     1       2.523   7.833  18.199  0.00  0.00    +0.000 A 
BRANCH  10  17
ATOM     16  C   UNL     1       1.829   5.127  20.550  0.00  0.00    +0.000 C 
ATOM     17  O   UNL     1       2.622   5.820  19.590  0.00  0.00    +0.000 OA
ENDBRANCH  10  17
ENDBRANCH   1  13
BRANCH   1  18
ATOM     18  C   UNL     1      -0.549  11.209  18.770  0.00  0.00    +0.000 A 
ATOM     19  C   UNL     1      -1.538  12.118  19.229  0.00  0.00    +0.000 A 
ATOM     20  N   UNL     1      -2.771  11.785  18.842  0.00  0.00    +0.000 NA
ATOM     21  N   UNL     1      -2.589  10.669  18.119  0.00  0.00    +0.000 N 
ATOM     22  C   UNL     1      -3.720   9.981  17.549  0.00  0.00    +0.000 C 
ATOM     23  C   UNL     1      -1.280  10.297  18.024  0.00  0.00    +0.000 A 
ENDBRANCH   1  18
BRANCH   5  24
ATOM     24  C   UNL     1       2.585  14.321  20.539  0.00  0.00    +0.000 C 
ATOM     25  C   UNL     1       3.724  13.890  21.469  0.00  0.00    +0.000 C 
ATOM     26  C   UNL     1       4.154  15.050  22.351  0.00  0.00    +0.000 C 
ATOM     27  O   UNL     1       3.045  15.585  23.069  0.00  0.00    +0.000 OA
ATOM     28  C   UNL     1       2.031  16.098  22.205  0.00  0.00    +0.000 C 
ATOM     29  C   UNL     1       1.458  14.998  21.323  0.00  0.00    +0.000 C 
ENDBRANCH   5  24
TORSDOF 4
ENDMDL
MODEL 5
REMARK VINA RESULT:      -7.1      7.475     10.054
REMARK  Name = 
REMARK  6 active torsions:
REMARK  status: ('A' for Active; 'I' for Inactive)
REMARK    1  A    between atoms: C_1  and  O_2
REMARK    2  A    between atoms: O_2  and  C_3
REMARK    3  A    between atoms: C_6  and  C_7
REMARK    4  A    between atoms: C_7  and  C_8
REMARK    5  A    between atoms: N_11  and  C_12
REMARK    6  A    between atoms: N_17  and  C_18
REMARK                            x       y       z     vdW  Elec       q    Type
REMARK                         _______ _______ _______ _____ _____    ______ ____
ROOT
ATOM      1  C   UNL     1       0.830  11.400  18.995  0.00  0.00    +0.000 C 
ATOM      2  N   UNL     1       1.582  12.072  17.933  0.00  0.00    +0.000 N 
ATOM      3  C   UNL     1       2.327  13.081  18.423  0.00  0.00    +0.000 C 
ATOM      4  N   UNL     1       3.187  13.752  17.761  0.00  0.00    +0.000 NA
ATOM      5  N   UNL     1       2.059  13.304  19.734  0.00  0.00    +0.000 N 
ATOM      6  C   UNL     1       1.194  12.332  20.205  0.00  0.00    +0.000 C 
ATOM      7  O   UNL     1       0.796  12.231  21.360  0.00  0.00    +0.000 OA
ATOM      8  H   UNL     1       1.892  11.559  17.127  0.00  0.00    +0.000 HD
ATOM      9  H   UNL     1       3.211  13.419  16.795  0.00  0.00    +0.000 HD
ENDROOT
BRANCH   1  13
ATOM     10  C   UNL     1       2.233   7.275  19.450  0.00  0.00    +0.000 A 
ATOM     11  C   UNL     1       2.398   7.947  18.242  0.00  0.00    +0.000 A 
ATOM     12  C   UNL     1       1.927   9.257  18.083  0.00  0.00    +0.000 A 
ATOM     13  C   UNL     1       1.291   9.942  19.141  0.00  0.00    +0.000 A 
ATOM     14  C   UNL     1       1.087   9.218  20.330  0.00  0.00    +0.000 A 
ATOM     15  C   UNL     1       1.550   7.905  20.483  0.00  0.00    +0.000 A 
BRANCH  10  17
ATOM     16  C   UNL     1       2.174   5.157  20.495  0.00  0.00    +0.000 C 
ATOM     17  O   UNL     1       2.733   6.003  19.494  0.00  0.00    +0.000 OA
ENDBRANCH  10  17
ENDBRANCH   1  13
BRANCH   1  18
ATOM     18  C   UNL     1      -0.665  11.370  18.814  0.00  0.00    +0.000 A 
ATOM     19  C   UNL     1      -1.436  10.487  18.013  0.00  0.00    +0.000 A 
ATOM     20  N   UNL     1      -2.749  10.704  18.116  0.00  0.00    +0.000 NA
ATOM     21  N   UNL     1      -2.838  11.715  18.994  0.00  0.00    +0.000 N 
ATOM     22  C   UNL     1      -4.126  12.262  19.342  0.00  0.00    +0.000 C 
ATOM     23  C   UNL     1      -1.627  12.133  19.460  0.00  0.00    +0.000 A 
ENDBRANCH   1  18
BRANCH   5  24
ATOM     24  C   UNL     1       2.560  14.395  20.569  0.00  0.00    +0.000 C 
ATOM     25  C   UNL     1       3.707  13.936  21.476  0.00  0.00    +0.000 C 
ATOM     26  C   UNL     1       4.174  15.081  22.359  0.00  0.00    +0.000 C 
ATOM     27  O   UNL     1       3.086  15.631  23.100  0.00  0.00    +0.000 OA
ATOM     28  C   UNL     1       2.068  16.169  22.258  0.00  0.00    +0.000 C 
ATOM     29  C   UNL     1       1.460  15.087  21.377  0.00  0.00    +0.000 C 
ENDBRANCH   5  24
TORSDOF 4
ENDMDL
MODEL 6
REMARK VINA RESULT:      -7.1      7.300     10.056
REMARK  Name = 
REMARK  6 active torsions:
REMARK  status: ('A' for Active; 'I' for Inactive)
REMARK    1  A    between atoms: C_1  and  O_2
REMARK    2  A    between atoms: O_2  and  C_3
REMARK    3  A    between atoms: C_6  and  C_7
REMARK    4  A    between atoms: C_7  and  C_8
REMARK    5  A    between atoms: N_11  and  C_12
REMARK    6  A    between atoms: N_17  and  C_18
REMARK                            x       y       z     vdW  Elec       q    Type
REMARK                         _______ _______ _______ _____ _____    ______ ____
ROOT
ATOM      1  C   UNL     1       0.787  11.080  18.951  0.00  0.00    +0.000 C 
ATOM      2  N   UNL     1       1.631  11.759  17.966  0.00  0.00    +0.000 N 
ATOM      3  C   UNL     1       2.277  12.806  18.514  0.00  0.00    +0.000 C 
ATOM      4  N   UNL     1       3.183  13.497  17.938  0.00  0.00    +0.000 NA
ATOM      5  N   UNL     1       1.853  13.044  19.779  0.00  0.00    +0.000 N 
ATOM      6  C   UNL     1       0.975  12.048  20.172  0.00  0.00    +0.000 C 
ATOM      7  O   UNL     1       0.451  11.955  21.276  0.00  0.00    +0.000 OA
ATOM      8  H   UNL     1       2.051  11.243  17.213  0.00  0.00    +0.000 HD
ATOM      9  H   UNL     1       3.330  13.146  16.990  0.00  0.00    +0.000 HD
ENDROOT
BRANCH   1  13
ATOM     10  C   UNL     1       2.281   7.022  19.655  0.00  0.00    +0.000 A 
ATOM     11  C   UNL     1       2.476   7.642  18.424  0.00  0.00    +0.000 A 
ATOM     12  C   UNL     1       1.977   8.929  18.185  0.00  0.00    +0.000 A 
ATOM     13  C   UNL     1       1.281   9.644  19.184  0.00  0.00    +0.000 A 
ATOM     14  C   UNL     1       1.049   8.970  20.398  0.00  0.00    +0.000 A 
ATOM     15  C   UNL     1       1.541   7.680  20.630  0.00  0.00    +0.000 A 
BRANCH  10  17
ATOM     16  C   UNL     1       2.072   4.865  20.594  0.00  0.00    +0.000 C 
ATOM     17  O   UNL     1       2.813   5.769  19.779  0.00  0.00    +0.000 OA
ENDBRANCH  10  17
ENDBRANCH   1  13
BRANCH   1  18
ATOM     18  C   UNL     1      -0.675  10.987  18.601  0.00  0.00    +0.000 A 
ATOM     19  C   UNL     1      -1.328  10.013  17.802  0.00  0.00    +0.000 A 
ATOM     20  N   UNL     1      -2.648  10.198  17.731  0.00  0.00    +0.000 NA
ATOM     21  N   UNL     1      -2.861  11.281  18.493  0.00  0.00    +0.000 N 
ATOM     22  C   UNL     1      -4.192  11.818  18.637  0.00  0.00    +0.000 C 
ATOM     23  C   UNL     1      -1.722  11.776  19.056  0.00  0.00    +0.000 A 
ENDBRANCH   1  18
BRANCH   5  24
ATOM     24  C   UNL     1       2.214  14.170  20.640  0.00  0.00    +0.000 C 
ATOM     25  C   UNL     1       1.888  15.515  19.982  0.00  0.00    +0.000 C 
ATOM     26  C   UNL     1       2.315  16.662  20.882  0.00  0.00    +0.000 C 
ATOM     27  O   UNL     1       3.693  16.552  21.232  0.00  0.00    +0.000 OA
ATOM     28  C   UNL     1       3.980  15.354  21.951  0.00  0.00    +0.000 C 
ATOM     29  C   UNL     1       3.669  14.124  21.110  0.00  0.00    +0.000 C 
ENDBRANCH   5  24
TORSDOF 4
ENDMDL
MODEL 7
REMARK VINA RESULT:      -7.0      7.280      9.969
REMARK  Name = 
REMARK  6 active torsions:
REMARK  status: ('A' for Active; 'I' for Inactive)
REMARK    1  A    between atoms: C_1  and  O_2
REMARK    2  A    between atoms: O_2  and  C_3
REMARK    3  A    between atoms: C_6  and  C_7
REMARK    4  A    between atoms: C_7  and  C_8
REMARK    5  A    between atoms: N_11  and  C_12
REMARK    6  A    between atoms: N_17  and  C_18
REMARK                            x       y       z     vdW  Elec       q    Type
REMARK                         _______ _______ _______ _____ _____    ______ ____
ROOT
ATOM      1  C   UNL     1       0.871  11.265  19.036  0.00  0.00    +0.000 C 
ATOM      2  N   UNL     1       1.634  12.016  18.036  0.00  0.00    +0.000 N 
ATOM      3  C   UNL     1       2.342  13.010  18.605  0.00  0.00    +0.000 C 
ATOM      4  N   UNL     1       3.203  13.738  18.008  0.00  0.00    +0.000 NA
ATOM      5  N   UNL     1       2.036  13.147  19.919  0.00  0.00    +0.000 N 
ATOM      6  C   UNL     1       1.182  12.130  20.308  0.00  0.00    +0.000 C 
ATOM      7  O   UNL     1       0.757  11.951  21.444  0.00  0.00    +0.000 OA
ATOM      8  H   UNL     1       1.977  11.559  17.209  0.00  0.00    +0.000 HD
ATOM      9  H   UNL     1       3.259  13.464  17.025  0.00  0.00    +0.000 HD
ENDROOT
BRANCH   1  13
ATOM     10  C   UNL     1       2.360   7.152  19.276  0.00  0.00    +0.000 A 
ATOM     11  C   UNL     1       2.483   7.879  18.096  0.00  0.00    +0.000 A 
ATOM     12  C   UNL     1       1.985   9.185  18.005  0.00  0.00    +0.000 A 
ATOM     13  C   UNL     1       1.362   9.812  19.107  0.00  0.00    +0.000 A 
ATOM     14  C   UNL     1       1.201   9.033  20.268  0.00  0.00    +0.000 A 
ATOM     15  C   UNL     1       1.691   7.724  20.352  0.00  0.00    +0.000 A 
BRANCH  10  17
ATOM     16  C   UNL     1       2.885   5.247  17.982  0.00  0.00    +0.000 C 
ATOM     17  O   UNL     1       2.884   5.890  19.254  0.00  0.00    +0.000 OA
ENDBRANCH  10  17
ENDBRANCH   1  13
BRANCH   1  18
ATOM     18  C   UNL     1      -0.618  11.213  18.813  0.00  0.00    +0.000 A 
ATOM     19  C   UNL     1      -1.603  12.143  19.236  0.00  0.00    +0.000 A 
ATOM     20  N   UNL     1      -2.833  11.819  18.830  0.00  0.00    +0.000 NA
ATOM     21  N   UNL     1      -2.651  10.689  18.130  0.00  0.00    +0.000 N 
ATOM     22  C   UNL     1      -3.780  10.006  17.548  0.00  0.00    +0.000 C 
ATOM     23  C   UNL     1      -1.346  10.297  18.068  0.00  0.00    +0.000 A 
ENDBRANCH   1  18
BRANCH   5  24
ATOM     24  C   UNL     1       2.490  14.197  20.831  0.00  0.00    +0.000 C 
ATOM     25  C   UNL     1       2.149  15.595  20.303  0.00  0.00    +0.000 C 
ATOM     26  C   UNL     1       2.671  16.660  21.251  0.00  0.00    +0.000 C 
ATOM     27  O   UNL     1       4.069  16.497  21.484  0.00  0.00    +0.000 OA
ATOM     28  C   UNL     1       4.379  15.242  22.087  0.00  0.00    +0.000 C 
ATOM     29  C   UNL     1       3.975  14.087  21.183  0.00  0.00    +0.000 C 
ENDBRANCH   5  24
TORSDOF 4
ENDMDL
MODEL 8
REMARK VINA RESULT:      -7.0      6.386      8.907
REMARK  Name = 
REMARK  6 active torsions:
REMARK  status: ('A' for Active; 'I' for Inactive)
REMARK    1  A    between atoms: C_1  and  O_2
REMARK    2  A    between atoms: O_2  and  C_3
REMARK    3  A    between atoms: C_6  and  C_7
REMARK    4  A    between atoms: C_7  and  C_8
REMARK    5  A    between atoms: N_11  and  C_12
REMARK    6  A    between atoms: N_17  and  C_18
REMARK                            x       y       z     vdW  Elec       q    Type
REMARK                         _______ _______ _______ _____ _____    ______ ____
ROOT
ATOM      1  C   UNL     1       0.833  10.279  19.085  0.00  0.00    +0.000 C 
ATOM      2  N   UNL     1       0.679   9.623  20.385  0.00  0.00    +0.000 N 
ATOM      3  C   UNL     1       1.405   8.491  20.451  0.00  0.00    +0.000 C 
ATOM      4  N   UNL     1       1.578   7.786  21.501  0.00  0.00    +0.000 NA
ATOM      5  N   UNL     1       1.954   8.183  19.250  0.00  0.00    +0.000 N 
ATOM      6  C   UNL     1       1.708   9.204  18.349  0.00  0.00    +0.000 C 
ATOM      7  O   UNL     1       2.109   9.245  17.191  0.00  0.00    +0.000 OA
ATOM      8  H   UNL     1       0.512  10.167  21.213  0.00  0.00    +0.000 HD
ATOM      9  H   UNL     1       1.063   8.201  22.280  0.00  0.00    +0.000 HD
ENDROOT
BRANCH   1  13
ATOM     10  C   UNL     1       2.657  14.238  19.531  0.00  0.00    +0.000 A 
ATOM     11  C   UNL     1       2.803  13.523  18.345  0.00  0.00    +0.000 A 
ATOM     12  C   UNL     1       2.244  12.246  18.207  0.00  0.00    +0.000 A 
ATOM     13  C   UNL     1       1.502  11.652  19.251  0.00  0.00    +0.000 A 
ATOM     14  C   UNL     1       1.420  12.373  20.457  0.00  0.00    +0.000 A 
ATOM     15  C   UNL     1       1.988  13.645  20.596  0.00  0.00    +0.000 A 
BRANCH  10  17
ATOM     16  C   UNL     1       3.098  16.244  18.364  0.00  0.00    +0.000 C 
ATOM     17  O   UNL     1       3.240  15.474  19.555  0.00  0.00    +0.000 OA
ENDBRANCH  10  17
ENDBRANCH   1  13
BRANCH   1  18
ATOM     18  C   UNL     1      -0.442  10.505  18.315  0.00  0.00    +0.000 A 
ATOM     19  C   UNL     1      -1.267  11.660  18.300  0.00  0.00    +0.000 A 
ATOM     20  N   UNL     1      -2.305  11.547  17.468  0.00  0.00    +0.000 NA
ATOM     21  N   UNL     1      -2.151  10.329  16.928  0.00  0.00    +0.000 N 
ATOM     22  C   UNL     1      -3.118   9.825  15.984  0.00  0.00    +0.000 C 
ATOM     23  C   UNL     1      -1.042   9.675  17.380  0.00  0.00    +0.000 A 
ENDBRANCH   1  18
BRANCH   5  24
ATOM     24  C   UNL     1       2.685   6.967  18.894  0.00  0.00    +0.000 C 
ATOM     25  C   UNL     1       3.907   7.274  18.021  0.00  0.00    +0.000 C 
ATOM     26  C   UNL     1       4.618   5.988  17.636  0.00  0.00    +0.000 C 
ATOM     27  O   UNL     1       3.720   5.077  17.005  0.00  0.00    +0.000 OA
ATOM     28  C   UNL     1       2.642   4.694  17.858  0.00  0.00    +0.000 C 
ATOM     29  C   UNL     1       1.799   5.900  18.247  0.00  0.00    +0.000 C 
ENDBRANCH   5  24
TORSDOF 4
ENDMDL
MODEL 9
REMARK VINA RESULT:      -7.0      7.386      9.887
REMARK  Name = 
REMARK  6 active torsions:
REMARK  status: ('A' for Active; 'I' for Inactive)
REMARK    1  A    between atoms: C_1  and  O_2
REMARK    2  A    between atoms: O_2  and  C_3
REMARK    3  A    between atoms: C_6  and  C_7
REMARK    4  A    between atoms: C_7  and  C_8
REMARK    5  A    between atoms: N_11  and  C_12
REMARK    6  A    between atoms: N_17  and  C_18
REMARK                            x       y       z     vdW  Elec       q    Type
REMARK                         _______ _______ _______ _____ _____    ______ ____
ROOT
ATOM      1  C   UNL     1       0.932  11.330  18.933  0.00  0.00    +0.000 C 
ATOM      2  N   UNL     1       1.672  12.046  17.891  0.00  0.00    +0.000 N 
ATOM      3  C   UNL     1       2.375  13.073  18.408  0.00  0.00    +0.000 C 
ATOM      4  N   UNL     1       3.219  13.785  17.768  0.00  0.00    +0.000 NA
ATOM      5  N   UNL     1       2.085  13.262  19.719  0.00  0.00    +0.000 N 
ATOM      6  C   UNL     1       1.249  12.252  20.162  0.00  0.00    +0.000 C 
ATOM      7  O   UNL     1       0.842  12.117  21.311  0.00  0.00    +0.000 OA
ATOM      8  H   UNL     1       2.010  11.559  17.080  0.00  0.00    +0.000 HD
ATOM      9  H   UNL     1       3.266  13.470  16.797  0.00  0.00    +0.000 HD
ENDROOT
BRANCH   1  13
ATOM     10  C   UNL     1       2.303   7.181  19.253  0.00  0.00    +0.000 A 
ATOM     11  C   UNL     1       1.675   7.802  20.329  0.00  0.00    +0.000 A 
ATOM     12  C   UNL     1       1.258   9.136  20.241  0.00  0.00    +0.000 A 
ATOM     13  C   UNL     1       1.443   9.887  19.059  0.00  0.00    +0.000 A 
ATOM     14  C   UNL     1       2.132   9.252  18.009  0.00  0.00    +0.000 A 
ATOM     15  C   UNL     1       2.556   7.921  18.103  0.00  0.00    +0.000 A 
BRANCH  10  17
ATOM     16  C   UNL     1       3.714   5.399  18.611  0.00  0.00    +0.000 C 
ATOM     17  O   UNL     1       2.665   5.878  19.448  0.00  0.00    +0.000 OA
ENDBRANCH  10  17
ENDBRANCH   1  13
BRANCH   1  18
ATOM     18  C   UNL     1      -0.559  11.250  18.733  0.00  0.00    +0.000 A 
ATOM     19  C   UNL     1      -1.297  10.284  18.002  0.00  0.00    +0.000 A 
ATOM     20  N   UNL     1      -2.616  10.479  18.065  0.00  0.00    +0.000 NA
ATOM     21  N   UNL     1      -2.741  11.562  18.848  0.00  0.00    +0.000 N 
ATOM     22  C   UNL     1      -4.046  12.108  19.128  0.00  0.00    +0.000 C 
ATOM     23  C   UNL     1      -1.547  12.046  19.294  0.00  0.00    +0.000 A 
ENDBRANCH   1  18
BRANCH   5  24
ATOM     24  C   UNL     1       2.537  14.356  20.579  0.00  0.00    +0.000 C 
ATOM     25  C   UNL     1       3.706  13.929  21.474  0.00  0.00    +0.000 C 
ATOM     26  C   UNL     1       4.122  15.073  22.382  0.00  0.00    +0.000 C 
ATOM     27  O   UNL     1       3.012  15.555  23.137  0.00  0.00    +0.000 OA
ATOM     28  C   UNL     1       1.968  16.065  22.310  0.00  0.00    +0.000 C 
ATOM     29  C   UNL     1       1.408  14.977  21.405  0.00  0.00    +0.000 C 
ENDBRANCH   5  24
TORSDOF 4
ENDMDL
