MODEL 1
REMARK VINA RESULT:      -7.4      0.000      0.000
REMARK  Name = 
REMARK  13 active torsions:
REMARK  status: ('A' for Active; 'I' for Inactive)
REMARK    1  A    between atoms: C_1  and  C_2
REMARK    2  A    between atoms: C_2  and  C_3
REMARK    3  A    between atoms: C_3  and  C_4
REMARK    4  A    between atoms: C_4  and  C_5
REMARK    5  A    between atoms: C_5  and  C_6
REMARK    6  A    between atoms: C_6  and  C_7
REMARK    7  A    between atoms: C_7  and  C_9
REMARK    8  A    between atoms: C_10  and  C_11
REMARK    9  A    between atoms: C_12  and  C_13
REMARK   10  A    between atoms: C_13  and  C_15
REMARK   11  A    between atoms: C_18  and  C_19
REMARK   12  A    between atoms: C_19  and  O_21
REMARK   13  A    between atoms: O_21  and  C_22
REMARK                            x       y       z     vdW  Elec       q    Type
REMARK                         _______ _______ _______ _____ _____    ______ ____
ROOT
ATOM      1  C   UNL     1       6.624   4.995  16.584  0.00  0.00    +0.000 C 
ATOM      2  C   UNL     1       7.096   5.585  17.692  0.00  0.00    +0.000 C 
ENDROOT
BRANCH   1   4
ATOM      3  C   UNL     1       6.903   4.545  14.173  0.00  0.00    +0.000 C 
ATOM      4  C   UNL     1       7.143   5.291  15.262  0.00  0.00    +0.000 C 
BRANCH   3   5
ATOM      5  C   UNL     1       7.515   4.944  12.865  0.00  0.00    +0.000 C 
ATOM      6  O   UNL     1       8.423   5.763  12.817  0.00  0.00    +0.000 OA
BRANCH   5   7
ATOM      7  C   UNL     1       6.929   4.296  11.616  0.00  0.00    +0.000 C 
BRANCH   7   8
ATOM      8  C   UNL     1       6.841   2.776  11.763  0.00  0.00    +0.000 C 
BRANCH   8   9
ATOM      9  C   UNL     1       5.452   2.236  11.417  0.00  0.00    +0.000 C 
BRANCH   9  10
ATOM     10  C   UNL     1       4.393   3.331  11.564  0.00  0.00    +0.000 C 
BRANCH  10  12
ATOM     11  C   UNL     1       3.080   4.133   9.575  0.00  0.00    +0.000 C 
ATOM     12  C   UNL     1       3.187   3.075  10.660  0.00  0.00    +0.000 C 
ENDBRANCH  10  12
ENDBRANCH   9  10
ENDBRANCH   8   9
ENDBRANCH   7   8
ENDBRANCH   5   7
ENDBRANCH   3   5
ENDBRANCH   1   4
BRANCH   2  13
ATOM     13  C   UNL     1       6.558   5.244  19.047  0.00  0.00    +0.000 C 
ATOM     14  O   UNL     1       7.187   5.453  20.071  0.00  0.00    +0.000 OA
BRANCH  13  15
ATOM     15  C   UNL     1       5.183   4.660  19.098  0.00  0.00    +0.000 A 
ATOM     16  C   UNL     1       5.008   3.279  19.240  0.00  0.00    +0.000 A 
ATOM     17  C   UNL     1       3.723   2.731  19.305  0.00  0.00    +0.000 A 
ATOM     18  C   UNL     1       2.591   3.557  19.248  0.00  0.00    +0.000 A 
ATOM     19  C   UNL     1       2.764   4.937  19.080  0.00  0.00    +0.000 A 
ATOM     20  C   UNL     1       4.055   5.488  19.009  0.00  0.00    +0.000 A 
BRANCH  18  21
ATOM     21  C   UNL     1       1.244   2.927  19.393  0.00  0.00    +0.000 C 
ATOM     22  O   UNL     1       0.480   2.753  18.456  0.00  0.00    +0.000 OA
BRANCH  21  23
ATOM     23  O   UNL     1       1.014   2.559  20.679  0.00  0.00    +0.000 OA
ATOM     24  C   UNL     1       1.761   3.302  21.648  0.00  0.00    +0.000 C 
ENDBRANCH  21  23
ENDBRANCH  18  21
ENDBRANCH  13  15
ENDBRANCH   2  13
TORSDOF 11
ENDMDL
MODEL 2
REMARK VINA RESULT:      -7.3      5.098      8.566
REMARK  Name = 
REMARK  13 active torsions:
REMARK  status: ('A' for Active; 'I' for Inactive)
REMARK    1  A    between atoms: C_1  and  C_2
REMARK    2  A    between atoms: C_2  and  C_3
REMARK    3  A    between atoms: C_3  and  C_4
REMARK    4  A    between atoms: C_4  and  C_5
REMARK    5  A    between atoms: C_5  and  C_6
REMARK    6  A    between atoms: C_6  and  C_7
REMARK    7  A    between atoms: C_7  and  C_9
REMARK    8  A    between atoms: C_10  and  C_11
REMARK    9  A    between atoms: C_12  and  C_13
REMARK   10  A    between atoms: C_13  and  C_15
REMARK   11  A    between atoms: C_18  and  C_19
REMARK   12  A    between atoms: C_19  and  O_21
REMARK   13  A    between atoms: O_21  and  C_22
REMARK                            x       y       z     vdW  Elec       q    Type
REMARK                         _______ _______ _______ _____ _____    ______ ____
ROOT
ATOM      1  C   UNL     1       8.140   8.858  17.861  0.00  0.00    +0.000 C 
ATOM      2  C   UNL     1       7.987   7.555  18.143  0.00  0.00    +0.000 C 
ENDROOT
BRANCH   1   4
ATOM      3  C   UNL     1       9.446  10.908  18.290  0.00  0.00    +0.000 C 
ATOM      4  C   UNL     1       8.903   9.754  18.708  0.00  0.00    +0.000 C 
BRANCH   3   5
ATOM      5  C   UNL     1      10.232  11.738  19.257  0.00  0.00    +0.000 C 
ATOM      6  O   UNL     1      11.138  12.467  18.872  0.00  0.00    +0.000 OA
BRANCH   5   7
ATOM      7  C   UNL     1       9.859  11.603  20.728  0.00  0.00    +0.000 C 
BRANCH   7   8
ATOM      8  C   UNL     1       9.865  12.960  21.433  0.00  0.00    +0.000 C 
BRANCH   8   9
ATOM      9  C   UNL     1       8.893  13.010  22.613  0.00  0.00    +0.000 C 
BRANCH   9  10
ATOM     10  C   UNL     1       8.123  11.693  22.736  0.00  0.00    +0.000 C 
BRANCH  10  12
ATOM     11  C   UNL     1       6.681  11.452  24.782  0.00  0.00    +0.000 C 
ATOM     12  C   UNL     1       6.732  11.906  23.333  0.00  0.00    +0.000 C 
ENDBRANCH  10  12
ENDBRANCH   9  10
ENDBRANCH   8   9
ENDBRANCH   7   8
ENDBRANCH   5   7
ENDBRANCH   3   5
ENDBRANCH   1   4
BRANCH   2  13
ATOM     13  C   UNL     1       7.213   6.647  17.238  0.00  0.00    +0.000 C 
ATOM     14  O   UNL     1       7.562   6.414  16.093  0.00  0.00    +0.000 OA
BRANCH  13  15
ATOM     15  C   UNL     1       5.997   5.997  17.816  0.00  0.00    +0.000 A 
ATOM     16  C   UNL     1       4.724   6.360  17.365  0.00  0.00    +0.000 A 
ATOM     17  C   UNL     1       3.584   5.742  17.892  0.00  0.00    +0.000 A 
ATOM     18  C   UNL     1       3.700   4.738  18.865  0.00  0.00    +0.000 A 
ATOM     19  C   UNL     1       4.974   4.393  19.335  0.00  0.00    +0.000 A 
ATOM     20  C   UNL     1       6.119   5.016  18.811  0.00  0.00    +0.000 A 
BRANCH  18  21
ATOM     21  C   UNL     1       2.457   4.063  19.341  0.00  0.00    +0.000 C 
ATOM     22  O   UNL     1       1.487   4.668  19.773  0.00  0.00    +0.000 OA
BRANCH  21  23
ATOM     23  O   UNL     1       2.548   2.716  19.198  0.00  0.00    +0.000 OA
ATOM     24  C   UNL     1       2.371   2.253  17.855  0.00  0.00    +0.000 C 
ENDBRANCH  21  23
ENDBRANCH  18  21
ENDBRANCH  13  15
ENDBRANCH   2  13
TORSDOF 11
ENDMDL
MODEL 3
REMARK VINA RESULT:      -7.3      5.096      7.851
REMARK  Name = 
REMARK  13 active torsions:
REMARK  status: ('A' for Active; 'I' for Inactive)
REMARK    1  A    between atoms: C_1  and  C_2
REMARK    2  A    between atoms: C_2  and  C_3
REMARK    3  A    between atoms: C_3  and  C_4
REMARK    4  A    between atoms: C_4  and  C_5
REMARK    5  A    between atoms: C_5  and  C_6
REMARK    6  A    between atoms: C_6  and  C_7
REMARK    7  A    between atoms: C_7  and  C_9
REMARK    8  A    between atoms: C_10  and  C_11
REMARK    9  A    between atoms: C_12  and  C_13
REMARK   10  A    between atoms: C_13  and  C_15
REMARK   11  A    between atoms: C_18  and  C_19
REMARK   12  A    between atoms: C_19  and  O_21
REMARK   13  A    between atoms: O_21  and  C_22
REMARK                            x       y       z     vdW  Elec       q    Type
REMARK                         _______ _______ _______ _____ _____    ______ ____
ROOT
ATOM      1  C   UNL     1       7.335   7.034  17.449  0.00  0.00    +0.000 C 
ATOM      2  C   UNL     1       6.072   7.171  17.019  0.00  0.00    +0.000 C 
ENDROOT
BRANCH   1   4
ATOM      3  C   UNL     1       8.221   9.313  17.793  0.00  0.00    +0.000 C 
ATOM      4  C   UNL     1       8.011   8.059  18.222  0.00  0.00    +0.000 C 
BRANCH   3   5
ATOM      5  C   UNL     1       8.952  10.275  18.678  0.00  0.00    +0.000 C 
ATOM      6  O   UNL     1       9.411   9.917  19.755  0.00  0.00    +0.000 OA
BRANCH   5   7
ATOM      7  C   UNL     1       9.064  11.708  18.175  0.00  0.00    +0.000 C 
BRANCH   7   8
ATOM      8  C   UNL     1      10.475  12.015  17.670  0.00  0.00    +0.000 C 
BRANCH   8   9
ATOM      9  C   UNL     1      11.291  12.832  18.673  0.00  0.00    +0.000 C 
BRANCH   9  10
ATOM     10  C   UNL     1      10.774  14.271  18.747  0.00  0.00    +0.000 C 
BRANCH  10  12
ATOM     11  C   UNL     1      12.331  15.751  17.440  0.00  0.00    +0.000 C 
ATOM     12  C   UNL     1      11.919  15.279  18.825  0.00  0.00    +0.000 C 
ENDBRANCH  10  12
ENDBRANCH   9  10
ENDBRANCH   8   9
ENDBRANCH   7   8
ENDBRANCH   5   7
ENDBRANCH   3   5
ENDBRANCH   1   4
BRANCH   2  13
ATOM     13  C   UNL     1       5.391   6.087  16.242  0.00  0.00    +0.000 C 
ATOM     14  O   UNL     1       5.751   5.760  15.124  0.00  0.00    +0.000 OA
BRANCH  13  15
ATOM     15  C   UNL     1       4.257   5.386  16.918  0.00  0.00    +0.000 A 
ATOM     16  C   UNL     1       3.982   4.046  16.625  0.00  0.00    +0.000 A 
ATOM     17  C   UNL     1       2.931   3.382  17.267  0.00  0.00    +0.000 A 
ATOM     18  C   UNL     1       2.151   4.041  18.229  0.00  0.00    +0.000 A 
ATOM     19  C   UNL     1       2.410   5.390  18.504  0.00  0.00    +0.000 A 
ATOM     20  C   UNL     1       3.461   6.060  17.856  0.00  0.00    +0.000 A 
BRANCH  18  21
ATOM     21  C   UNL     1       1.089   3.264  18.935  0.00  0.00    +0.000 C 
ATOM     22  O   UNL     1       0.497   2.323  18.430  0.00  0.00    +0.000 OA
BRANCH  21  23
ATOM     23  O   UNL     1       0.906   3.726  20.198  0.00  0.00    +0.000 OA
ATOM     24  C   UNL     1       1.317   2.817  21.224  0.00  0.00    +0.000 C 
ENDBRANCH  21  23
ENDBRANCH  18  21
ENDBRANCH  13  15
ENDBRANCH   2  13
TORSDOF 11
ENDMDL
MODEL 4
REMARK VINA RESULT:      -7.2      5.116      8.176
REMARK  Name = 
REMARK  13 active torsions:
REMARK  status: ('A' for Active; 'I' for Inactive)
REMARK    1  A    between atoms: C_1  and  C_2
REMARK    2  A    between atoms: C_2  and  C_3
REMARK    3  A    between atoms: C_3  and  C_4
REMARK    4  A    between atoms: C_4  and  C_5
REMARK    5  A    between atoms: C_5  and  C_6
REMARK    6  A    between atoms: C_6  and  C_7
REMARK    7  A    between atoms: C_7  and  C_9
REMARK    8  A    between atoms: C_10  and  C_11
REMARK    9  A    between atoms: C_12  and  C_13
REMARK   10  A    between atoms: C_13  and  C_15
REMARK   11  A    between atoms: C_18  and  C_19
REMARK   12  A    between atoms: C_19  and  O_21
REMARK   13  A    between atoms: O_21  and  C_22
REMARK                            x       y       z     vdW  Elec       q    Type
REMARK                         _______ _______ _______ _____ _____    ______ ____
ROOT
ATOM      1  C   UNL     1       7.658   8.093  17.376  0.00  0.00    +0.000 C 
ATOM      2  C   UNL     1       7.635   6.937  18.056  0.00  0.00    +0.000 C 
ENDROOT
BRANCH   1   4
ATOM      3  C   UNL     1       8.898   9.368  19.088  0.00  0.00    +0.000 C 
ATOM      4  C   UNL     1       8.315   9.283  17.882  0.00  0.00    +0.000 C 
BRANCH   3   5
ATOM      5  C   UNL     1       9.525  10.662  19.506  0.00  0.00    +0.000 C 
ATOM      6  O   UNL     1       9.520  11.015  20.679  0.00  0.00    +0.000 OA
BRANCH   5   7
ATOM      7  C   UNL     1      10.137  11.509  18.398  0.00  0.00    +0.000 C 
BRANCH   7   8
ATOM      8  C   UNL     1      11.647  11.668  18.584  0.00  0.00    +0.000 C 
BRANCH   8   9
ATOM      9  C   UNL     1      12.085  13.133  18.584  0.00  0.00    +0.000 C 
BRANCH   9  10
ATOM     10  C   UNL     1      10.908  14.051  18.922  0.00  0.00    +0.000 C 
BRANCH  10  12
ATOM     11  C   UNL     1      10.336  14.362  21.351  0.00  0.00    +0.000 C 
ATOM     12  C   UNL     1      11.173  14.866  20.187  0.00  0.00    +0.000 C 
ENDBRANCH  10  12
ENDBRANCH   9  10
ENDBRANCH   8   9
ENDBRANCH   7   8
ENDBRANCH   5   7
ENDBRANCH   3   5
ENDBRANCH   1   4
BRANCH   2  13
ATOM     13  C   UNL     1       6.971   5.717  17.499  0.00  0.00    +0.000 C 
ATOM     14  O   UNL     1       7.513   4.994  16.679  0.00  0.00    +0.000 OA
BRANCH  13  15
ATOM     15  C   UNL     1       5.608   5.394  18.022  0.00  0.00    +0.000 A 
ATOM     16  C   UNL     1       4.469   5.848  17.349  0.00  0.00    +0.000 A 
ATOM     17  C   UNL     1       3.192   5.535  17.827  0.00  0.00    +0.000 A 
ATOM     18  C   UNL     1       3.033   4.744  18.975  0.00  0.00    +0.000 A 
ATOM     19  C   UNL     1       4.174   4.310  19.664  0.00  0.00    +0.000 A 
ATOM     20  C   UNL     1       5.456   4.630  19.188  0.00  0.00    +0.000 A 
BRANCH  18  21
ATOM     21  C   UNL     1       1.649   4.380  19.401  0.00  0.00    +0.000 C 
ATOM     22  O   UNL     1       1.159   4.731  20.464  0.00  0.00    +0.000 OA
BRANCH  21  23
ATOM     23  O   UNL     1       1.022   3.647  18.446  0.00  0.00    +0.000 OA
ATOM     24  C   UNL     1       0.963   2.244  18.724  0.00  0.00    +0.000 C 
ENDBRANCH  21  23
ENDBRANCH  18  21
ENDBRANCH  13  15
ENDBRANCH   2  13
TORSDOF 11
ENDMDL
MODEL 5
REMARK VINA RESULT:      -7.2      5.282      8.028
REMARK  Name = 
REMARK  13 active torsions:
REMARK  status: ('A' for Active; 'I' for Inactive)
REMARK    1  A    between atoms: C_1  and  C_2
REMARK    2  A    between atoms: C_2  and  C_3
REMARK    3  A    between atoms: C_3  and  C_4
REMARK    4  A    between atoms: C_4  and  C_5
REMARK    5  A    between atoms: C_5  and  C_6
REMARK    6  A    between atoms: C_6  and  C_7
REMARK    7  A    between atoms: C_7  and  C_9
REMARK    8  A    between atoms: C_10  and  C_11
REMARK    9  A    between atoms: C_12  and  C_13
REMARK   10  A    between atoms: C_13  and  C_15
REMARK   11  A    between atoms: C_18  and  C_19
REMARK   12  A    between atoms: C_19  and  O_21
REMARK   13  A    between atoms: O_21  and  C_22
REMARK                            x       y       z     vdW  Elec       q    Type
REMARK                         _______ _______ _______ _____ _____    ______ ____
ROOT
ATOM      1  C   UNL     1       8.217   7.925  18.558  0.00  0.00    +0.000 C 
ATOM      2  C   UNL     1       7.695   6.948  17.803  0.00  0.00    +0.000 C 
ENDROOT
BRANCH   1   4
ATOM      3  C   UNL     1       9.143  10.208  18.726  0.00  0.00    +0.000 C 
ATOM      4  C   UNL     1       8.556   9.229  18.020  0.00  0.00    +0.000 C 
BRANCH   3   5
ATOM      5  C   UNL     1       9.423  11.521  18.063  0.00  0.00    +0.000 C 
ATOM      6  O   UNL     1       8.521  12.319  17.838  0.00  0.00    +0.000 OA
BRANCH   5   7
ATOM      7  C   UNL     1      10.869  11.787  17.668  0.00  0.00    +0.000 C 
BRANCH   7   8
ATOM      8  C   UNL     1      11.823  11.545  18.839  0.00  0.00    +0.000 C 
BRANCH   8   9
ATOM      9  C   UNL     1      11.504  12.430  20.045  0.00  0.00    +0.000 C 
BRANCH   9  10
ATOM     10  C   UNL     1      11.799  13.899  19.732  0.00  0.00    +0.000 C 
BRANCH  10  12
ATOM     11  C   UNL     1      10.613  15.919  18.815  0.00  0.00    +0.000 C 
ATOM     12  C   UNL     1      10.533  14.753  19.788  0.00  0.00    +0.000 C 
ENDBRANCH  10  12
ENDBRANCH   9  10
ENDBRANCH   8   9
ENDBRANCH   7   8
ENDBRANCH   5   7
ENDBRANCH   3   5
ENDBRANCH   1   4
BRANCH   2  13
ATOM     13  C   UNL     1       7.333   5.619  18.389  0.00  0.00    +0.000 C 
ATOM     14  O   UNL     1       8.149   4.908  18.952  0.00  0.00    +0.000 OA
BRANCH  13  15
ATOM     15  C   UNL     1       5.899   5.207  18.289  0.00  0.00    +0.000 A 
ATOM     16  C   UNL     1       5.231   4.701  19.409  0.00  0.00    +0.000 A 
ATOM     17  C   UNL     1       3.885   4.330  19.323  0.00  0.00    +0.000 A 
ATOM     18  C   UNL     1       3.179   4.477  18.120  0.00  0.00    +0.000 A 
ATOM     19  C   UNL     1       3.854   4.959  16.991  0.00  0.00    +0.000 A 
ATOM     20  C   UNL     1       5.207   5.327  17.075  0.00  0.00    +0.000 A 
BRANCH  18  21
ATOM     21  C   UNL     1       1.726   4.133  18.103  0.00  0.00    +0.000 C 
ATOM     22  O   UNL     1       1.015   4.274  17.119  0.00  0.00    +0.000 OA
BRANCH  21  23
ATOM     23  O   UNL     1       1.330   3.624  19.297  0.00  0.00    +0.000 OA
ATOM     24  C   UNL     1       0.819   2.289  19.229  0.00  0.00    +0.000 C 
ENDBRANCH  21  23
ENDBRANCH  18  21
ENDBRANCH  13  15
ENDBRANCH   2  13
TORSDOF 11
ENDMDL
MODEL 6
REMARK VINA RESULT:      -7.2      3.960      4.678
REMARK  Name = 
REMARK  13 active torsions:
REMARK  status: ('A' for Active; 'I' for Inactive)
REMARK    1  A    between atoms: C_1  and  C_2
REMARK    2  A    between atoms: C_2  and  C_3
REMARK    3  A    between atoms: C_3  and  C_4
REMARK    4  A    between atoms: C_4  and  C_5
REMARK    5  A    between atoms: C_5  and  C_6
REMARK    6  A    between atoms: C_6  and  C_7
REMARK    7  A    between atoms: C_7  and  C_9
REMARK    8  A    between atoms: C_10  and  C_11
REMARK    9  A    between atoms: C_12  and  C_13
REMARK   10  A    between atoms: C_13  and  C_15
REMARK   11  A    between atoms: C_18  and  C_19
REMARK   12  A    between atoms: C_19  and  O_21
REMARK   13  A    between atoms: O_21  and  C_22
REMARK                            x       y       z     vdW  Elec       q    Type
REMARK                         _______ _______ _______ _____ _____    ______ ____
ROOT
ATOM      1  C   UNL     1       5.258   5.547  16.560  0.00  0.00    +0.000 C 
ATOM      2  C   UNL     1       4.217   6.333  16.871  0.00  0.00    +0.000 C 
ENDROOT
BRANCH   1   4
ATOM      3  C   UNL     1       6.832   4.765  14.826  0.00  0.00    +0.000 C 
ATOM      4  C   UNL     1       6.007   5.697  15.326  0.00  0.00    +0.000 C 
BRANCH   3   5
ATOM      5  C   UNL     1       7.568   5.048  13.552  0.00  0.00    +0.000 C 
ATOM      6  O   UNL     1       8.500   5.841  13.525  0.00  0.00    +0.000 OA
BRANCH   5   7
ATOM      7  C   UNL     1       7.075   4.320  12.308  0.00  0.00    +0.000 C 
BRANCH   7   8
ATOM      8  C   UNL     1       5.997   3.291  12.652  0.00  0.00    +0.000 C 
BRANCH   8   9
ATOM      9  C   UNL     1       4.630   3.662  12.076  0.00  0.00    +0.000 C 
BRANCH   9  10
ATOM     10  C   UNL     1       4.297   2.786  10.865  0.00  0.00    +0.000 C 
BRANCH  10  12
ATOM     11  C   UNL     1       2.885   4.380   9.527  0.00  0.00    +0.000 C 
ATOM     12  C   UNL     1       2.900   3.084  10.320  0.00  0.00    +0.000 C 
ENDBRANCH  10  12
ENDBRANCH   9  10
ENDBRANCH   8   9
ENDBRANCH   7   8
ENDBRANCH   5   7
ENDBRANCH   3   5
ENDBRANCH   1   4
BRANCH   2  13
ATOM     13  C   UNL     1       3.477   6.172  18.163  0.00  0.00    +0.000 C 
ATOM     14  O   UNL     1       3.558   5.161  18.840  0.00  0.00    +0.000 OA
BRANCH  13  15
ATOM     15  C   UNL     1       2.651   7.333  18.614  0.00  0.00    +0.000 A 
ATOM     16  C   UNL     1       2.416   8.409  17.751  0.00  0.00    +0.000 A 
ATOM     17  C   UNL     1       1.630   9.490  18.165  0.00  0.00    +0.000 A 
ATOM     18  C   UNL     1       1.049   9.503  19.441  0.00  0.00    +0.000 A 
ATOM     19  C   UNL     1       1.304   8.438  20.315  0.00  0.00    +0.000 A 
ATOM     20  C   UNL     1       2.098   7.355  19.903  0.00  0.00    +0.000 A 
BRANCH  18  21
ATOM     21  C   UNL     1       0.160  10.647  19.805  0.00  0.00    +0.000 C 
ATOM     22  O   UNL     1      -0.642  10.607  20.726  0.00  0.00    +0.000 OA
BRANCH  21  23
ATOM     23  O   UNL     1       0.391  11.718  19.005  0.00  0.00    +0.000 OA
ATOM     24  C   UNL     1      -0.766  12.517  18.741  0.00  0.00    +0.000 C 
ENDBRANCH  21  23
ENDBRANCH  18  21
ENDBRANCH  13  15
ENDBRANCH   2  13
TORSDOF 11
ENDMDL
MODEL 7
REMARK VINA RESULT:      -7.1      2.116      7.656
REMARK  Name = 
REMARK  13 active torsions:
REMARK  status: ('A' for Active; 'I' for Inactive)
REMARK    1  A    between atoms: C_1  and  C_2
REMARK    2  A    between atoms: C_2  and  C_3
REMARK    3  A    between atoms: C_3  and  C_4
REMARK    4  A    between atoms: C_4  and  C_5
REMARK    5  A    between atoms: C_5  and  C_6
REMARK    6  A    between atoms: C_6  and  C_7
REMARK    7  A    between atoms: C_7  and  C_9
REMARK    8  A    between atoms: C_10  and  C_11
REMARK    9  A    between atoms: C_12  and  C_13
REMARK   10  A    between atoms: C_13  and  C_15
REMARK   11  A    between atoms: C_18  and  C_19
REMARK   12  A    between atoms: C_19  and  O_21
REMARK   13  A    between atoms: O_21  and  C_22
REMARK                            x       y       z     vdW  Elec       q    Type
REMARK                         _______ _______ _______ _____ _____    ______ ____
ROOT
ATOM      1  C   UNL     1       4.745   6.048  18.015  0.00  0.00    +0.000 C 
ATOM      2  C   UNL     1       5.970   5.526  17.856  0.00  0.00    +0.000 C 
ENDROOT
BRANCH   1   4
ATOM      3  C   UNL     1       2.639   6.126  19.300  0.00  0.00    +0.000 C 
ATOM      4  C   UNL     1       3.931   5.783  19.186  0.00  0.00    +0.000 C 
BRANCH   3   5
ATOM      5  C   UNL     1       1.910   5.817  20.572  0.00  0.00    +0.000 C 
ATOM      6  O   UNL     1       1.082   6.594  21.030  0.00  0.00    +0.000 OA
BRANCH   5   7
ATOM      7  C   UNL     1       2.275   4.509  21.263  0.00  0.00    +0.000 C 
BRANCH   7   8
ATOM      8  C   UNL     1       1.284   3.397  20.916  0.00  0.00    +0.000 C 
BRANCH   8   9
ATOM      9  C   UNL     1       0.824   3.458  19.459  0.00  0.00    +0.000 C 
BRANCH   9  10
ATOM     10  C   UNL     1       1.231   2.188  18.708  0.00  0.00    +0.000 C 
BRANCH  10  12
ATOM     11  C   UNL     1       3.723   2.299  18.390  0.00  0.00    +0.000 C 
ATOM     12  C   UNL     1       2.366   2.454  17.721  0.00  0.00    +0.000 C 
ENDBRANCH  10  12
ENDBRANCH   9  10
ENDBRANCH   8   9
ENDBRANCH   7   8
ENDBRANCH   5   7
ENDBRANCH   3   5
ENDBRANCH   1   4
BRANCH   2  13
ATOM     13  C   UNL     1       6.798   5.835  16.647  0.00  0.00    +0.000 C 
ATOM     14  O   UNL     1       7.718   6.636  16.673  0.00  0.00    +0.000 OA
BRANCH  13  15
ATOM     15  C   UNL     1       6.472   5.083  15.397  0.00  0.00    +0.000 A 
ATOM     16  C   UNL     1       5.310   4.307  15.325  0.00  0.00    +0.000 A 
ATOM     17  C   UNL     1       4.993   3.614  14.151  0.00  0.00    +0.000 A 
ATOM     18  C   UNL     1       5.823   3.703  13.024  0.00  0.00    +0.000 A 
ATOM     19  C   UNL     1       7.000   4.459  13.104  0.00  0.00    +0.000 A 
ATOM     20  C   UNL     1       7.322   5.150  14.284  0.00  0.00    +0.000 A 
BRANCH  18  21
ATOM     21  C   UNL     1       5.401   3.002  11.774  0.00  0.00    +0.000 C 
ATOM     22  O   UNL     1       5.749   1.865  11.493  0.00  0.00    +0.000 OA
BRANCH  21  23
ATOM     23  O   UNL     1       4.572   3.780  11.034  0.00  0.00    +0.000 OA
ATOM     24  C   UNL     1       3.362   3.133  10.629  0.00  0.00    +0.000 C 
ENDBRANCH  21  23
ENDBRANCH  18  21
ENDBRANCH  13  15
ENDBRANCH   2  13
TORSDOF 11
ENDMDL
MODEL 8
REMARK VINA RESULT:      -7.1      5.676      8.278
REMARK  Name = 
REMARK  13 active torsions:
REMARK  status: ('A' for Active; 'I' for Inactive)
REMARK    1  A    between atoms: C_1  and  C_2
REMARK    2  A    between atoms: C_2  and  C_3
REMARK    3  A    between atoms: C_3  and  C_4
REMARK    4  A    between atoms: C_4  and  C_5
REMARK    5  A    between atoms: C_5  and  C_6
REMARK    6  A    between atoms: C_6  and  C_7
REMARK    7  A    between atoms: C_7  and  C_9
REMARK    8  A    between atoms: C_10  and  C_11
REMARK    9  A    between atoms: C_12  and  C_13
REMARK   10  A    between atoms: C_13  and  C_15
REMARK   11  A    between atoms: C_18  and  C_19
REMARK   12  A    between atoms: C_19  and  O_21
REMARK   13  A    between atoms: O_21  and  C_22
REMARK                            x       y       z     vdW  Elec       q    Type
REMARK                         _______ _______ _______ _____ _____    ______ ____
ROOT
ATOM      1  C   UNL     1       8.062   8.402  17.816  0.00  0.00    +0.000 C 
ATOM      2  C   UNL     1       7.714   7.134  18.079  0.00  0.00    +0.000 C 
ENDROOT
BRANCH   1   4
ATOM      3  C   UNL     1       9.219  10.470  18.510  0.00  0.00    +0.000 C 
ATOM      4  C   UNL     1       8.812   9.215  18.755  0.00  0.00    +0.000 C 
BRANCH   3   5
ATOM      5  C   UNL     1      10.007  11.200  19.553  0.00  0.00    +0.000 C 
ATOM      6  O   UNL     1       9.593  11.300  20.702  0.00  0.00    +0.000 OA
BRANCH   5   7
ATOM      7  C   UNL     1      11.322  11.822  19.099  0.00  0.00    +0.000 C 
BRANCH   7   8
ATOM      8  C   UNL     1      11.132  13.277  18.668  0.00  0.00    +0.000 C 
BRANCH   8   9
ATOM      9  C   UNL     1      11.169  13.445  17.148  0.00  0.00    +0.000 C 
BRANCH   9  10
ATOM     10  C   UNL     1      11.089  14.925  16.765  0.00  0.00    +0.000 C 
BRANCH  10  12
ATOM     11  C   UNL     1      11.901  17.083  17.769  0.00  0.00    +0.000 C 
ATOM     12  C   UNL     1      12.302  15.705  17.268  0.00  0.00    +0.000 C 
ENDBRANCH  10  12
ENDBRANCH   9  10
ENDBRANCH   8   9
ENDBRANCH   7   8
ENDBRANCH   5   7
ENDBRANCH   3   5
ENDBRANCH   1   4
BRANCH   2  13
ATOM     13  C   UNL     1       6.960   6.310  17.082  0.00  0.00    +0.000 C 
ATOM     14  O   UNL     1       7.296   6.230  15.912  0.00  0.00    +0.000 OA
BRANCH  13  15
ATOM     15  C   UNL     1       5.781   5.547  17.594  0.00  0.00    +0.000 A 
ATOM     16  C   UNL     1       5.899   4.753  18.740  0.00  0.00    +0.000 A 
ATOM     17  C   UNL     1       4.793   4.050  19.231  0.00  0.00    +0.000 A 
ATOM     18  C   UNL     1       3.547   4.145  18.596  0.00  0.00    +0.000 A 
ATOM     19  C   UNL     1       3.434   4.920  17.434  0.00  0.00    +0.000 A 
ATOM     20  C   UNL     1       4.544   5.621  16.936  0.00  0.00    +0.000 A 
BRANCH  18  21
ATOM     21  C   UNL     1       2.384   3.432  19.203  0.00  0.00    +0.000 C 
ATOM     22  O   UNL     1       1.273   3.405  18.695  0.00  0.00    +0.000 OA
BRANCH  21  23
ATOM     23  O   UNL     1       2.741   2.809  20.355  0.00  0.00    +0.000 OA
ATOM     24  C   UNL     1       1.851   3.041  21.451  0.00  0.00    +0.000 C 
ENDBRANCH  21  23
ENDBRANCH  18  21
ENDBRANCH  13  15
ENDBRANCH   2  13
TORSDOF 11
ENDMDL
MODEL 9
REMARK VINA RESULT:      -7.1      5.401      7.921
REMARK  Name = 
REMARK  13 active torsions:
REMARK  status: ('A' for Active; 'I' for Inactive)
REMARK    1  A    between atoms: C_1  and  C_2
REMARK    2  A    between atoms: C_2  and  C_3
REMARK    3  A    between atoms: C_3  and  C_4
REMARK    4  A    between atoms: C_4  and  C_5
REMARK    5  A    between atoms: C_5  and  C_6
REMARK    6  A    between atoms: C_6  and  C_7
REMARK    7  A    between atoms: C_7  and  C_9
REMARK    8  A    between atoms: C_10  and  C_11
REMARK    9  A    between atoms: C_12  and  C_13
REMARK   10  A    between atoms: C_13  and  C_15
REMARK   11  A    between atoms: C_18  and  C_19
REMARK   12  A    between atoms: C_19  and  O_21
REMARK   13  A    between atoms: O_21  and  C_22
REMARK                            x       y       z     vdW  Elec       q    Type
REMARK                         _______ _______ _______ _____ _____    ______ ____
ROOT
ATOM      1  C   UNL     1       8.195   7.425  18.411  0.00  0.00    +0.000 C 
ATOM      2  C   UNL     1       7.603   6.747  17.418  0.00  0.00    +0.000 C 
ENDROOT
BRANCH   1   4
ATOM      3  C   UNL     1       9.072   9.557  19.294  0.00  0.00    +0.000 C 
ATOM      4  C   UNL     1       8.525   8.833  18.306  0.00  0.00    +0.000 C 
BRANCH   3   5
ATOM      5  C   UNL     1       9.347  11.012  19.070  0.00  0.00    +0.000 C 
ATOM      6  O   UNL     1       9.152  11.835  19.956  0.00  0.00    +0.000 OA
BRANCH   5   7
ATOM      7  C   UNL     1       9.850  11.402  17.686  0.00  0.00    +0.000 C 
BRANCH   7   8
ATOM      8  C   UNL     1      11.148  12.208  17.770  0.00  0.00    +0.000 C 
BRANCH   8   9
ATOM      9  C   UNL     1      10.995  13.622  17.206  0.00  0.00    +0.000 C 
BRANCH   9  10
ATOM     10  C   UNL     1      12.330  14.369  17.249  0.00  0.00    +0.000 C 
BRANCH  10  12
ATOM     11  C   UNL     1      10.714  16.234  16.761  0.00  0.00    +0.000 C 
ATOM     12  C   UNL     1      12.131  15.883  17.184  0.00  0.00    +0.000 C 
ENDBRANCH  10  12
ENDBRANCH   9  10
ENDBRANCH   8   9
ENDBRANCH   7   8
ENDBRANCH   5   7
ENDBRANCH   3   5
ENDBRANCH   1   4
BRANCH   2  13
ATOM     13  C   UNL     1       7.252   5.298  17.562  0.00  0.00    +0.000 C 
ATOM     14  O   UNL     1       8.096   4.418  17.554  0.00  0.00    +0.000 OA
BRANCH  13  15
ATOM     15  C   UNL     1       5.806   4.972  17.757  0.00  0.00    +0.000 A 
ATOM     16  C   UNL     1       5.125   5.438  18.887  0.00  0.00    +0.000 A 
ATOM     17  C   UNL     1       3.768   5.149  19.065  0.00  0.00    +0.000 A 
ATOM     18  C   UNL     1       3.065   4.405  18.107  0.00  0.00    +0.000 A 
ATOM     19  C   UNL     1       3.752   3.917  16.988  0.00  0.00    +0.000 A 
ATOM     20  C   UNL     1       5.116   4.202  16.811  0.00  0.00    +0.000 A 
BRANCH  18  21
ATOM     21  C   UNL     1       1.602   4.186  18.311  0.00  0.00    +0.000 C 
ATOM     22  O   UNL     1       0.822   3.963  17.397  0.00  0.00    +0.000 OA
BRANCH  21  23
ATOM     23  O   UNL     1       1.279   4.239  19.628  0.00  0.00    +0.000 OA
ATOM     24  C   UNL     1       1.130   2.959  20.250  0.00  0.00    +0.000 C 
ENDBRANCH  21  23
ENDBRANCH  18  21
ENDBRANCH  13  15
ENDBRANCH   2  13
TORSDOF 11
ENDMDL
