MODEL 1
REMARK VINA RESULT:      -9.2      0.000      0.000
REMARK  Name = 
REMARK  4 active torsions:
REMARK  status: ('A' for Active; 'I' for Inactive)
REMARK    1  A    between atoms: C_6  and  N_7
REMARK    2  A    between atoms: C_9  and  C_10
REMARK    3  A    between atoms: C_17  and  C_18
REMARK    4  A    between atoms: C_19  and  C_20
REMARK                            x       y       z     vdW  Elec       q    Type
REMARK                         _______ _______ _______ _____ _____    ______ ____
ROOT
ATOM      1  N   UNL     1       3.434   5.444  18.362  0.00  0.00    +0.000 N 
ATOM      2  N   UNL     1       4.727   5.018  18.202  0.00  0.00    +0.000 NA
ATOM      3  C   UNL     1       5.364   6.030  17.598  0.00  0.00    +0.000 A 
ATOM      4  C   UNL     1       4.549   7.184  17.563  0.00  0.00    +0.000 A 
ATOM      5  C   UNL     1       3.315   6.790  18.035  0.00  0.00    +0.000 A 
ENDROOT
BRANCH   1  11
ATOM      6 CL   UNL     1       1.474   2.647  22.186  0.00  0.00    +0.000 Cl
ATOM      7  C   UNL     1       1.491   3.148  20.540  0.00  0.00    +0.000 A 
ATOM      8  C   UNL     1       0.529   2.656  19.662  0.00  0.00    +0.000 A 
ATOM      9  C   UNL     1       0.537   3.063  18.332  0.00  0.00    +0.000 A 
ATOM     10  C   UNL     1       1.493   3.981  17.889  0.00  0.00    +0.000 A 
ATOM     11  C   UNL     1       2.447   4.501  18.768  0.00  0.00    +0.000 A 
ATOM     12  C   UNL     1       2.457   4.052  20.097  0.00  0.00    +0.000 A 
ENDBRANCH   1  11
BRANCH   3  13
ATOM     13  C   UNL     1       6.789   5.870  17.104  0.00  0.00    +0.000 C 
ATOM     14  C   UNL     1       7.688   5.075  18.072  0.00  0.00    +0.000 C 
ATOM     15  C   UNL     1       8.019   5.877  19.332  0.00  0.00    +0.000 C 
ATOM     16  N   UNL     1       8.653   7.157  19.017  0.00  0.00    +0.000 NA
ATOM     17  C   UNL     1       7.821   7.960  18.115  0.00  0.00    +0.000 C 
ATOM     18  C   UNL     1       7.489   7.214  16.822  0.00  0.00    +0.000 C 
ATOM     19  H   UNL     1       9.555   6.988  18.574  0.00  0.00    +0.000 HD
ENDBRANCH   3  13
BRANCH   5  20
ATOM     20  C   UNL     1       2.108   7.544  18.188  0.00  0.00    +0.000 C 
ATOM     21  C   UNL     1       2.135   8.801  17.743  0.00  0.00    +0.000 C 
BRANCH  21  22
ATOM     22  C   UNL     1       1.172   9.796  18.004  0.00  0.00    +0.000 A 
ATOM     23  C   UNL     1       1.325  10.899  18.815  0.00  0.00    +0.000 A 
ATOM     24  C   UNL     1       0.026  11.237  19.239  0.00  0.00    +0.000 A 
ATOM     25  C   UNL     1      -0.490  11.869  20.377  0.00  0.00    +0.000 A 
ATOM     26  C   UNL     1      -1.864  12.082  20.438  0.00  0.00    +0.000 A 
ATOM     27 CL   UNL     1      -2.569  12.573  21.929  0.00  0.00    +0.000 Cl
ATOM     28  C   UNL     1      -2.678  11.839  19.332  0.00  0.00    +0.000 A 
ATOM     29  C   UNL     1      -2.185  11.159  18.210  0.00  0.00    +0.000 A 
ATOM     30  C   UNL     1      -0.848  10.750  18.272  0.00  0.00    +0.000 A 
ATOM     31  N   UNL     1      -0.141   9.772  17.591  0.00  0.00    +0.000 N 
ATOM     32  H   UNL     1      -0.585   9.041  17.051  0.00  0.00    +0.000 HD
ENDBRANCH  21  22
ENDBRANCH   5  20
TORSDOF 4
ENDMDL
MODEL 2
REMARK VINA RESULT:      -9.1      1.584      2.119
REMARK  Name = 
REMARK  4 active torsions:
REMARK  status: ('A' for Active; 'I' for Inactive)
REMARK    1  A    between atoms: C_6  and  N_7
REMARK    2  A    between atoms: C_9  and  C_10
REMARK    3  A    between atoms: C_17  and  C_18
REMARK    4  A    between atoms: C_19  and  C_20
REMARK                            x       y       z     vdW  Elec       q    Type
REMARK                         _______ _______ _______ _____ _____    ______ ____
ROOT
ATOM      1  N   UNL     1       3.265   5.810  18.224  0.00  0.00    +0.000 N 
ATOM      2  N   UNL     1       4.548   5.524  17.836  0.00  0.00    +0.000 NA
ATOM      3  C   UNL     1       4.991   6.632  17.226  0.00  0.00    +0.000 A 
ATOM      4  C   UNL     1       4.085   7.700  17.409  0.00  0.00    +0.000 A 
ATOM      5  C   UNL     1       2.979   7.157  18.029  0.00  0.00    +0.000 A 
ENDROOT
BRANCH   1  11
ATOM      6 CL   UNL     1       1.876   2.892  22.204  0.00  0.00    +0.000 Cl
ATOM      7  C   UNL     1       1.757   3.335  20.545  0.00  0.00    +0.000 A 
ATOM      8  C   UNL     1       0.843   2.681  19.724  0.00  0.00    +0.000 A 
ATOM      9  C   UNL     1       0.741   3.041  18.384  0.00  0.00    +0.000 A 
ATOM     10  C   UNL     1       1.537   4.071  17.875  0.00  0.00    +0.000 A 
ATOM     11  C   UNL     1       2.440   4.751  18.698  0.00  0.00    +0.000 A 
ATOM     12  C   UNL     1       2.566   4.352  20.037  0.00  0.00    +0.000 A 
ENDBRANCH   1  11
BRANCH   3  13
ATOM     13  C   UNL     1       6.328   6.645  16.510  0.00  0.00    +0.000 C 
ATOM     14  C   UNL     1       6.528   5.446  15.562  0.00  0.00    +0.000 C 
ATOM     15  C   UNL     1       6.743   4.140  16.329  0.00  0.00    +0.000 C 
ATOM     16  N   UNL     1       7.874   4.226  17.251  0.00  0.00    +0.000 NA
ATOM     17  C   UNL     1       7.718   5.340  18.191  0.00  0.00    +0.000 C 
ATOM     18  C   UNL     1       7.532   6.677  17.472  0.00  0.00    +0.000 C 
ATOM     19  H   UNL     1       8.734   4.358  16.720  0.00  0.00    +0.000 HD
ENDBRANCH   3  13
BRANCH   5  20
ATOM     20  C   UNL     1       1.751   7.778  18.424  0.00  0.00    +0.000 C 
ATOM     21  C   UNL     1       1.841   8.730  19.352  0.00  0.00    +0.000 C 
BRANCH  21  22
ATOM     22  C   UNL     1       0.769   9.298  20.067  0.00  0.00    +0.000 A 
ATOM     23  C   UNL     1      -0.242  10.081  19.554  0.00  0.00    +0.000 A 
ATOM     24  C   UNL     1      -0.689  10.871  20.629  0.00  0.00    +0.000 A 
ATOM     25  C   UNL     1      -1.283  12.136  20.724  0.00  0.00    +0.000 A 
ATOM     26  C   UNL     1      -1.643  12.594  21.988  0.00  0.00    +0.000 A 
ATOM     27 CL   UNL     1      -2.090  14.244  22.184  0.00  0.00    +0.000 Cl
ATOM     28  C   UNL     1      -1.583  11.755  23.100  0.00  0.00    +0.000 A 
ATOM     29  C   UNL     1      -0.943  10.510  23.029  0.00  0.00    +0.000 A 
ATOM     30  C   UNL     1      -0.383  10.171  21.792  0.00  0.00    +0.000 A 
ATOM     31  N   UNL     1       0.611   9.274  21.435  0.00  0.00    +0.000 N 
ATOM     32  H   UNL     1       1.242   8.850  22.102  0.00  0.00    +0.000 HD
ENDBRANCH  21  22
ENDBRANCH   5  20
TORSDOF 4
ENDMDL
MODEL 3
REMARK VINA RESULT:      -9.1      0.913      1.213
REMARK  Name = 
REMARK  4 active torsions:
REMARK  status: ('A' for Active; 'I' for Inactive)
REMARK    1  A    between atoms: C_6  and  N_7
REMARK    2  A    between atoms: C_9  and  C_10
REMARK    3  A    between atoms: C_17  and  C_18
REMARK    4  A    between atoms: C_19  and  C_20
REMARK                            x       y       z     vdW  Elec       q    Type
REMARK                         _______ _______ _______ _____ _____    ______ ____
ROOT
ATOM      1  N   UNL     1       3.479   6.001  18.253  0.00  0.00    +0.000 N 
ATOM      2  N   UNL     1       4.791   5.678  18.030  0.00  0.00    +0.000 NA
ATOM      3  C   UNL     1       5.323   6.745  17.419  0.00  0.00    +0.000 A 
ATOM      4  C   UNL     1       4.422   7.834  17.440  0.00  0.00    +0.000 A 
ATOM      5  C   UNL     1       3.243   7.339  17.957  0.00  0.00    +0.000 A 
ENDROOT
BRANCH   1  11
ATOM      6 CL   UNL     1       1.882   3.031  22.115  0.00  0.00    +0.000 Cl
ATOM      7  C   UNL     1       1.801   3.543  20.474  0.00  0.00    +0.000 A 
ATOM      8  C   UNL     1       0.852   2.980  19.625  0.00  0.00    +0.000 A 
ATOM      9  C   UNL     1       0.782   3.395  18.299  0.00  0.00    +0.000 A 
ATOM     10  C   UNL     1       1.646   4.391  17.832  0.00  0.00    +0.000 A 
ATOM     11  C   UNL     1       2.585   4.980  18.683  0.00  0.00    +0.000 A 
ATOM     12  C   UNL     1       2.676   4.524  20.007  0.00  0.00    +0.000 A 
ENDBRANCH   1  11
BRANCH   3  13
ATOM     13  C   UNL     1       6.733   6.702  16.861  0.00  0.00    +0.000 C 
ATOM     14  C   UNL     1       6.973   5.529  15.891  0.00  0.00    +0.000 C 
ATOM     15  C   UNL     1       7.022   4.185  16.621  0.00  0.00    +0.000 C 
ATOM     16  N   UNL     1       8.041   4.167  17.668  0.00  0.00    +0.000 NA
ATOM     17  C   UNL     1       7.840   5.254  18.632  0.00  0.00    +0.000 C 
ATOM     18  C   UNL     1       7.816   6.626  17.955  0.00  0.00    +0.000 C 
ATOM     19  H   UNL     1       8.964   4.265  17.246  0.00  0.00    +0.000 HD
ENDBRANCH   3  13
BRANCH   5  20
ATOM     20  C   UNL     1       1.990   7.996  18.175  0.00  0.00    +0.000 C 
ATOM     21  C   UNL     1       1.893   9.249  17.729  0.00  0.00    +0.000 C 
BRANCH  21  22
ATOM     22  C   UNL     1       0.871  10.166  18.042  0.00  0.00    +0.000 A 
ATOM     23  C   UNL     1       0.974  11.270  18.859  0.00  0.00    +0.000 A 
ATOM     24  C   UNL     1      -0.328  11.505  19.341  0.00  0.00    +0.000 A 
ATOM     25  C   UNL     1      -0.842  12.086  20.507  0.00  0.00    +0.000 A 
ATOM     26  C   UNL     1      -2.224  12.193  20.627  0.00  0.00    +0.000 A 
ATOM     27 CL   UNL     1      -2.901  12.615  22.152  0.00  0.00    +0.000 Cl
ATOM     28  C   UNL     1      -3.063  11.899  19.553  0.00  0.00    +0.000 A 
ATOM     29  C   UNL     1      -2.568  11.269  18.403  0.00  0.00    +0.000 A 
ATOM     30  C   UNL     1      -1.203  10.962  18.405  0.00  0.00    +0.000 A 
ATOM     31  N   UNL     1      -0.454  10.046  17.683  0.00  0.00    +0.000 N 
ATOM     32  H   UNL     1      -0.863   9.289  17.152  0.00  0.00    +0.000 HD
ENDBRANCH  21  22
ENDBRANCH   5  20
TORSDOF 4
ENDMDL
MODEL 4
REMARK VINA RESULT:      -9.0      1.766      2.456
REMARK  Name = 
REMARK  4 active torsions:
REMARK  status: ('A' for Active; 'I' for Inactive)
REMARK    1  A    between atoms: C_6  and  N_7
REMARK    2  A    between atoms: C_9  and  C_10
REMARK    3  A    between atoms: C_17  and  C_18
REMARK    4  A    between atoms: C_19  and  C_20
REMARK                            x       y       z     vdW  Elec       q    Type
REMARK                         _______ _______ _______ _____ _____    ______ ____
ROOT
ATOM      1  N   UNL     1       3.349   5.974  18.601  0.00  0.00    +0.000 N 
ATOM      2  N   UNL     1       4.616   5.701  18.155  0.00  0.00    +0.000 NA
ATOM      3  C   UNL     1       4.910   6.684  17.293  0.00  0.00    +0.000 A 
ATOM      4  C   UNL     1       3.932   7.703  17.343  0.00  0.00    +0.000 A 
ATOM      5  C   UNL     1       2.932   7.227  18.165  0.00  0.00    +0.000 A 
ENDROOT
BRANCH   1  11
ATOM      6 CL   UNL     1       0.349   1.818  18.522  0.00  0.00    +0.000 Cl
ATOM      7  C   UNL     1       1.231   3.024  19.375  0.00  0.00    +0.000 A 
ATOM      8  C   UNL     1       1.281   2.984  20.766  0.00  0.00    +0.000 A 
ATOM      9  C   UNL     1       1.998   3.955  21.458  0.00  0.00    +0.000 A 
ATOM     10  C   UNL     1       2.683   4.950  20.755  0.00  0.00    +0.000 A 
ATOM     11  C   UNL     1       2.660   4.985  19.358  0.00  0.00    +0.000 A 
ATOM     12  C   UNL     1       1.900   4.026  18.671  0.00  0.00    +0.000 A 
ENDBRANCH   1  11
BRANCH   3  13
ATOM     13  C   UNL     1       6.178   6.637  16.462  0.00  0.00    +0.000 C 
ATOM     14  C   UNL     1       6.274   5.391  15.560  0.00  0.00    +0.000 C 
ATOM     15  C   UNL     1       6.537   4.119  16.368  0.00  0.00    +0.000 C 
ATOM     16  N   UNL     1       7.747   4.227  17.181  0.00  0.00    +0.000 NA
ATOM     17  C   UNL     1       7.692   5.387  18.076  0.00  0.00    +0.000 C 
ATOM     18  C   UNL     1       7.463   6.692  17.311  0.00  0.00    +0.000 C 
ATOM     19  H   UNL     1       8.559   4.316  16.571  0.00  0.00    +0.000 HD
ENDBRANCH   3  13
BRANCH   5  20
ATOM     20  C   UNL     1       1.691   7.832  18.544  0.00  0.00    +0.000 C 
ATOM     21  C   UNL     1       1.765   8.842  19.411  0.00  0.00    +0.000 C 
BRANCH  21  22
ATOM     22  C   UNL     1       0.686   9.418  20.109  0.00  0.00    +0.000 A 
ATOM     23  C   UNL     1      -0.356  10.138  19.569  0.00  0.00    +0.000 A 
ATOM     24  C   UNL     1      -0.811  10.977  20.603  0.00  0.00    +0.000 A 
ATOM     25  C   UNL     1      -1.443  12.227  20.634  0.00  0.00    +0.000 A 
ATOM     26  C   UNL     1      -1.798  12.748  21.875  0.00  0.00    +0.000 A 
ATOM     27 CL   UNL     1      -2.293  14.392  21.981  0.00  0.00    +0.000 Cl
ATOM     28  C   UNL     1      -1.694  11.977  23.033  0.00  0.00    +0.000 A 
ATOM     29  C   UNL     1      -1.017  10.750  23.024  0.00  0.00    +0.000 A 
ATOM     30  C   UNL     1      -0.465  10.357  21.800  0.00  0.00    +0.000 A 
ATOM     31  N   UNL     1       0.551   9.471  21.479  0.00  0.00    +0.000 N 
ATOM     32  H   UNL     1       1.204   9.105  22.159  0.00  0.00    +0.000 HD
ENDBRANCH  21  22
ENDBRANCH   5  20
TORSDOF 4
ENDMDL
MODEL 5
REMARK VINA RESULT:      -8.9      1.309      1.829
REMARK  Name = 
REMARK  4 active torsions:
REMARK  status: ('A' for Active; 'I' for Inactive)
REMARK    1  A    between atoms: C_6  and  N_7
REMARK    2  A    between atoms: C_9  and  C_10
REMARK    3  A    between atoms: C_17  and  C_18
REMARK    4  A    between atoms: C_19  and  C_20
REMARK                            x       y       z     vdW  Elec       q    Type
REMARK                         _______ _______ _______ _____ _____    ______ ____
ROOT
ATOM      1  N   UNL     1       3.362   6.137  18.483  0.00  0.00    +0.000 N 
ATOM      2  N   UNL     1       4.592   5.758  18.012  0.00  0.00    +0.000 NA
ATOM      3  C   UNL     1       4.952   6.715  17.146  0.00  0.00    +0.000 A 
ATOM      4  C   UNL     1       4.066   7.814  17.217  0.00  0.00    +0.000 A 
ATOM      5  C   UNL     1       3.045   7.422  18.058  0.00  0.00    +0.000 A 
ENDROOT
BRANCH   1  11
ATOM      6 CL   UNL     1       0.392   1.958  18.466  0.00  0.00    +0.000 Cl
ATOM      7  C   UNL     1       1.186   3.240  19.296  0.00  0.00    +0.000 A 
ATOM      8  C   UNL     1       1.102   3.316  20.684  0.00  0.00    +0.000 A 
ATOM      9  C   UNL     1       1.747   4.349  21.357  0.00  0.00    +0.000 A 
ATOM     10  C   UNL     1       2.495   5.289  20.641  0.00  0.00    +0.000 A 
ATOM     11  C   UNL     1       2.606   5.206  19.251  0.00  0.00    +0.000 A 
ATOM     12  C   UNL     1       1.917   4.186  18.577  0.00  0.00    +0.000 A 
ENDBRANCH   1  11
BRANCH   3  13
ATOM     13  C   UNL     1       6.196   6.564  16.291  0.00  0.00    +0.000 C 
ATOM     14  C   UNL     1       6.226   5.254  15.480  0.00  0.00    +0.000 C 
ATOM     15  C   UNL     1       6.467   4.034  16.372  0.00  0.00    +0.000 C 
ATOM     16  N   UNL     1       7.701   4.157  17.146  0.00  0.00    +0.000 NA
ATOM     17  C   UNL     1       7.709   5.380  17.955  0.00  0.00    +0.000 C 
ATOM     18  C   UNL     1       7.504   6.634  17.103  0.00  0.00    +0.000 C 
ATOM     19  H   UNL     1       8.499   4.174  16.512  0.00  0.00    +0.000 HD
ENDBRANCH   3  13
BRANCH   5  20
ATOM     20  C   UNL     1       1.868   8.129  18.461  0.00  0.00    +0.000 C 
ATOM     21  C   UNL     1       1.667   9.318  17.893  0.00  0.00    +0.000 C 
BRANCH  21  22
ATOM     22  C   UNL     1       0.733  10.289  18.304  0.00  0.00    +0.000 A 
ATOM     23  C   UNL     1       0.891  11.208  19.319  0.00  0.00    +0.000 A 
ATOM     24  C   UNL     1      -0.412  11.520  19.751  0.00  0.00    +0.000 A 
ATOM     25  C   UNL     1      -0.955  11.946  20.969  0.00  0.00    +0.000 A 
ATOM     26  C   UNL     1      -2.321  12.208  21.017  0.00  0.00    +0.000 A 
ATOM     27 CL   UNL     1      -3.075  12.437  22.547  0.00  0.00    +0.000 Cl
ATOM     28  C   UNL     1      -3.092  12.221  19.855  0.00  0.00    +0.000 A 
ATOM     29  C   UNL     1      -2.574  11.746  18.642  0.00  0.00    +0.000 A 
ATOM     30  C   UNL     1      -1.258  11.270  18.675  0.00  0.00    +0.000 A 
ATOM     31  N   UNL     1      -0.560  10.407  17.845  0.00  0.00    +0.000 N 
ATOM     32  H   UNL     1      -1.006   9.816  17.157  0.00  0.00    +0.000 HD
ENDBRANCH  21  22
ENDBRANCH   5  20
TORSDOF 4
ENDMDL
MODEL 6
REMARK VINA RESULT:      -8.8      1.121      1.309
REMARK  Name = 
REMARK  4 active torsions:
REMARK  status: ('A' for Active; 'I' for Inactive)
REMARK    1  A    between atoms: C_6  and  N_7
REMARK    2  A    between atoms: C_9  and  C_10
REMARK    3  A    between atoms: C_17  and  C_18
REMARK    4  A    between atoms: C_19  and  C_20
REMARK                            x       y       z     vdW  Elec       q    Type
REMARK                         _______ _______ _______ _____ _____    ______ ____
ROOT
ATOM      1  N   UNL     1       3.441   5.216  18.340  0.00  0.00    +0.000 N 
ATOM      2  N   UNL     1       4.747   4.829  18.192  0.00  0.00    +0.000 NA
ATOM      3  C   UNL     1       5.352   5.847  17.567  0.00  0.00    +0.000 A 
ATOM      4  C   UNL     1       4.501   6.973  17.504  0.00  0.00    +0.000 A 
ATOM      5  C   UNL     1       3.278   6.550  17.982  0.00  0.00    +0.000 A 
ENDROOT
BRANCH   1  11
ATOM      6 CL   UNL     1       1.434   2.585  22.256  0.00  0.00    +0.000 Cl
ATOM      7  C   UNL     1       1.509   2.972  20.581  0.00  0.00    +0.000 A 
ATOM      8  C   UNL     1       0.619   2.369  19.696  0.00  0.00    +0.000 A 
ATOM      9  C   UNL     1       0.674   2.684  18.342  0.00  0.00    +0.000 A 
ATOM     10  C   UNL     1       1.603   3.621  17.881  0.00  0.00    +0.000 A 
ATOM     11  C   UNL     1       2.484   4.251  18.764  0.00  0.00    +0.000 A 
ATOM     12  C   UNL     1       2.449   3.895  20.121  0.00  0.00    +0.000 A 
ENDBRANCH   1  11
BRANCH   3  13
ATOM     13  C   UNL     1       6.783   5.723  17.079  0.00  0.00    +0.000 C 
ATOM     14  C   UNL     1       7.704   4.975  18.065  0.00  0.00    +0.000 C 
ATOM     15  C   UNL     1       8.006   5.810  19.311  0.00  0.00    +0.000 C 
ATOM     16  N   UNL     1       8.600   7.103  18.973  0.00  0.00    +0.000 NA
ATOM     17  C   UNL     1       7.747   7.863  18.055  0.00  0.00    +0.000 C 
ATOM     18  C   UNL     1       7.442   7.082  16.775  0.00  0.00    +0.000 C 
ATOM     19  H   UNL     1       9.509   6.954  18.536  0.00  0.00    +0.000 HD
ENDBRANCH   3  13
BRANCH   5  20
ATOM     20  C   UNL     1       2.047   7.268  18.116  0.00  0.00    +0.000 C 
ATOM     21  C   UNL     1       2.142   8.537  18.512  0.00  0.00    +0.000 C 
BRANCH  21  22
ATOM     22  C   UNL     1       1.080   9.353  18.947  0.00  0.00    +0.000 A 
ATOM     23  C   UNL     1       0.307  10.186  18.169  0.00  0.00    +0.000 A 
ATOM     24  C   UNL     1      -0.166  11.185  19.041  0.00  0.00    +0.000 A 
ATOM     25  C   UNL     1      -0.549  12.521  18.871  0.00  0.00    +0.000 A 
ATOM     26  C   UNL     1      -1.022  13.211  19.983  0.00  0.00    +0.000 A 
ATOM     27 CL   UNL     1      -1.213  14.919  19.890  0.00  0.00    +0.000 Cl
ATOM     28  C   UNL     1      -1.278  12.548  21.183  0.00  0.00    +0.000 A 
ATOM     29  C   UNL     1      -0.851  11.228  21.382  0.00  0.00    +0.000 A 
ATOM     30  C   UNL     1      -0.168  10.631  20.317  0.00  0.00    +0.000 A 
ATOM     31  N   UNL     1       0.707   9.558  20.258  0.00  0.00    +0.000 N 
ATOM     32  H   UNL     1       1.145   9.153  21.074  0.00  0.00    +0.000 HD
ENDBRANCH  21  22
ENDBRANCH   5  20
TORSDOF 4
ENDMDL
MODEL 7
REMARK VINA RESULT:      -8.7      1.401      1.758
REMARK  Name = 
REMARK  4 active torsions:
REMARK  status: ('A' for Active; 'I' for Inactive)
REMARK    1  A    between atoms: C_6  and  N_7
REMARK    2  A    between atoms: C_9  and  C_10
REMARK    3  A    between atoms: C_17  and  C_18
REMARK    4  A    between atoms: C_19  and  C_20
REMARK                            x       y       z     vdW  Elec       q    Type
REMARK                         _______ _______ _______ _____ _____    ______ ____
ROOT
ATOM      1  N   UNL     1       3.385   5.228  18.487  0.00  0.00    +0.000 N 
ATOM      2  N   UNL     1       4.665   4.819  18.217  0.00  0.00    +0.000 NA
ATOM      3  C   UNL     1       5.265   5.875  17.651  0.00  0.00    +0.000 A 
ATOM      4  C   UNL     1       4.452   7.026  17.751  0.00  0.00    +0.000 A 
ATOM      5  C   UNL     1       3.248   6.594  18.267  0.00  0.00    +0.000 A 
ENDROOT
BRANCH   1  11
ATOM      6 CL   UNL     1       1.328   2.530  22.330  0.00  0.00    +0.000 Cl
ATOM      7  C   UNL     1       1.425   2.946  20.663  0.00  0.00    +0.000 A 
ATOM      8  C   UNL     1       0.549   2.356  19.756  0.00  0.00    +0.000 A 
ATOM      9  C   UNL     1       0.622   2.694  18.408  0.00  0.00    +0.000 A 
ATOM     10  C   UNL     1       1.556   3.639  17.975  0.00  0.00    +0.000 A 
ATOM     11  C   UNL     1       2.424   4.256  18.882  0.00  0.00    +0.000 A 
ATOM     12  C   UNL     1       2.371   3.876  20.232  0.00  0.00    +0.000 A 
ENDBRANCH   1  11
BRANCH   3  13
ATOM     13  C   UNL     1       6.657   5.756  17.060  0.00  0.00    +0.000 C 
ATOM     14  C   UNL     1       7.640   4.979  17.958  0.00  0.00    +0.000 C 
ATOM     15  C   UNL     1       8.036   5.781  19.199  0.00  0.00    +0.000 C 
ATOM     16  N   UNL     1       8.613   7.079  18.853  0.00  0.00    +0.000 NA
ATOM     17  C   UNL     1       7.701   7.866  18.016  0.00  0.00    +0.000 C 
ATOM     18  C   UNL     1       7.301   7.120  16.742  0.00  0.00    +0.000 C 
ATOM     19  H   UNL     1       9.487   6.937  18.348  0.00  0.00    +0.000 HD
ENDBRANCH   3  13
BRANCH   5  20
ATOM     20  C   UNL     1       2.054   7.332  18.549  0.00  0.00    +0.000 C 
ATOM     21  C   UNL     1       2.127   8.222  19.539  0.00  0.00    +0.000 C 
BRANCH  21  22
ATOM     22  C   UNL     1       1.040   8.874  20.153  0.00  0.00    +0.000 A 
ATOM     23  C   UNL     1       0.164   9.756  19.559  0.00  0.00    +0.000 A 
ATOM     24  C   UNL     1      -0.321  10.565  20.603  0.00  0.00    +0.000 A 
ATOM     25  C   UNL     1      -0.806  11.877  20.671  0.00  0.00    +0.000 A 
ATOM     26  C   UNL     1      -1.255  12.344  21.903  0.00  0.00    +0.000 A 
ATOM     27 CL   UNL     1      -1.570  14.024  22.096  0.00  0.00    +0.000 Cl
ATOM     28  C   UNL     1      -1.389  11.482  22.991  0.00  0.00    +0.000 A 
ATOM     29  C   UNL     1      -0.861  10.185  22.953  0.00  0.00    +0.000 A 
ATOM     30  C   UNL     1      -0.205   9.819  21.772  0.00  0.00    +0.000 A 
ATOM     31  N   UNL     1       0.737   8.840  21.496  0.00  0.00    +0.000 N 
ATOM     32  H   UNL     1       1.252   8.347  22.213  0.00  0.00    +0.000 HD
ENDBRANCH  21  22
ENDBRANCH   5  20
TORSDOF 4
ENDMDL
MODEL 8
REMARK VINA RESULT:      -8.7      5.424      7.805
REMARK  Name = 
REMARK  4 active torsions:
REMARK  status: ('A' for Active; 'I' for Inactive)
REMARK    1  A    between atoms: C_6  and  N_7
REMARK    2  A    between atoms: C_9  and  C_10
REMARK    3  A    between atoms: C_17  and  C_18
REMARK    4  A    between atoms: C_19  and  C_20
REMARK                            x       y       z     vdW  Elec       q    Type
REMARK                         _______ _______ _______ _____ _____    ______ ____
ROOT
ATOM      1  N   UNL     1       5.706   4.841  16.392  0.00  0.00    +0.000 N 
ATOM      2  N   UNL     1       4.888   3.865  16.898  0.00  0.00    +0.000 NA
ATOM      3  C   UNL     1       4.782   4.132  18.207  0.00  0.00    +0.000 A 
ATOM      4  C   UNL     1       5.348   5.391  18.508  0.00  0.00    +0.000 A 
ATOM      5  C   UNL     1       5.952   5.823  17.346  0.00  0.00    +0.000 A 
ENDROOT
BRANCH   1  11
ATOM      6 CL   UNL     1       4.950   2.903  11.706  0.00  0.00    +0.000 Cl
ATOM      7  C   UNL     1       5.896   3.795  12.834  0.00  0.00    +0.000 A 
ATOM      8  C   UNL     1       7.087   4.382  12.419  0.00  0.00    +0.000 A 
ATOM      9  C   UNL     1       7.851   5.108  13.327  0.00  0.00    +0.000 A 
ATOM     10  C   UNL     1       7.408   5.265  14.644  0.00  0.00    +0.000 A 
ATOM     11  C   UNL     1       6.200   4.701  15.064  0.00  0.00    +0.000 A 
ATOM     12  C   UNL     1       5.459   3.935  14.152  0.00  0.00    +0.000 A 
ENDBRANCH   1  11
BRANCH   3  13
ATOM     13  C   UNL     1       4.081   3.168  19.144  0.00  0.00    +0.000 C 
ATOM     14  C   UNL     1       3.530   1.915  18.435  0.00  0.00    +0.000 C 
ATOM     15  C   UNL     1       2.315   2.239  17.563  0.00  0.00    +0.000 C 
ATOM     16  N   UNL     1       1.245   2.876  18.328  0.00  0.00    +0.000 NA
ATOM     17  C   UNL     1       1.717   4.090  19.003  0.00  0.00    +0.000 C 
ATOM     18  C   UNL     1       2.913   3.812  19.916  0.00  0.00    +0.000 C 
ATOM     19  H   UNL     1       0.893   2.223  19.027  0.00  0.00    +0.000 HD
ENDBRANCH   3  13
BRANCH   5  20
ATOM     20  C   UNL     1       6.696   7.018  17.088  0.00  0.00    +0.000 C 
ATOM     21  C   UNL     1       7.566   7.387  18.028  0.00  0.00    +0.000 C 
BRANCH  21  22
ATOM     22  C   UNL     1       8.218   8.633  18.114  0.00  0.00    +0.000 A 
ATOM     23  C   UNL     1       9.232   8.976  18.980  0.00  0.00    +0.000 A 
ATOM     24  C   UNL     1       9.146  10.373  19.128  0.00  0.00    +0.000 A 
ATOM     25  C   UNL     1       9.490  11.265  20.151  0.00  0.00    +0.000 A 
ATOM     26  C   UNL     1       9.298  12.625  19.923  0.00  0.00    +0.000 A 
ATOM     27 CL   UNL     1       9.419  13.720  21.244  0.00  0.00    +0.000 Cl
ATOM     28  C   UNL     1       8.948  13.098  18.658  0.00  0.00    +0.000 A 
ATOM     29  C   UNL     1       8.550  12.217  17.644  0.00  0.00    +0.000 A 
ATOM     30  C   UNL     1       8.531  10.858  17.977  0.00  0.00    +0.000 A 
ATOM     31  N   UNL     1       7.865   9.774  17.427  0.00  0.00    +0.000 N 
ATOM     32  H   UNL     1       7.097   9.866  16.776  0.00  0.00    +0.000 HD
ENDBRANCH  21  22
ENDBRANCH   5  20
TORSDOF 4
ENDMDL
MODEL 9
REMARK VINA RESULT:      -8.6      0.890      1.232
REMARK  Name = 
REMARK  4 active torsions:
REMARK  status: ('A' for Active; 'I' for Inactive)
REMARK    1  A    between atoms: C_6  and  N_7
REMARK    2  A    between atoms: C_9  and  C_10
REMARK    3  A    between atoms: C_17  and  C_18
REMARK    4  A    between atoms: C_19  and  C_20
REMARK                            x       y       z     vdW  Elec       q    Type
REMARK                         _______ _______ _______ _____ _____    ______ ____
ROOT
ATOM      1  N   UNL     1       3.506   5.796  18.656  0.00  0.00    +0.000 N 
ATOM      2  N   UNL     1       4.811   5.410  18.499  0.00  0.00    +0.000 NA
ATOM      3  C   UNL     1       5.341   6.286  17.635  0.00  0.00    +0.000 A 
ATOM      4  C   UNL     1       4.451   7.358  17.401  0.00  0.00    +0.000 A 
ATOM      5  C   UNL     1       3.277   7.022  18.042  0.00  0.00    +0.000 A 
ENDROOT
BRANCH   1  11
ATOM      6 CL   UNL     1       0.321   1.791  18.334  0.00  0.00    +0.000 Cl
ATOM      7  C   UNL     1       1.084   3.042  19.237  0.00  0.00    +0.000 A 
ATOM      8  C   UNL     1       0.839   3.149  20.603  0.00  0.00    +0.000 A 
ATOM      9  C   UNL     1       1.458   4.157  21.337  0.00  0.00    +0.000 A 
ATOM     10  C   UNL     1       2.339   5.039  20.705  0.00  0.00    +0.000 A 
ATOM     11  C   UNL     1       2.611   4.924  19.339  0.00  0.00    +0.000 A 
ATOM     12  C   UNL     1       1.949   3.932  18.600  0.00  0.00    +0.000 A 
ENDBRANCH   1  11
BRANCH   3  13
ATOM     13  C   UNL     1       6.740   6.088  17.083  0.00  0.00    +0.000 C 
ATOM     14  C   UNL     1       7.621   5.175  17.959  0.00  0.00    +0.000 C 
ATOM     15  C   UNL     1       8.033   5.859  19.264  0.00  0.00    +0.000 C 
ATOM     16  N   UNL     1       8.727   7.123  19.025  0.00  0.00    +0.000 NA
ATOM     17  C   UNL     1       7.917   8.036  18.213  0.00  0.00    +0.000 C 
ATOM     18  C   UNL     1       7.506   7.410  16.880  0.00  0.00    +0.000 C 
ATOM     19  H   UNL     1       9.606   6.940  18.541  0.00  0.00    +0.000 HD
ENDBRANCH   3  13
BRANCH   5  20
ATOM     20  C   UNL     1       2.035   7.730  18.111  0.00  0.00    +0.000 C 
ATOM     21  C   UNL     1       2.070   9.021  17.780  0.00  0.00    +0.000 C 
BRANCH  21  22
ATOM     22  C   UNL     1       1.049   9.965  18.005  0.00  0.00    +0.000 A 
ATOM     23  C   UNL     1       1.121  11.083  18.806  0.00  0.00    +0.000 A 
ATOM     24  C   UNL     1      -0.204  11.354  19.195  0.00  0.00    +0.000 A 
ATOM     25  C   UNL     1      -0.783  11.970  20.312  0.00  0.00    +0.000 A 
ATOM     26  C   UNL     1      -2.167  12.108  20.337  0.00  0.00    +0.000 A 
ATOM     27 CL   UNL     1      -2.935  12.575  21.805  0.00  0.00    +0.000 Cl
ATOM     28  C   UNL     1      -2.939  11.809  19.215  0.00  0.00    +0.000 A 
ATOM     29  C   UNL     1      -2.382  11.145  18.114  0.00  0.00    +0.000 A 
ATOM     30  C   UNL     1      -1.027  10.810  18.213  0.00  0.00    +0.000 A 
ATOM     31  N   UNL     1      -0.251   9.865  17.561  0.00  0.00    +0.000 N 
ATOM     32  H   UNL     1      -0.641   9.105  17.019  0.00  0.00    +0.000 HD
ENDBRANCH  21  22
ENDBRANCH   5  20
TORSDOF 4
ENDMDL
