MODEL 1
REMARK VINA RESULT:      -8.1      0.000      0.000
REMARK  Name = 
REMARK  9 active torsions:
REMARK  status: ('A' for Active; 'I' for Inactive)
REMARK    1  A    between atoms: C_1  and  O_2
REMARK    2  A    between atoms: O_2  and  C_3
REMARK    3  A    between atoms: N_11  and  C_12
REMARK    4  A    between atoms: C_24  and  O_25
REMARK    5  A    between atoms: O_25  and  C_26
REMARK    6  A    between atoms: C_26  and  C_27
REMARK    7  A    between atoms: C_27  and  C_28
REMARK    8  A    between atoms: C_28  and  N_29
REMARK    9  A    between atoms: N_32  and  C_33
REMARK                            x       y       z     vdW  Elec       q    Type
REMARK                         _______ _______ _______ _____ _____    ______ ____
ROOT
ATOM      1  C   UNL     1       3.100   7.242  18.112  0.00  0.00    +0.000 A 
ATOM      2  C   UNL     1       2.886   8.386  17.348  0.00  0.00    +0.000 A 
ATOM      3  C   UNL     1       2.023   9.390  17.782  0.00  0.00    +0.000 A 
ATOM      4  C   UNL     1       1.354   9.321  19.022  0.00  0.00    +0.000 A 
ATOM      5  C   UNL     1       1.530   8.133  19.802  0.00  0.00    +0.000 A 
ATOM      6  C   UNL     1       0.791   8.102  20.991  0.00  0.00    +0.000 A 
ATOM      7  C   UNL     1      -0.010   9.140  21.423  0.00  0.00    +0.000 A 
ATOM      8  C   UNL     1      -0.167  10.281  20.635  0.00  0.00    +0.000 A 
ATOM      9  N   UNL     1       0.564  10.379  19.476  0.00  0.00    +0.000 N 
ATOM     10  C   UNL     1       0.611  11.662  18.728  0.00  0.00    +0.000 C 
ATOM     11  C   UNL     1      -1.049  11.360  21.176  0.00  0.00    +0.000 A 
ATOM     12  C   UNL     1      -1.826  12.246  20.412  0.00  0.00    +0.000 A 
ATOM     13  C   UNL     1      -2.560  13.227  21.060  0.00  0.00    +0.000 A 
ATOM     14  C   UNL     1      -2.613  13.332  22.426  0.00  0.00    +0.000 A 
ATOM     15  C   UNL     1      -1.961  12.440  23.233  0.00  0.00    +0.000 A 
ATOM     16  C   UNL     1      -1.205  11.436  22.607  0.00  0.00    +0.000 A 
ATOM     17  C   UNL     1      -0.586  10.372  23.486  0.00  0.00    +0.000 C 
ATOM     18  C   UNL     1      -0.676   9.029  22.773  0.00  0.00    +0.000 C 
ATOM     19  O   UNL     1      -3.396  14.355  22.850  0.00  0.00    +0.000 OA
ATOM     20  C   UNL     1      -3.800  14.928  21.591  0.00  0.00    +0.000 C 
ATOM     21  O   UNL     1      -3.310  14.185  20.448  0.00  0.00    +0.000 OA
ATOM     22  C   UNL     1       2.440   7.087  19.347  0.00  0.00    +0.000 A 
ENDROOT
BRANCH   1  24
ATOM     23  C   UNL     1       4.865   6.937  16.515  0.00  0.00    +0.000 C 
ATOM     24  O   UNL     1       4.034   6.411  17.547  0.00  0.00    +0.000 OA
ENDBRANCH   1  24
BRANCH  22  25
ATOM     25  O   UNL     1       2.809   5.927  20.011  0.00  0.00    +0.000 OA
BRANCH  25  26
ATOM     26  C   UNL     1       2.003   5.381  21.033  0.00  0.00    +0.000 C 
BRANCH  26  27
ATOM     27  C   UNL     1       0.846   4.488  20.582  0.00  0.00    +0.000 C 
BRANCH  27  28
ATOM     28  C   UNL     1       1.253   3.045  20.955  0.00  0.00    +0.000 C 
BRANCH  28  29
ATOM     29  N   UNL     1       1.946   2.254  19.938  0.00  0.00    +0.000 NA
ATOM     30  C   UNL     1       3.414   2.341  20.166  0.00  0.00    +0.000 C 
ATOM     31  C   UNL     1       4.258   1.623  19.088  0.00  0.00    +0.000 C 
ATOM     32  N   UNL     1       3.934   1.993  17.699  0.00  0.00    +0.000 NA
ATOM     33  C   UNL     1       4.465   3.305  17.340  0.00  0.00    +0.000 C 
ATOM     34  C   UNL     1       2.472   1.920  17.510  0.00  0.00    +0.000 C 
ATOM     35  C   UNL     1       1.640   2.690  18.564  0.00  0.00    +0.000 C 
ENDBRANCH  28  29
ENDBRANCH  27  28
ENDBRANCH  26  27
ENDBRANCH  25  26
ENDBRANCH  22  25
TORSDOF 6
ENDMDL
MODEL 2
REMARK VINA RESULT:      -7.9      4.136      9.757
REMARK  Name = 
REMARK  9 active torsions:
REMARK  status: ('A' for Active; 'I' for Inactive)
REMARK    1  A    between atoms: C_1  and  O_2
REMARK    2  A    between atoms: O_2  and  C_3
REMARK    3  A    between atoms: N_11  and  C_12
REMARK    4  A    between atoms: C_24  and  O_25
REMARK    5  A    between atoms: O_25  and  C_26
REMARK    6  A    between atoms: C_26  and  C_27
REMARK    7  A    between atoms: C_27  and  C_28
REMARK    8  A    between atoms: C_28  and  N_29
REMARK    9  A    between atoms: N_32  and  C_33
REMARK                            x       y       z     vdW  Elec       q    Type
REMARK                         _______ _______ _______ _____ _____    ______ ____
ROOT
ATOM      1  C   UNL     1       0.217  13.183  20.215  0.00  0.00    +0.000 A 
ATOM      2  C   UNL     1      -0.080  12.513  21.399  0.00  0.00    +0.000 A 
ATOM      3  C   UNL     1       0.196  11.156  21.546  0.00  0.00    +0.000 A 
ATOM      4  C   UNL     1       0.819  10.401  20.530  0.00  0.00    +0.000 A 
ATOM      5  C   UNL     1       1.094  11.064  19.290  0.00  0.00    +0.000 A 
ATOM      6  C   UNL     1       1.655  10.244  18.304  0.00  0.00    +0.000 A 
ATOM      7  C   UNL     1       1.973   8.915  18.502  0.00  0.00    +0.000 A 
ATOM      8  C   UNL     1       1.684   8.297  19.719  0.00  0.00    +0.000 A 
ATOM      9  N   UNL     1       1.167   9.065  20.734  0.00  0.00    +0.000 N 
ATOM     10  C   UNL     1       1.062   8.513  22.110  0.00  0.00    +0.000 C 
ATOM     11  C   UNL     1       2.064   6.856  19.852  0.00  0.00    +0.000 A 
ATOM     12  C   UNL     1       1.394   5.900  20.634  0.00  0.00    +0.000 A 
ATOM     13  C   UNL     1       1.896   4.609  20.692  0.00  0.00    +0.000 A 
ATOM     14  C   UNL     1       2.986   4.205  19.966  0.00  0.00    +0.000 A 
ATOM     15  C   UNL     1       3.625   5.058  19.108  0.00  0.00    +0.000 A 
ATOM     16  C   UNL     1       3.144   6.374  19.029  0.00  0.00    +0.000 A 
ATOM     17  C   UNL     1       3.762   7.287  17.992  0.00  0.00    +0.000 C 
ATOM     18  C   UNL     1       2.669   8.163  17.393  0.00  0.00    +0.000 C 
ATOM     19  O   UNL     1       3.302   2.901  20.164  0.00  0.00    +0.000 OA
ATOM     20  C   UNL     1       2.313   2.528  21.144  0.00  0.00    +0.000 C 
ATOM     21  O   UNL     1       1.386   3.598  21.448  0.00  0.00    +0.000 OA
ATOM     22  C   UNL     1       0.808  12.487  19.142  0.00  0.00    +0.000 A 
ENDROOT
BRANCH   1  24
ATOM     23  C   UNL     1       0.707  15.321  21.187  0.00  0.00    +0.000 C 
ATOM     24  O   UNL     1      -0.066  14.523  20.295  0.00  0.00    +0.000 OA
ENDBRANCH   1  24
BRANCH  22  25
ATOM     25  O   UNL     1       1.098  13.309  18.063  0.00  0.00    +0.000 OA
BRANCH  25  26
ATOM     26  C   UNL     1       2.405  13.795  17.845  0.00  0.00    +0.000 C 
BRANCH  26  27
ATOM     27  C   UNL     1       2.601  15.305  17.992  0.00  0.00    +0.000 C 
BRANCH  27  28
ATOM     28  C   UNL     1       3.779  15.486  18.975  0.00  0.00    +0.000 C 
BRANCH  28  29
ATOM     29  N   UNL     1       5.065  15.909  18.419  0.00  0.00    +0.000 NA
ATOM     30  C   UNL     1       5.927  14.713  18.215  0.00  0.00    +0.000 C 
ATOM     31  C   UNL     1       7.355  15.048  17.724  0.00  0.00    +0.000 C 
ATOM     32  N   UNL     1       8.065  16.059  18.526  0.00  0.00    +0.000 NA
ATOM     33  C   UNL     1       8.553  15.517  19.790  0.00  0.00    +0.000 C 
ATOM     34  C   UNL     1       7.177  17.221  18.731  0.00  0.00    +0.000 C 
ATOM     35  C   UNL     1       5.770  16.878  19.277  0.00  0.00    +0.000 C 
ENDBRANCH  28  29
ENDBRANCH  27  28
ENDBRANCH  26  27
ENDBRANCH  25  26
ENDBRANCH  22  25
TORSDOF 6
ENDMDL
MODEL 3
REMARK VINA RESULT:      -7.9      3.139      9.460
REMARK  Name = 
REMARK  9 active torsions:
REMARK  status: ('A' for Active; 'I' for Inactive)
REMARK    1  A    between atoms: C_1  and  O_2
REMARK    2  A    between atoms: O_2  and  C_3
REMARK    3  A    between atoms: N_11  and  C_12
REMARK    4  A    between atoms: C_24  and  O_25
REMARK    5  A    between atoms: O_25  and  C_26
REMARK    6  A    between atoms: C_26  and  C_27
REMARK    7  A    between atoms: C_27  and  C_28
REMARK    8  A    between atoms: C_28  and  N_29
REMARK    9  A    between atoms: N_32  and  C_33
REMARK                            x       y       z     vdW  Elec       q    Type
REMARK                         _______ _______ _______ _____ _____    ______ ____
ROOT
ATOM      1  C   UNL     1      -1.362  13.270  21.682  0.00  0.00    +0.000 A 
ATOM      2  C   UNL     1      -1.181  12.453  22.794  0.00  0.00    +0.000 A 
ATOM      3  C   UNL     1      -0.596  11.194  22.675  0.00  0.00    +0.000 A 
ATOM      4  C   UNL     1      -0.126  10.698  21.441  0.00  0.00    +0.000 A 
ATOM      5  C   UNL     1      -0.341  11.507  20.279  0.00  0.00    +0.000 A 
ATOM      6  C   UNL     1       0.092  10.930  19.080  0.00  0.00    +0.000 A 
ATOM      7  C   UNL     1       0.725   9.705  19.003  0.00  0.00    +0.000 A 
ATOM      8  C   UNL     1       0.912   8.938  20.153  0.00  0.00    +0.000 A 
ATOM      9  N   UNL     1       0.538   9.472  21.362  0.00  0.00    +0.000 N 
ATOM     10  C   UNL     1       0.926   8.799  22.629  0.00  0.00    +0.000 C 
ATOM     11  C   UNL     1       1.607   7.624  19.983  0.00  0.00    +0.000 A 
ATOM     12  C   UNL     1       1.390   6.474  20.760  0.00  0.00    +0.000 A 
ATOM     13  C   UNL     1       2.149   5.341  20.510  0.00  0.00    +0.000 A 
ATOM     14  C   UNL     1       3.062   5.272  19.490  0.00  0.00    +0.000 A 
ATOM     15  C   UNL     1       3.253   6.322  18.633  0.00  0.00    +0.000 A 
ATOM     16  C   UNL     1       2.502   7.486  18.862  0.00  0.00    +0.000 A 
ATOM     17  C   UNL     1       2.611   8.603  17.847  0.00  0.00    +0.000 C 
ATOM     18  C   UNL     1       1.239   9.237  17.663  0.00  0.00    +0.000 C 
ATOM     19  O   UNL     1       3.687   4.071  19.418  0.00  0.00    +0.000 OA
ATOM     20  C   UNL     1       3.101   3.392  20.546  0.00  0.00    +0.000 C 
ATOM     21  O   UNL     1       2.087   4.179  21.215  0.00  0.00    +0.000 OA
ATOM     22  C   UNL     1      -0.949  12.827  20.409  0.00  0.00    +0.000 A 
ENDROOT
BRANCH   1  24
ATOM     23  C   UNL     1      -2.761  14.560  23.143  0.00  0.00    +0.000 C 
ATOM     24  O   UNL     1      -1.889  14.491  22.018  0.00  0.00    +0.000 OA
ENDBRANCH   1  24
BRANCH  22  25
ATOM     25  O   UNL     1      -1.141  13.781  19.421  0.00  0.00    +0.000 OA
BRANCH  25  26
ATOM     26  C   UNL     1      -0.221  14.835  19.234  0.00  0.00    +0.000 C 
BRANCH  26  27
ATOM     27  C   UNL     1       1.136  14.455  18.640  0.00  0.00    +0.000 C 
BRANCH  27  28
ATOM     28  C   UNL     1       2.127  14.432  19.825  0.00  0.00    +0.000 C 
BRANCH  28  29
ATOM     29  N   UNL     1       3.553  14.342  19.512  0.00  0.00    +0.000 NA
ATOM     30  C   UNL     1       4.329  15.099  20.533  0.00  0.00    +0.000 C 
ATOM     31  C   UNL     1       5.847  15.160  20.247  0.00  0.00    +0.000 C 
ATOM     32  N   UNL     1       6.205  15.615  18.893  0.00  0.00    +0.000 NA
ATOM     33  C   UNL     1       6.048  17.059  18.737  0.00  0.00    +0.000 C 
ATOM     34  C   UNL     1       5.405  14.864  17.905  0.00  0.00    +0.000 C 
ATOM     35  C   UNL     1       3.880  14.859  18.170  0.00  0.00    +0.000 C 
ENDBRANCH  28  29
ENDBRANCH  27  28
ENDBRANCH  26  27
ENDBRANCH  25  26
ENDBRANCH  22  25
TORSDOF 6
ENDMDL
MODEL 4
REMARK VINA RESULT:      -7.9      3.693     10.254
REMARK  Name = 
REMARK  9 active torsions:
REMARK  status: ('A' for Active; 'I' for Inactive)
REMARK    1  A    between atoms: C_1  and  O_2
REMARK    2  A    between atoms: O_2  and  C_3
REMARK    3  A    between atoms: N_11  and  C_12
REMARK    4  A    between atoms: C_24  and  O_25
REMARK    5  A    between atoms: O_25  and  C_26
REMARK    6  A    between atoms: C_26  and  C_27
REMARK    7  A    between atoms: C_27  and  C_28
REMARK    8  A    between atoms: C_28  and  N_29
REMARK    9  A    between atoms: N_32  and  C_33
REMARK                            x       y       z     vdW  Elec       q    Type
REMARK                         _______ _______ _______ _____ _____    ______ ____
ROOT
ATOM      1  C   UNL     1       0.389  13.072  20.221  0.00  0.00    +0.000 A 
ATOM      2  C   UNL     1       0.015  12.380  21.370  0.00  0.00    +0.000 A 
ATOM      3  C   UNL     1       0.238  11.009  21.489  0.00  0.00    +0.000 A 
ATOM      4  C   UNL     1       0.881  10.262  20.479  0.00  0.00    +0.000 A 
ATOM      5  C   UNL     1       1.234  10.950  19.273  0.00  0.00    +0.000 A 
ATOM      6  C   UNL     1       1.811  10.139  18.288  0.00  0.00    +0.000 A 
ATOM      7  C   UNL     1       2.074   8.794  18.460  0.00  0.00    +0.000 A 
ATOM      8  C   UNL     1       1.709   8.153  19.645  0.00  0.00    +0.000 A 
ATOM      9  N   UNL     1       1.173   8.910  20.658  0.00  0.00    +0.000 N 
ATOM     10  C   UNL     1       0.987   8.322  22.011  0.00  0.00    +0.000 C 
ATOM     11  C   UNL     1       2.033   6.697  19.751  0.00  0.00    +0.000 A 
ATOM     12  C   UNL     1       1.296   5.743  20.473  0.00  0.00    +0.000 A 
ATOM     13  C   UNL     1       1.750   4.434  20.514  0.00  0.00    +0.000 A 
ATOM     14  C   UNL     1       2.857   4.012  19.826  0.00  0.00    +0.000 A 
ATOM     15  C   UNL     1       3.564   4.866  19.023  0.00  0.00    +0.000 A 
ATOM     16  C   UNL     1       3.132   6.200  18.962  0.00  0.00    +0.000 A 
ATOM     17  C   UNL     1       3.827   7.120  17.982  0.00  0.00    +0.000 C 
ATOM     18  C   UNL     1       2.794   8.050  17.362  0.00  0.00    +0.000 C 
ATOM     19  O   UNL     1       3.119   2.692  19.999  0.00  0.00    +0.000 OA
ATOM     20  C   UNL     1       2.075   2.327  20.922  0.00  0.00    +0.000 C 
ATOM     21  O   UNL     1       1.172   3.420  21.216  0.00  0.00    +0.000 OA
ATOM     22  C   UNL     1       1.004  12.386  19.155  0.00  0.00    +0.000 A 
ENDROOT
BRANCH   1  24
ATOM     23  C   UNL     1       0.477  15.063  21.556  0.00  0.00    +0.000 C 
ATOM     24  O   UNL     1       0.148  14.418  20.329  0.00  0.00    +0.000 OA
ENDBRANCH   1  24
BRANCH  22  25
ATOM     25  O   UNL     1       1.370  13.227  18.116  0.00  0.00    +0.000 OA
BRANCH  25  26
ATOM     26  C   UNL     1       2.728  13.509  17.847  0.00  0.00    +0.000 C 
BRANCH  26  27
ATOM     27  C   UNL     1       3.345  14.677  18.616  0.00  0.00    +0.000 C 
BRANCH  27  28
ATOM     28  C   UNL     1       3.625  15.776  17.566  0.00  0.00    +0.000 C 
BRANCH  28  29
ATOM     29  N   UNL     1       2.915  17.047  17.712  0.00  0.00    +0.000 NA
ATOM     30  C   UNL     1       2.148  17.036  18.988  0.00  0.00    +0.000 C 
ATOM     31  C   UNL     1       1.274  18.293  19.203  0.00  0.00    +0.000 C 
ATOM     32  N   UNL     1       0.387  18.631  18.076  0.00  0.00    +0.000 NA
ATOM     33  C   UNL     1      -0.776  17.750  18.006  0.00  0.00    +0.000 C 
ATOM     34  C   UNL     1       1.169  18.611  16.825  0.00  0.00    +0.000 C 
ATOM     35  C   UNL     1       1.996  17.323  16.594  0.00  0.00    +0.000 C 
ENDBRANCH  28  29
ENDBRANCH  27  28
ENDBRANCH  26  27
ENDBRANCH  25  26
ENDBRANCH  22  25
TORSDOF 6
ENDMDL
MODEL 5
REMARK VINA RESULT:      -7.9      3.631      9.684
REMARK  Name = 
REMARK  9 active torsions:
REMARK  status: ('A' for Active; 'I' for Inactive)
REMARK    1  A    between atoms: C_1  and  O_2
REMARK    2  A    between atoms: O_2  and  C_3
REMARK    3  A    between atoms: N_11  and  C_12
REMARK    4  A    between atoms: C_24  and  O_25
REMARK    5  A    between atoms: O_25  and  C_26
REMARK    6  A    between atoms: C_26  and  C_27
REMARK    7  A    between atoms: C_27  and  C_28
REMARK    8  A    between atoms: C_28  and  N_29
REMARK    9  A    between atoms: N_32  and  C_33
REMARK                            x       y       z     vdW  Elec       q    Type
REMARK                         _______ _______ _______ _____ _____    ______ ____
ROOT
ATOM      1  C   UNL     1      -0.639  13.110  20.816  0.00  0.00    +0.000 A 
ATOM      2  C   UNL     1      -0.704  12.376  21.997  0.00  0.00    +0.000 A 
ATOM      3  C   UNL     1      -0.244  11.062  22.055  0.00  0.00    +0.000 A 
ATOM      4  C   UNL     1       0.341  10.422  20.942  0.00  0.00    +0.000 A 
ATOM      5  C   UNL     1       0.379  11.147  19.708  0.00  0.00    +0.000 A 
ATOM      6  C   UNL     1       0.915  10.433  18.630  0.00  0.00    +0.000 A 
ATOM      7  C   UNL     1       1.419   9.151  18.734  0.00  0.00    +0.000 A 
ATOM      8  C   UNL     1       1.359   8.469  19.950  0.00  0.00    +0.000 A 
ATOM      9  N   UNL     1       0.876   9.137  21.049  0.00  0.00    +0.000 N 
ATOM     10  C   UNL     1       1.008   8.540  22.404  0.00  0.00    +0.000 C 
ATOM     11  C   UNL     1       1.929   7.087  19.978  0.00  0.00    +0.000 A 
ATOM     12  C   UNL     1       1.484   6.032  20.791  0.00  0.00    +0.000 A 
ATOM     13  C   UNL     1       2.146   4.815  20.737  0.00  0.00    +0.000 A 
ATOM     14  C   UNL     1       3.183   4.575  19.873  0.00  0.00    +0.000 A 
ATOM     15  C   UNL     1       3.602   5.526  18.983  0.00  0.00    +0.000 A 
ATOM     16  C   UNL     1       2.954   6.770  19.015  0.00  0.00    +0.000 A 
ATOM     17  C   UNL     1       3.323   7.783  17.953  0.00  0.00    +0.000 C 
ATOM     18  C   UNL     1       2.065   8.526  17.521  0.00  0.00    +0.000 C 
ATOM     19  O   UNL     1       3.681   3.318  19.979  0.00  0.00    +0.000 OA
ATOM     20  C   UNL     1       2.873   2.795  21.050  0.00  0.00    +0.000 C 
ATOM     21  O   UNL     1       1.862   3.727  21.504  0.00  0.00    +0.000 OA
ATOM     22  C   UNL     1      -0.098  12.525  19.654  0.00  0.00    +0.000 A 
ENDROOT
BRANCH   1  24
ATOM     23  C   UNL     1      -2.475  14.650  20.901  0.00  0.00    +0.000 C 
ATOM     24  O   UNL     1      -1.075  14.399  20.984  0.00  0.00    +0.000 OA
ENDBRANCH   1  24
BRANCH  22  25
ATOM     25  O   UNL     1      -0.046  13.405  18.584  0.00  0.00    +0.000 OA
BRANCH  25  26
ATOM     26  C   UNL     1       0.711  14.595  18.653  0.00  0.00    +0.000 C 
BRANCH  26  27
ATOM     27  C   UNL     1       2.221  14.451  18.459  0.00  0.00    +0.000 C 
BRANCH  27  28
ATOM     28  C   UNL     1       2.788  15.889  18.456  0.00  0.00    +0.000 C 
BRANCH  28  29
ATOM     29  N   UNL     1       4.211  16.053  18.160  0.00  0.00    +0.000 NA
ATOM     30  C   UNL     1       4.846  14.712  18.044  0.00  0.00    +0.000 C 
ATOM     31  C   UNL     1       6.377  14.761  17.832  0.00  0.00    +0.000 C 
ATOM     32  N   UNL     1       7.111  15.591  18.802  0.00  0.00    +0.000 NA
ATOM     33  C   UNL     1       7.243  14.936  20.100  0.00  0.00    +0.000 C 
ATOM     34  C   UNL     1       6.445  16.904  18.912  0.00  0.00    +0.000 C 
ATOM     35  C   UNL     1       4.923  16.842  19.182  0.00  0.00    +0.000 C 
ENDBRANCH  28  29
ENDBRANCH  27  28
ENDBRANCH  26  27
ENDBRANCH  25  26
ENDBRANCH  22  25
TORSDOF 6
ENDMDL
MODEL 6
REMARK VINA RESULT:      -7.8      3.858      9.760
REMARK  Name = 
REMARK  9 active torsions:
REMARK  status: ('A' for Active; 'I' for Inactive)
REMARK    1  A    between atoms: C_1  and  O_2
REMARK    2  A    between atoms: O_2  and  C_3
REMARK    3  A    between atoms: N_11  and  C_12
REMARK    4  A    between atoms: C_24  and  O_25
REMARK    5  A    between atoms: O_25  and  C_26
REMARK    6  A    between atoms: C_26  and  C_27
REMARK    7  A    between atoms: C_27  and  C_28
REMARK    8  A    between atoms: C_28  and  N_29
REMARK    9  A    between atoms: N_32  and  C_33
REMARK                            x       y       z     vdW  Elec       q    Type
REMARK                         _______ _______ _______ _____ _____    ______ ____
ROOT
ATOM      1  C   UNL     1      -0.313  13.151  20.710  0.00  0.00    +0.000 A 
ATOM      2  C   UNL     1      -0.443  12.427  21.891  0.00  0.00    +0.000 A 
ATOM      3  C   UNL     1      -0.044  11.094  21.966  0.00  0.00    +0.000 A 
ATOM      4  C   UNL     1       0.540  10.422  20.872  0.00  0.00    +0.000 A 
ATOM      5  C   UNL     1       0.643  11.138  19.636  0.00  0.00    +0.000 A 
ATOM      6  C   UNL     1       1.174  10.395  18.575  0.00  0.00    +0.000 A 
ATOM      7  C   UNL     1       1.616   9.093  18.698  0.00  0.00    +0.000 A 
ATOM      8  C   UNL     1       1.494   8.421  19.914  0.00  0.00    +0.000 A 
ATOM      9  N   UNL     1       1.013   9.115  20.997  0.00  0.00    +0.000 N 
ATOM     10  C   UNL     1       1.082   8.519  22.358  0.00  0.00    +0.000 C 
ATOM     11  C   UNL     1       1.999   7.014  19.963  0.00  0.00    +0.000 A 
ATOM     12  C   UNL     1       1.485   5.984  20.768  0.00  0.00    +0.000 A 
ATOM     13  C   UNL     1       2.093   4.739  20.736  0.00  0.00    +0.000 A 
ATOM     14  C   UNL     1       3.140   4.447  19.900  0.00  0.00    +0.000 A 
ATOM     15  C   UNL     1       3.625   5.374  19.018  0.00  0.00    +0.000 A 
ATOM     16  C   UNL     1       3.033   6.646  19.028  0.00  0.00    +0.000 A 
ATOM     17  C   UNL     1       3.476   7.636  17.972  0.00  0.00    +0.000 C 
ATOM     18  C   UNL     1       2.265   8.432  17.505  0.00  0.00    +0.000 C 
ATOM     19  O   UNL     1       3.578   3.169  20.024  0.00  0.00    +0.000 OA
ATOM     20  C   UNL     1       2.719   2.689  21.076  0.00  0.00    +0.000 C 
ATOM     21  O   UNL     1       1.740   3.669  21.500  0.00  0.00    +0.000 OA
ATOM     22  C   UNL     1       0.230  12.536  19.564  0.00  0.00    +0.000 A 
ENDROOT
BRANCH   1  24
ATOM     23  C   UNL     1      -0.502  15.073  22.132  0.00  0.00    +0.000 C 
ATOM     24  O   UNL     1      -0.695  14.460  20.861  0.00  0.00    +0.000 OA
ENDBRANCH   1  24
BRANCH  22  25
ATOM     25  O   UNL     1       0.350  13.408  18.492  0.00  0.00    +0.000 OA
BRANCH  25  26
ATOM     26  C   UNL     1       1.609  13.911  18.097  0.00  0.00    +0.000 C 
BRANCH  26  27
ATOM     27  C   UNL     1       1.985  15.294  18.629  0.00  0.00    +0.000 C 
BRANCH  27  28
ATOM     28  C   UNL     1       3.330  15.655  17.960  0.00  0.00    +0.000 C 
BRANCH  28  29
ATOM     29  N   UNL     1       4.551  15.447  18.740  0.00  0.00    +0.000 NA
ATOM     30  C   UNL     1       4.973  16.740  19.344  0.00  0.00    +0.000 C 
ATOM     31  C   UNL     1       6.313  16.664  20.112  0.00  0.00    +0.000 C 
ATOM     32  N   UNL     1       7.427  16.065  19.356  0.00  0.00    +0.000 NA
ATOM     33  C   UNL     1       7.972  16.982  18.358  0.00  0.00    +0.000 C 
ATOM     34  C   UNL     1       6.972  14.798  18.750  0.00  0.00    +0.000 C 
ATOM     35  C   UNL     1       5.659  14.900  17.937  0.00  0.00    +0.000 C 
ENDBRANCH  28  29
ENDBRANCH  27  28
ENDBRANCH  26  27
ENDBRANCH  25  26
ENDBRANCH  22  25
TORSDOF 6
ENDMDL
MODEL 7
REMARK VINA RESULT:      -7.7      2.738      9.628
REMARK  Name = 
REMARK  9 active torsions:
REMARK  status: ('A' for Active; 'I' for Inactive)
REMARK    1  A    between atoms: C_1  and  O_2
REMARK    2  A    between atoms: O_2  and  C_3
REMARK    3  A    between atoms: N_11  and  C_12
REMARK    4  A    between atoms: C_24  and  O_25
REMARK    5  A    between atoms: O_25  and  C_26
REMARK    6  A    between atoms: C_26  and  C_27
REMARK    7  A    between atoms: C_27  and  C_28
REMARK    8  A    between atoms: C_28  and  N_29
REMARK    9  A    between atoms: N_32  and  C_33
REMARK                            x       y       z     vdW  Elec       q    Type
REMARK                         _______ _______ _______ _____ _____    ______ ____
ROOT
ATOM      1  C   UNL     1      -0.427  11.156  22.284  0.00  0.00    +0.000 A 
ATOM      2  C   UNL     1      -0.444   9.955  22.988  0.00  0.00    +0.000 A 
ATOM      3  C   UNL     1       0.086   8.790  22.438  0.00  0.00    +0.000 A 
ATOM      4  C   UNL     1       0.695   8.770  21.165  0.00  0.00    +0.000 A 
ATOM      5  C   UNL     1       0.684   9.986  20.409  0.00  0.00    +0.000 A 
ATOM      6  C   UNL     1       1.249   9.883  19.132  0.00  0.00    +0.000 A 
ATOM      7  C   UNL     1       1.820   8.727  18.639  0.00  0.00    +0.000 A 
ATOM      8  C   UNL     1       1.806   7.557  19.398  0.00  0.00    +0.000 A 
ATOM      9  N   UNL     1       1.298   7.612  20.672  0.00  0.00    +0.000 N 
ATOM     10  C   UNL     1       1.472   6.461  21.597  0.00  0.00    +0.000 C 
ATOM     11  C   UNL     1       2.449   6.350  18.791  0.00  0.00    +0.000 A 
ATOM     12  C   UNL     1       2.067   5.017  19.014  0.00  0.00    +0.000 A 
ATOM     13  C   UNL     1       2.792   4.000  18.412  0.00  0.00    +0.000 A 
ATOM     14  C   UNL     1       3.833   4.241  17.553  0.00  0.00    +0.000 A 
ATOM     15  C   UNL     1       4.194   5.517  17.214  0.00  0.00    +0.000 A 
ATOM     16  C   UNL     1       3.481   6.569  17.809  0.00  0.00    +0.000 A 
ATOM     17  C   UNL     1       3.787   7.977  17.345  0.00  0.00    +0.000 C 
ATOM     18  C   UNL     1       2.489   8.770  17.286  0.00  0.00    +0.000 C 
ATOM     19  O   UNL     1       4.398   3.106  17.072  0.00  0.00    +0.000 OA
ATOM     20  C   UNL     1       3.627   2.105  17.765  0.00  0.00    +0.000 C 
ATOM     21  O   UNL     1       2.573   2.667  18.582  0.00  0.00    +0.000 OA
ATOM     22  C   UNL     1       0.134  11.206  20.992  0.00  0.00    +0.000 A 
ENDROOT
BRANCH   1  24
ATOM     23  C   UNL     1      -2.338  12.254  23.231  0.00  0.00    +0.000 C 
ATOM     24  O   UNL     1      -0.930  12.196  23.024  0.00  0.00    +0.000 OA
ENDBRANCH   1  24
BRANCH  22  25
ATOM     25  O   UNL     1       0.131  12.484  20.455  0.00  0.00    +0.000 OA
BRANCH  25  26
ATOM     26  C   UNL     1      -1.005  12.995  19.790  0.00  0.00    +0.000 C 
BRANCH  26  27
ATOM     27  C   UNL     1      -1.363  12.339  18.456  0.00  0.00    +0.000 C 
BRANCH  27  28
ATOM     28  C   UNL     1      -2.556  11.403  18.749  0.00  0.00    +0.000 C 
BRANCH  28  29
ATOM     29  N   UNL     1      -3.902  11.932  18.526  0.00  0.00    +0.000 NA
ATOM     30  C   UNL     1      -4.440  12.461  19.810  0.00  0.00    +0.000 C 
ATOM     31  C   UNL     1      -5.901  12.956  19.719  0.00  0.00    +0.000 C 
ATOM     32  N   UNL     1      -6.846  11.994  19.127  0.00  0.00    +0.000 NA
ATOM     33  C   UNL     1      -7.195  10.922  20.055  0.00  0.00    +0.000 C 
ATOM     34  C   UNL     1      -6.276  11.471  17.870  0.00  0.00    +0.000 C 
ATOM     35  C   UNL     1      -4.833  10.925  17.986  0.00  0.00    +0.000 C 
ENDBRANCH  28  29
ENDBRANCH  27  28
ENDBRANCH  26  27
ENDBRANCH  25  26
ENDBRANCH  22  25
TORSDOF 6
ENDMDL
MODEL 8
REMARK VINA RESULT:      -7.6      4.055      9.934
REMARK  Name = 
REMARK  9 active torsions:
REMARK  status: ('A' for Active; 'I' for Inactive)
REMARK    1  A    between atoms: C_1  and  O_2
REMARK    2  A    between atoms: O_2  and  C_3
REMARK    3  A    between atoms: N_11  and  C_12
REMARK    4  A    between atoms: C_24  and  O_25
REMARK    5  A    between atoms: O_25  and  C_26
REMARK    6  A    between atoms: C_26  and  C_27
REMARK    7  A    between atoms: C_27  and  C_28
REMARK    8  A    between atoms: C_28  and  N_29
REMARK    9  A    between atoms: N_32  and  C_33
REMARK                            x       y       z     vdW  Elec       q    Type
REMARK                         _______ _______ _______ _____ _____    ______ ____
ROOT
ATOM      1  C   UNL     1       0.288  12.012  20.271  0.00  0.00    +0.000 A 
ATOM      2  C   UNL     1      -0.099  11.084  21.234  0.00  0.00    +0.000 A 
ATOM      3  C   UNL     1       0.254   9.741  21.121  0.00  0.00    +0.000 A 
ATOM      4  C   UNL     1       1.043   9.259  20.056  0.00  0.00    +0.000 A 
ATOM      5  C   UNL     1       1.415  10.191  19.035  0.00  0.00    +0.000 A 
ATOM      6  C   UNL     1       2.144   9.636  17.977  0.00  0.00    +0.000 A 
ATOM      7  C   UNL     1       2.530   8.311  17.925  0.00  0.00    +0.000 A 
ATOM      8  C   UNL     1       2.144   7.426  18.933  0.00  0.00    +0.000 A 
ATOM      9  N   UNL     1       1.458   7.927  20.012  0.00  0.00    +0.000 N 
ATOM     10  C   UNL     1       1.231   7.079  21.212  0.00  0.00    +0.000 C 
ATOM     11  C   UNL     1       2.606   6.010  18.801  0.00  0.00    +0.000 A 
ATOM     12  C   UNL     1       1.918   4.876  19.265  0.00  0.00    +0.000 A 
ATOM     13  C   UNL     1       2.499   3.627  19.109  0.00  0.00    +0.000 A 
ATOM     14  C   UNL     1       3.693   3.441  18.461  0.00  0.00    +0.000 A 
ATOM     15  C   UNL     1       4.367   4.490  17.898  0.00  0.00    +0.000 A 
ATOM     16  C   UNL     1       3.807   5.769  18.042  0.00  0.00    +0.000 A 
ATOM     17  C   UNL     1       4.477   6.915  17.315  0.00  0.00    +0.000 C 
ATOM     18  C   UNL     1       3.404   7.855  16.781  0.00  0.00    +0.000 C 
ATOM     19  O   UNL     1       4.074   2.140  18.415  0.00  0.00    +0.000 OA
ATOM     20  C   UNL     1       3.006   1.517  19.154  0.00  0.00    +0.000 C 
ATOM     21  O   UNL     1       1.976   2.452  19.557  0.00  0.00    +0.000 OA
ATOM     22  C   UNL     1       1.049  11.598  19.160  0.00  0.00    +0.000 A 
ENDROOT
BRANCH   1  24
ATOM     23  C   UNL     1       0.687  14.001  21.552  0.00  0.00    +0.000 C 
ATOM     24  O   UNL     1      -0.096  13.288  20.599  0.00  0.00    +0.000 OA
ENDBRANCH   1  24
BRANCH  22  25
ATOM     25  O   UNL     1       1.405  12.651  18.331  0.00  0.00    +0.000 OA
BRANCH  25  26
ATOM     26  C   UNL     1       2.716  13.176  18.338  0.00  0.00    +0.000 C 
BRANCH  26  27
ATOM     27  C   UNL     1       2.839  14.694  18.206  0.00  0.00    +0.000 C 
BRANCH  27  28
ATOM     28  C   UNL     1       3.708  15.155  19.397  0.00  0.00    +0.000 C 
BRANCH  28  29
ATOM     29  N   UNL     1       5.149  14.916  19.316  0.00  0.00    +0.000 NA
ATOM     30  C   UNL     1       5.848  15.796  20.291  0.00  0.00    +0.000 C 
ATOM     31  C   UNL     1       7.390  15.703  20.224  0.00  0.00    +0.000 C 
ATOM     32  N   UNL     1       7.963  15.875  18.878  0.00  0.00    +0.000 NA
ATOM     33  C   UNL     1       7.960  17.272  18.452  0.00  0.00    +0.000 C 
ATOM     34  C   UNL     1       7.236  15.009  17.930  0.00  0.00    +0.000 C 
ATOM     35  C   UNL     1       5.695  15.152  17.967  0.00  0.00    +0.000 C 
ENDBRANCH  28  29
ENDBRANCH  27  28
ENDBRANCH  26  27
ENDBRANCH  25  26
ENDBRANCH  22  25
TORSDOF 6
ENDMDL
MODEL 9
REMARK VINA RESULT:      -7.6      3.472      9.746
REMARK  Name = 
REMARK  9 active torsions:
REMARK  status: ('A' for Active; 'I' for Inactive)
REMARK    1  A    between atoms: C_1  and  O_2
REMARK    2  A    between atoms: O_2  and  C_3
REMARK    3  A    between atoms: N_11  and  C_12
REMARK    4  A    between atoms: C_24  and  O_25
REMARK    5  A    between atoms: O_25  and  C_26
REMARK    6  A    between atoms: C_26  and  C_27
REMARK    7  A    between atoms: C_27  and  C_28
REMARK    8  A    between atoms: C_28  and  N_29
REMARK    9  A    between atoms: N_32  and  C_33
REMARK                            x       y       z     vdW  Elec       q    Type
REMARK                         _______ _______ _______ _____ _____    ______ ____
ROOT
ATOM      1  C   UNL     1      -0.371  13.217  20.757  0.00  0.00    +0.000 A 
ATOM      2  C   UNL     1      -0.444  12.502  21.949  0.00  0.00    +0.000 A 
ATOM      3  C   UNL     1      -0.028  11.174  22.019  0.00  0.00    +0.000 A 
ATOM      4  C   UNL     1       0.518  10.499  20.907  0.00  0.00    +0.000 A 
ATOM      5  C   UNL     1       0.563  11.205  19.662  0.00  0.00    +0.000 A 
ATOM      6  C   UNL     1       1.058  10.458  18.586  0.00  0.00    +0.000 A 
ATOM      7  C   UNL     1       1.519   9.162  18.701  0.00  0.00    +0.000 A 
ATOM      8  C   UNL     1       1.454   8.499  19.928  0.00  0.00    +0.000 A 
ATOM      9  N   UNL     1       1.010   9.198  21.024  0.00  0.00    +0.000 N 
ATOM     10  C   UNL     1       1.141   8.615  22.385  0.00  0.00    +0.000 C 
ATOM     11  C   UNL     1       1.976   7.098  19.967  0.00  0.00    +0.000 A 
ATOM     12  C   UNL     1       1.507   6.070  20.802  0.00  0.00    +0.000 A 
ATOM     13  C   UNL     1       2.127   4.831  20.755  0.00  0.00    +0.000 A 
ATOM     14  C   UNL     1       3.142   4.544  19.879  0.00  0.00    +0.000 A 
ATOM     15  C   UNL     1       3.580   5.468  18.970  0.00  0.00    +0.000 A 
ATOM     16  C   UNL     1       2.975   6.734  18.994  0.00  0.00    +0.000 A 
ATOM     17  C   UNL     1       3.363   7.718  17.912  0.00  0.00    +0.000 C 
ATOM     18  C   UNL     1       2.125   8.498  17.489  0.00  0.00    +0.000 C 
ATOM     19  O   UNL     1       3.599   3.272  19.996  0.00  0.00    +0.000 OA
ATOM     20  C   UNL     1       2.789   2.791  21.086  0.00  0.00    +0.000 C 
ATOM     21  O   UNL     1       1.818   3.764  21.541  0.00  0.00    +0.000 OA
ATOM     22  C   UNL     1       0.131  12.598  19.595  0.00  0.00    +0.000 A 
ENDROOT
BRANCH   1  24
ATOM     23  C   UNL     1      -0.054  15.327  21.853  0.00  0.00    +0.000 C 
ATOM     24  O   UNL     1      -0.761  14.523  20.913  0.00  0.00    +0.000 OA
ENDBRANCH   1  24
BRANCH  22  25
ATOM     25  O   UNL     1       0.198  13.461  18.512  0.00  0.00    +0.000 OA
BRANCH  25  26
ATOM     26  C   UNL     1       1.296  14.331  18.337  0.00  0.00    +0.000 C 
BRANCH  26  27
ATOM     27  C   UNL     1       2.651  13.671  18.077  0.00  0.00    +0.000 C 
BRANCH  27  28
ATOM     28  C   UNL     1       3.704  14.591  18.734  0.00  0.00    +0.000 C 
BRANCH  28  29
ATOM     29  N   UNL     1       3.353  15.219  20.008  0.00  0.00    +0.000 NA
ATOM     30  C   UNL     1       3.774  16.647  19.982  0.00  0.00    +0.000 C 
ATOM     31  C   UNL     1       3.544  17.391  21.318  0.00  0.00    +0.000 C 
ATOM     32  N   UNL     1       4.097  16.717  22.505  0.00  0.00    +0.000 NA
ATOM     33  C   UNL     1       5.547  16.860  22.595  0.00  0.00    +0.000 C 
ATOM     34  C   UNL     1       3.683  15.300  22.491  0.00  0.00    +0.000 C 
ATOM     35  C   UNL     1       3.970  14.551  21.167  0.00  0.00    +0.000 C 
ENDBRANCH  28  29
ENDBRANCH  27  28
ENDBRANCH  26  27
ENDBRANCH  25  26
ENDBRANCH  22  25
TORSDOF 6
ENDMDL
