MODEL 1
REMARK VINA RESULT:      -7.1      0.000      0.000
REMARK  Name = 
REMARK  9 active torsions:
REMARK  status: ('A' for Active; 'I' for Inactive)
REMARK    1  A    between atoms: C_1  and  C_2
REMARK    2  A    between atoms: C_2  and  N_3
REMARK    3  A    between atoms: C_4  and  C_5
REMARK    4  A    between atoms: C_4  and  C_7
REMARK    5  A    between atoms: C_7  and  C_9
REMARK    6  A    between atoms: C_9  and  S_10
REMARK    7  A    between atoms: S_10  and  C_11
REMARK    8  A    between atoms: N_21  and  C_22
REMARK    9  A    between atoms: C_27  and  C_28
REMARK                            x       y       z     vdW  Elec       q    Type
REMARK                         _______ _______ _______ _____ _____    ______ ____
ROOT
ATOM      1  C   UNL     1       3.622   5.927  18.239  0.00  0.00    +0.000 A 
ATOM      2  N   UNL     1       4.396   6.479  17.360  0.00  0.00    +0.000 NA
ATOM      3  C   UNL     1       5.077   5.662  16.456  0.00  0.00    +0.000 A 
ATOM      4  C   UNL     1       5.807   6.265  15.427  0.00  0.00    +0.000 A 
ATOM      5  C   UNL     1       6.492   5.487  14.491  0.00  0.00    +0.000 A 
ATOM      6  C   UNL     1       6.455   4.096  14.580  0.00  0.00    +0.000 A 
ATOM      7  C   UNL     1       5.717   3.485  15.595  0.00  0.00    +0.000 A 
ATOM      8  C   UNL     1       5.023   4.274  16.521  0.00  0.00    +0.000 A 
ATOM      9  C   UNL     1       4.189   3.663  17.576  0.00  0.00    +0.000 A 
ATOM     10  O   UNL     1       4.150   2.437  17.657  0.00  0.00    +0.000 OA
ATOM     11  N   UNL     1       3.495   4.553  18.401  0.00  0.00    +0.000 N 
ENDROOT
BRANCH  11  12
ATOM     12  C   UNL     1       2.687   3.983  19.426  0.00  0.00    +0.000 A 
ATOM     13  C   UNL     1       3.242   3.815  20.703  0.00  0.00    +0.000 A 
ATOM     14  C   UNL     1       2.490   3.232  21.724  0.00  0.00    +0.000 A 
ATOM     15  C   UNL     1       1.181   2.826  21.475  0.00  0.00    +0.000 A 
ATOM     16  C   UNL     1       0.618   3.004  20.209  0.00  0.00    +0.000 A 
ATOM     17  C   UNL     1       1.363   3.576  19.167  0.00  0.00    +0.000 A 
ATOM     18  C   UNL     1       0.726   3.749  17.817  0.00  0.00    +0.000 C 
ENDBRANCH  11  12
BRANCH   1  19
ATOM     19  S   UNL     1       2.658   6.992  19.262  0.00  0.00    +0.000 S 
BRANCH  19  20
ATOM     20  C   UNL     1       1.623   7.846  18.046  0.00  0.00    +0.000 C 
BRANCH  20  21
ATOM     21  C   UNL     1       1.604   9.358  18.222  0.00  0.00    +0.000 C 
ATOM     22  O   UNL     1       2.356  10.079  17.565  0.00  0.00    +0.000 OA
BRANCH  21  25
ATOM     23  C   UNL     1      -1.150  10.083  17.297  0.00  0.00    +0.000 C 
ATOM     24  C   UNL     1      -0.705  10.234  18.741  0.00  0.00    +0.000 C 
ATOM     25  C   UNL     1       0.563   9.948  19.150  0.00  0.00    +0.000 C 
BRANCH  24  26
ATOM     26  N   UNL     1      -1.719  10.666  19.590  0.00  0.00    +0.000 N 
ATOM     27  H   UNL     1      -2.536  10.061  19.651  0.00  0.00    +0.000 HD
ATOM     28  H   UNL     1      -1.954  11.657  19.595  0.00  0.00    +0.000 HD
ENDBRANCH  24  26
BRANCH  25  29
ATOM     29  C   UNL     1       0.896  10.161  20.618  0.00  0.00    +0.000 C 
ATOM     30  N   UNL     1       1.171  10.338  21.835  0.00  0.00    +0.000 NA
ENDBRANCH  25  29
ENDBRANCH  21  25
ENDBRANCH  20  21
ENDBRANCH  19  20
ENDBRANCH   1  19
TORSDOF 7
ENDMDL
MODEL 2
REMARK VINA RESULT:      -7.1      2.415      6.633
REMARK  Name = 
REMARK  9 active torsions:
REMARK  status: ('A' for Active; 'I' for Inactive)
REMARK    1  A    between atoms: C_1  and  C_2
REMARK    2  A    between atoms: C_2  and  N_3
REMARK    3  A    between atoms: C_4  and  C_5
REMARK    4  A    between atoms: C_4  and  C_7
REMARK    5  A    between atoms: C_7  and  C_9
REMARK    6  A    between atoms: C_9  and  S_10
REMARK    7  A    between atoms: S_10  and  C_11
REMARK    8  A    between atoms: N_21  and  C_22
REMARK    9  A    between atoms: C_27  and  C_28
REMARK                            x       y       z     vdW  Elec       q    Type
REMARK                         _______ _______ _______ _____ _____    ______ ____
ROOT
ATOM      1  C   UNL     1       4.608   5.227  18.697  0.00  0.00    +0.000 A 
ATOM      2  N   UNL     1       3.908   5.633  19.708  0.00  0.00    +0.000 NA
ATOM      3  C   UNL     1       3.043   6.715  19.536  0.00  0.00    +0.000 A 
ATOM      4  C   UNL     1       2.194   7.067  20.591  0.00  0.00    +0.000 A 
ATOM      5  C   UNL     1       1.302   8.133  20.458  0.00  0.00    +0.000 A 
ATOM      6  C   UNL     1       1.254   8.859  19.269  0.00  0.00    +0.000 A 
ATOM      7  C   UNL     1       2.087   8.506  18.206  0.00  0.00    +0.000 A 
ATOM      8  C   UNL     1       2.970   7.427  18.344  0.00  0.00    +0.000 A 
ATOM      9  C   UNL     1       3.828   6.990  17.224  0.00  0.00    +0.000 A 
ATOM     10  O   UNL     1       3.788   7.626  16.172  0.00  0.00    +0.000 OA
ATOM     11  N   UNL     1       4.621   5.864  17.462  0.00  0.00    +0.000 N 
ENDROOT
BRANCH  11  12
ATOM     12  C   UNL     1       5.457   5.430  16.395  0.00  0.00    +0.000 A 
ATOM     13  C   UNL     1       4.923   4.559  15.435  0.00  0.00    +0.000 A 
ATOM     14  C   UNL     1       5.722   4.089  14.391  0.00  0.00    +0.000 A 
ATOM     15  C   UNL     1       7.050   4.496  14.297  0.00  0.00    +0.000 A 
ATOM     16  C   UNL     1       7.583   5.376  15.242  0.00  0.00    +0.000 A 
ATOM     17  C   UNL     1       6.800   5.848  16.306  0.00  0.00    +0.000 A 
ATOM     18  C   UNL     1       7.409   6.791  17.306  0.00  0.00    +0.000 C 
ENDBRANCH  11  12
BRANCH   1  19
ATOM     19  S   UNL     1       5.572   3.766  18.905  0.00  0.00    +0.000 S 
BRANCH  19  20
ATOM     20  C   UNL     1       4.478   2.734  19.913  0.00  0.00    +0.000 C 
BRANCH  20  21
ATOM     21  C   UNL     1       3.264   2.216  19.153  0.00  0.00    +0.000 C 
ATOM     22  O   UNL     1       3.300   1.130  18.573  0.00  0.00    +0.000 OA
BRANCH  21  25
ATOM     23  C   UNL     1       1.679   2.502  21.678  0.00  0.00    +0.000 C 
ATOM     24  C   UNL     1       1.291   3.196  20.383  0.00  0.00    +0.000 C 
ATOM     25  C   UNL     1       1.988   3.027  19.225  0.00  0.00    +0.000 C 
BRANCH  24  26
ATOM     26  N   UNL     1       0.183   4.027  20.513  0.00  0.00    +0.000 N 
ATOM     27  H   UNL     1      -0.626   3.782  19.945  0.00  0.00    +0.000 HD
ATOM     28  H   UNL     1       0.339   5.032  20.575  0.00  0.00    +0.000 HD
ENDBRANCH  24  26
BRANCH  25  29
ATOM     29  C   UNL     1       1.489   3.758  17.989  0.00  0.00    +0.000 C 
ATOM     30  N   UNL     1       1.075   4.364  16.964  0.00  0.00    +0.000 NA
ENDBRANCH  25  29
ENDBRANCH  21  25
ENDBRANCH  20  21
ENDBRANCH  19  20
ENDBRANCH   1  19
TORSDOF 7
ENDMDL
MODEL 3
REMARK VINA RESULT:      -7.0      1.082      1.262
REMARK  Name = 
REMARK  9 active torsions:
REMARK  status: ('A' for Active; 'I' for Inactive)
REMARK    1  A    between atoms: C_1  and  C_2
REMARK    2  A    between atoms: C_2  and  N_3
REMARK    3  A    between atoms: C_4  and  C_5
REMARK    4  A    between atoms: C_4  and  C_7
REMARK    5  A    between atoms: C_7  and  C_9
REMARK    6  A    between atoms: C_9  and  S_10
REMARK    7  A    between atoms: S_10  and  C_11
REMARK    8  A    between atoms: N_21  and  C_22
REMARK    9  A    between atoms: C_27  and  C_28
REMARK                            x       y       z     vdW  Elec       q    Type
REMARK                         _______ _______ _______ _____ _____    ______ ____
ROOT
ATOM      1  C   UNL     1       3.514   5.940  18.160  0.00  0.00    +0.000 A 
ATOM      2  N   UNL     1       4.272   6.493  17.268  0.00  0.00    +0.000 NA
ATOM      3  C   UNL     1       4.998   5.675  16.401  0.00  0.00    +0.000 A 
ATOM      4  C   UNL     1       5.713   6.272  15.357  0.00  0.00    +0.000 A 
ATOM      5  C   UNL     1       6.441   5.491  14.457  0.00  0.00    +0.000 A 
ATOM      6  C   UNL     1       6.464   4.104  14.597  0.00  0.00    +0.000 A 
ATOM      7  C   UNL     1       5.742   3.498  15.627  0.00  0.00    +0.000 A 
ATOM      8  C   UNL     1       5.005   4.289  16.517  0.00  0.00    +0.000 A 
ATOM      9  C   UNL     1       4.186   3.680  17.585  0.00  0.00    +0.000 A 
ATOM     10  O   UNL     1       4.200   2.458  17.711  0.00  0.00    +0.000 OA
ATOM     11  N   UNL     1       3.445   4.569  18.371  0.00  0.00    +0.000 N 
ENDROOT
BRANCH  11  12
ATOM     12  C   UNL     1       2.652   4.000  19.408  0.00  0.00    +0.000 A 
ATOM     13  C   UNL     1       3.204   3.890  20.692  0.00  0.00    +0.000 A 
ATOM     14  C   UNL     1       2.468   3.311  21.726  0.00  0.00    +0.000 A 
ATOM     15  C   UNL     1       1.176   2.852  21.483  0.00  0.00    +0.000 A 
ATOM     16  C   UNL     1       0.614   2.973  20.210  0.00  0.00    +0.000 A 
ATOM     17  C   UNL     1       1.345   3.539  19.155  0.00  0.00    +0.000 A 
ATOM     18  C   UNL     1       0.710   3.650  17.797  0.00  0.00    +0.000 C 
ENDBRANCH  11  12
BRANCH   1  19
ATOM     19  S   UNL     1       2.494   6.998  19.134  0.00  0.00    +0.000 S 
BRANCH  19  20
ATOM     20  C   UNL     1       2.455   8.508  18.135  0.00  0.00    +0.000 C 
BRANCH  20  21
ATOM     21  C   UNL     1       1.162   9.298  18.282  0.00  0.00    +0.000 C 
ATOM     22  O   UNL     1       0.286   9.241  17.417  0.00  0.00    +0.000 OA
BRANCH  21  25
ATOM     23  C   UNL     1       1.924  12.178  18.581  0.00  0.00    +0.000 C 
ATOM     24  C   UNL     1       1.249  11.390  19.690  0.00  0.00    +0.000 C 
ATOM     25  C   UNL     1       0.946  10.067  19.568  0.00  0.00    +0.000 C 
BRANCH  24  26
ATOM     26  N   UNL     1       0.958  12.156  20.814  0.00  0.00    +0.000 N 
ATOM     27  H   UNL     1       1.071  11.690  21.712  0.00  0.00    +0.000 HD
ATOM     28  H   UNL     1       0.147  12.771  20.781  0.00  0.00    +0.000 HD
ENDBRANCH  24  26
BRANCH  25  29
ATOM     29  C   UNL     1       0.293   9.381  20.756  0.00  0.00    +0.000 C 
ATOM     30  N   UNL     1      -0.249   8.811  21.742  0.00  0.00    +0.000 NA
ENDBRANCH  25  29
ENDBRANCH  21  25
ENDBRANCH  20  21
ENDBRANCH  19  20
ENDBRANCH   1  19
TORSDOF 7
ENDMDL
MODEL 4
REMARK VINA RESULT:      -7.0      0.626      1.575
REMARK  Name = 
REMARK  9 active torsions:
REMARK  status: ('A' for Active; 'I' for Inactive)
REMARK    1  A    between atoms: C_1  and  C_2
REMARK    2  A    between atoms: C_2  and  N_3
REMARK    3  A    between atoms: C_4  and  C_5
REMARK    4  A    between atoms: C_4  and  C_7
REMARK    5  A    between atoms: C_7  and  C_9
REMARK    6  A    between atoms: C_9  and  S_10
REMARK    7  A    between atoms: S_10  and  C_11
REMARK    8  A    between atoms: N_21  and  C_22
REMARK    9  A    between atoms: C_27  and  C_28
REMARK                            x       y       z     vdW  Elec       q    Type
REMARK                         _______ _______ _______ _____ _____    ______ ____
ROOT
ATOM      1  C   UNL     1       3.648   5.969  18.139  0.00  0.00    +0.000 A 
ATOM      2  N   UNL     1       4.436   6.503  17.261  0.00  0.00    +0.000 NA
ATOM      3  C   UNL     1       5.131   5.669  16.384  0.00  0.00    +0.000 A 
ATOM      4  C   UNL     1       5.877   6.251  15.355  0.00  0.00    +0.000 A 
ATOM      5  C   UNL     1       6.576   5.454  14.446  0.00  0.00    +0.000 A 
ATOM      6  C   UNL     1       6.537   4.066  14.561  0.00  0.00    +0.000 A 
ATOM      7  C   UNL     1       5.782   3.475  15.576  0.00  0.00    +0.000 A 
ATOM      8  C   UNL     1       5.075   4.282  16.476  0.00  0.00    +0.000 A 
ATOM      9  C   UNL     1       4.223   3.692  17.529  0.00  0.00    +0.000 A 
ATOM     10  O   UNL     1       4.183   2.468  17.633  0.00  0.00    +0.000 OA
ATOM     11  N   UNL     1       3.518   4.599  18.326  0.00  0.00    +0.000 N 
ENDROOT
BRANCH  11  12
ATOM     12  C   UNL     1       2.694   4.049  19.349  0.00  0.00    +0.000 A 
ATOM     13  C   UNL     1       3.228   3.906  20.637  0.00  0.00    +0.000 A 
ATOM     14  C   UNL     1       2.460   3.343  21.657  0.00  0.00    +0.000 A 
ATOM     15  C   UNL     1       1.155   2.933  21.396  0.00  0.00    +0.000 A 
ATOM     16  C   UNL     1       0.612   3.086  20.118  0.00  0.00    +0.000 A 
ATOM     17  C   UNL     1       1.374   3.637  19.077  0.00  0.00    +0.000 A 
ATOM     18  C   UNL     1       0.758   3.784  17.714  0.00  0.00    +0.000 C 
ENDBRANCH  11  12
BRANCH   1  19
ATOM     19  S   UNL     1       2.670   7.054  19.126  0.00  0.00    +0.000 S 
BRANCH  19  20
ATOM     20  C   UNL     1       1.572   7.798  17.892  0.00  0.00    +0.000 C 
BRANCH  20  21
ATOM     21  C   UNL     1       1.450   9.310  18.023  0.00  0.00    +0.000 C 
ATOM     22  O   UNL     1       2.354  10.052  17.637  0.00  0.00    +0.000 OA
BRANCH  21  25
ATOM     23  C   UNL     1       1.092  10.183  20.865  0.00  0.00    +0.000 C 
ATOM     24  C   UNL     1      -0.007  10.311  19.824  0.00  0.00    +0.000 C 
ATOM     25  C   UNL     1       0.143   9.870  18.544  0.00  0.00    +0.000 C 
BRANCH  24  26
ATOM     26  N   UNL     1      -1.153  10.937  20.304  0.00  0.00    +0.000 N 
ATOM     27  H   UNL     1      -2.039  10.529  20.012  0.00  0.00    +0.000 HD
ATOM     28  H   UNL     1      -1.170  11.955  20.331  0.00  0.00    +0.000 HD
ENDBRANCH  24  26
BRANCH  25  29
ATOM     29  C   UNL     1      -1.037  10.032  17.599  0.00  0.00    +0.000 C 
ATOM     30  N   UNL     1      -2.016  10.166  16.816  0.00  0.00    +0.000 NA
ENDBRANCH  25  29
ENDBRANCH  21  25
ENDBRANCH  20  21
ENDBRANCH  19  20
ENDBRANCH   1  19
TORSDOF 7
ENDMDL
MODEL 5
REMARK VINA RESULT:      -7.0      1.218      1.556
REMARK  Name = 
REMARK  9 active torsions:
REMARK  status: ('A' for Active; 'I' for Inactive)
REMARK    1  A    between atoms: C_1  and  C_2
REMARK    2  A    between atoms: C_2  and  N_3
REMARK    3  A    between atoms: C_4  and  C_5
REMARK    4  A    between atoms: C_4  and  C_7
REMARK    5  A    between atoms: C_7  and  C_9
REMARK    6  A    between atoms: C_9  and  S_10
REMARK    7  A    between atoms: S_10  and  C_11
REMARK    8  A    between atoms: N_21  and  C_22
REMARK    9  A    between atoms: C_27  and  C_28
REMARK                            x       y       z     vdW  Elec       q    Type
REMARK                         _______ _______ _______ _____ _____    ______ ____
ROOT
ATOM      1  C   UNL     1       3.565   5.983  18.023  0.00  0.00    +0.000 A 
ATOM      2  N   UNL     1       4.337   6.500  17.122  0.00  0.00    +0.000 NA
ATOM      3  C   UNL     1       5.056   5.647  16.282  0.00  0.00    +0.000 A 
ATOM      4  C   UNL     1       5.786   6.205  15.227  0.00  0.00    +0.000 A 
ATOM      5  C   UNL     1       6.507   5.389  14.353  0.00  0.00    +0.000 A 
ATOM      6  C   UNL     1       6.507   4.006  14.530  0.00  0.00    +0.000 A 
ATOM      7  C   UNL     1       5.769   3.439  15.571  0.00  0.00    +0.000 A 
ATOM      8  C   UNL     1       5.039   4.265  16.435  0.00  0.00    +0.000 A 
ATOM      9  C   UNL     1       4.204   3.698  17.514  0.00  0.00    +0.000 A 
ATOM     10  O   UNL     1       4.199   2.479  17.672  0.00  0.00    +0.000 OA
ATOM     11  N   UNL     1       3.473   4.619  18.270  0.00  0.00    +0.000 N 
ENDROOT
BRANCH  11  12
ATOM     12  C   UNL     1       2.665   4.092  19.317  0.00  0.00    +0.000 A 
ATOM     13  C   UNL     1       3.204   4.015  20.609  0.00  0.00    +0.000 A 
ATOM     14  C   UNL     1       2.453   3.476  21.653  0.00  0.00    +0.000 A 
ATOM     15  C   UNL     1       1.158   3.024  21.413  0.00  0.00    +0.000 A 
ATOM     16  C   UNL     1       0.609   3.111  20.132  0.00  0.00    +0.000 A 
ATOM     17  C   UNL     1       1.354   3.637  19.066  0.00  0.00    +0.000 A 
ATOM     18  C   UNL     1       0.733   3.713  17.700  0.00  0.00    +0.000 C 
ENDBRANCH  11  12
BRANCH   1  19
ATOM     19  S   UNL     1       2.556   7.083  18.962  0.00  0.00    +0.000 S 
BRANCH  19  20
ATOM     20  C   UNL     1       2.593   8.584  17.950  0.00  0.00    +0.000 C 
BRANCH  20  21
ATOM     21  C   UNL     1       1.309   9.399  18.028  0.00  0.00    +0.000 C 
ATOM     22  O   UNL     1       0.292   9.031  17.437  0.00  0.00    +0.000 OA
BRANCH  21  25
ATOM     23  C   UNL     1       0.042   9.364  20.741  0.00  0.00    +0.000 C 
ATOM     24  C   UNL     1       0.761  10.582  20.188  0.00  0.00    +0.000 C 
ATOM     25  C   UNL     1       1.296  10.610  18.935  0.00  0.00    +0.000 C 
BRANCH  24  26
ATOM     26  N   UNL     1       0.834  11.638  21.092  0.00  0.00    +0.000 N 
ATOM     27  H   UNL     1       1.036  11.384  22.057  0.00  0.00    +0.000 HD
ATOM     28  H   UNL     1       0.153  12.390  21.009  0.00  0.00    +0.000 HD
ENDBRANCH  24  26
BRANCH  25  29
ATOM     29  C   UNL     1       1.972  11.896  18.486  0.00  0.00    +0.000 C 
ATOM     30  N   UNL     1       2.532  12.963  18.114  0.00  0.00    +0.000 NA
ENDBRANCH  25  29
ENDBRANCH  21  25
ENDBRANCH  20  21
ENDBRANCH  19  20
ENDBRANCH   1  19
TORSDOF 7
ENDMDL
MODEL 6
REMARK VINA RESULT:      -6.9      2.401      6.835
REMARK  Name = 
REMARK  9 active torsions:
REMARK  status: ('A' for Active; 'I' for Inactive)
REMARK    1  A    between atoms: C_1  and  C_2
REMARK    2  A    between atoms: C_2  and  N_3
REMARK    3  A    between atoms: C_4  and  C_5
REMARK    4  A    between atoms: C_4  and  C_7
REMARK    5  A    between atoms: C_7  and  C_9
REMARK    6  A    between atoms: C_9  and  S_10
REMARK    7  A    between atoms: S_10  and  C_11
REMARK    8  A    between atoms: N_21  and  C_22
REMARK    9  A    between atoms: C_27  and  C_28
REMARK                            x       y       z     vdW  Elec       q    Type
REMARK                         _______ _______ _______ _____ _____    ______ ____
ROOT
ATOM      1  C   UNL     1       4.393   5.436  18.568  0.00  0.00    +0.000 A 
ATOM      2  N   UNL     1       3.666   5.884  19.541  0.00  0.00    +0.000 NA
ATOM      3  C   UNL     1       2.868   7.008  19.322  0.00  0.00    +0.000 A 
ATOM      4  C   UNL     1       1.987   7.411  20.331  0.00  0.00    +0.000 A 
ATOM      5  C   UNL     1       1.159   8.521  20.149  0.00  0.00    +0.000 A 
ATOM      6  C   UNL     1       1.208   9.240  18.956  0.00  0.00    +0.000 A 
ATOM      7  C   UNL     1       2.074   8.836  17.937  0.00  0.00    +0.000 A 
ATOM      8  C   UNL     1       2.891   7.715  18.124  0.00  0.00    +0.000 A 
ATOM      9  C   UNL     1       3.780   7.226  17.050  0.00  0.00    +0.000 A 
ATOM     10  O   UNL     1       3.825   7.855  15.994  0.00  0.00    +0.000 OA
ATOM     11  N   UNL     1       4.500   6.061  17.332  0.00  0.00    +0.000 N 
ENDROOT
BRANCH  11  12
ATOM     12  C   UNL     1       5.364   5.577  16.310  0.00  0.00    +0.000 A 
ATOM     13  C   UNL     1       4.828   4.748  15.315  0.00  0.00    +0.000 A 
ATOM     14  C   UNL     1       5.651   4.230  14.313  0.00  0.00    +0.000 A 
ATOM     15  C   UNL     1       7.007   4.548  14.297  0.00  0.00    +0.000 A 
ATOM     16  C   UNL     1       7.544   5.386  15.277  0.00  0.00    +0.000 A 
ATOM     17  C   UNL     1       6.735   5.905  16.299  0.00  0.00    +0.000 A 
ATOM     18  C   UNL     1       7.348   6.801  17.339  0.00  0.00    +0.000 C 
ENDBRANCH  11  12
BRANCH   1  19
ATOM     19  S   UNL     1       5.268   3.927  18.830  0.00  0.00    +0.000 S 
BRANCH  19  20
ATOM     20  C   UNL     1       4.238   2.735  17.938  0.00  0.00    +0.000 C 
BRANCH  20  21
ATOM     21  C   UNL     1       2.966   2.356  18.684  0.00  0.00    +0.000 C 
ATOM     22  O   UNL     1       1.984   1.925  18.077  0.00  0.00    +0.000 OA
BRANCH  21  25
ATOM     23  C   UNL     1       0.760   3.622  20.265  0.00  0.00    +0.000 C 
ATOM     24  C   UNL     1       1.962   2.961  20.918  0.00  0.00    +0.000 C 
ATOM     25  C   UNL     1       2.986   2.427  20.196  0.00  0.00    +0.000 C 
BRANCH  24  26
ATOM     26  N   UNL     1       1.892   2.938  22.307  0.00  0.00    +0.000 N 
ATOM     27  H   UNL     1       2.734   2.632  22.790  0.00  0.00    +0.000 HD
ATOM     28  H   UNL     1       1.036   2.597  22.741  0.00  0.00    +0.000 HD
ENDBRANCH  24  26
BRANCH  25  29
ATOM     29  C   UNL     1       4.145   1.812  20.964  0.00  0.00    +0.000 C 
ATOM     30  N   UNL     1       5.106   1.302  21.601  0.00  0.00    +0.000 NA
ENDBRANCH  25  29
ENDBRANCH  21  25
ENDBRANCH  20  21
ENDBRANCH  19  20
ENDBRANCH   1  19
TORSDOF 7
ENDMDL
MODEL 7
REMARK VINA RESULT:      -6.8      2.769      6.027
REMARK  Name = 
REMARK  9 active torsions:
REMARK  status: ('A' for Active; 'I' for Inactive)
REMARK    1  A    between atoms: C_1  and  C_2
REMARK    2  A    between atoms: C_2  and  N_3
REMARK    3  A    between atoms: C_4  and  C_5
REMARK    4  A    between atoms: C_4  and  C_7
REMARK    5  A    between atoms: C_7  and  C_9
REMARK    6  A    between atoms: C_9  and  S_10
REMARK    7  A    between atoms: S_10  and  C_11
REMARK    8  A    between atoms: N_21  and  C_22
REMARK    9  A    between atoms: C_27  and  C_28
REMARK                            x       y       z     vdW  Elec       q    Type
REMARK                         _______ _______ _______ _____ _____    ______ ____
ROOT
ATOM      1  C   UNL     1       3.219   6.139  17.773  0.00  0.00    +0.000 A 
ATOM      2  N   UNL     1       2.911   7.358  17.465  0.00  0.00    +0.000 NA
ATOM      3  C   UNL     1       2.240   8.141  18.407  0.00  0.00    +0.000 A 
ATOM      4  C   UNL     1       2.026   9.493  18.122  0.00  0.00    +0.000 A 
ATOM      5  C   UNL     1       1.372  10.317  19.041  0.00  0.00    +0.000 A 
ATOM      6  C   UNL     1       0.924   9.793  20.253  0.00  0.00    +0.000 A 
ATOM      7  C   UNL     1       1.146   8.447  20.551  0.00  0.00    +0.000 A 
ATOM      8  C   UNL     1       1.813   7.632  19.629  0.00  0.00    +0.000 A 
ATOM      9  C   UNL     1       2.114   6.218  19.932  0.00  0.00    +0.000 A 
ATOM     10  O   UNL     1       1.723   5.752  21.000  0.00  0.00    +0.000 OA
ATOM     11  N   UNL     1       2.840   5.523  18.960  0.00  0.00    +0.000 N 
ENDROOT
BRANCH  11  12
ATOM     12  C   UNL     1       3.137   4.158  19.233  0.00  0.00    +0.000 A 
ATOM     13  C   UNL     1       4.323   3.852  19.915  0.00  0.00    +0.000 A 
ATOM     14  C   UNL     1       4.662   2.523  20.174  0.00  0.00    +0.000 A 
ATOM     15  C   UNL     1       3.812   1.499  19.764  0.00  0.00    +0.000 A 
ATOM     16  C   UNL     1       2.621   1.798  19.098  0.00  0.00    +0.000 A 
ATOM     17  C   UNL     1       2.271   3.127  18.816  0.00  0.00    +0.000 A 
ATOM     18  C   UNL     1       0.984   3.412  18.095  0.00  0.00    +0.000 C 
ENDBRANCH  11  12
BRANCH   1  19
ATOM     19  S   UNL     1       4.200   5.230  16.625  0.00  0.00    +0.000 S 
BRANCH  19  20
ATOM     20  C   UNL     1       5.252   6.524  15.921  0.00  0.00    +0.000 C 
BRANCH  20  21
ATOM     21  C   UNL     1       6.740   6.274  16.126  0.00  0.00    +0.000 C 
ATOM     22  O   UNL     1       7.432   5.810  15.218  0.00  0.00    +0.000 OA
BRANCH  21  25
ATOM     23  C   UNL     1       7.337   4.349  18.341  0.00  0.00    +0.000 C 
ATOM     24  C   UNL     1       7.670   5.829  18.429  0.00  0.00    +0.000 C 
ATOM     25  C   UNL     1       7.355   6.710  17.438  0.00  0.00    +0.000 C 
BRANCH  24  26
ATOM     26  N   UNL     1       8.342   6.175  19.597  0.00  0.00    +0.000 N 
ATOM     27  H   UNL     1       9.207   5.670  19.780  0.00  0.00    +0.000 HD
ATOM     28  H   UNL     1       7.791   6.343  20.437  0.00  0.00    +0.000 HD
ENDBRANCH  24  26
BRANCH  25  29
ATOM     29  C   UNL     1       7.720   8.170  17.652  0.00  0.00    +0.000 C 
ATOM     30  N   UNL     1       8.022   9.381  17.829  0.00  0.00    +0.000 NA
ENDBRANCH  25  29
ENDBRANCH  21  25
ENDBRANCH  20  21
ENDBRANCH  19  20
ENDBRANCH   1  19
TORSDOF 7
ENDMDL
MODEL 8
REMARK VINA RESULT:      -6.8      1.386      4.646
REMARK  Name = 
REMARK  9 active torsions:
REMARK  status: ('A' for Active; 'I' for Inactive)
REMARK    1  A    between atoms: C_1  and  C_2
REMARK    2  A    between atoms: C_2  and  N_3
REMARK    3  A    between atoms: C_4  and  C_5
REMARK    4  A    between atoms: C_4  and  C_7
REMARK    5  A    between atoms: C_7  and  C_9
REMARK    6  A    between atoms: C_9  and  S_10
REMARK    7  A    between atoms: S_10  and  C_11
REMARK    8  A    between atoms: N_21  and  C_22
REMARK    9  A    between atoms: C_27  and  C_28
REMARK                            x       y       z     vdW  Elec       q    Type
REMARK                         _______ _______ _______ _____ _____    ______ ____
ROOT
ATOM      1  C   UNL     1       3.162   5.945  18.596  0.00  0.00    +0.000 A 
ATOM      2  N   UNL     1       2.107   5.539  19.226  0.00  0.00    +0.000 NA
ATOM      3  C   UNL     1       2.190   4.380  19.999  0.00  0.00    +0.000 A 
ATOM      4  C   UNL     1       1.089   4.016  20.781  0.00  0.00    +0.000 A 
ATOM      5  C   UNL     1       1.133   2.873  21.582  0.00  0.00    +0.000 A 
ATOM      6  C   UNL     1       2.280   2.081  21.604  0.00  0.00    +0.000 A 
ATOM      7  C   UNL     1       3.389   2.444  20.838  0.00  0.00    +0.000 A 
ATOM      8  C   UNL     1       3.340   3.599  20.048  0.00  0.00    +0.000 A 
ATOM      9  C   UNL     1       4.512   4.044  19.266  0.00  0.00    +0.000 A 
ATOM     10  O   UNL     1       5.526   3.350  19.285  0.00  0.00    +0.000 OA
ATOM     11  N   UNL     1       4.361   5.245  18.567  0.00  0.00    +0.000 N 
ENDROOT
BRANCH  11  12
ATOM     12  C   UNL     1       5.480   5.688  17.805  0.00  0.00    +0.000 A 
ATOM     13  C   UNL     1       6.368   6.603  18.387  0.00  0.00    +0.000 A 
ATOM     14  C   UNL     1       7.459   7.083  17.660  0.00  0.00    +0.000 A 
ATOM     15  C   UNL     1       7.670   6.641  16.356  0.00  0.00    +0.000 A 
ATOM     16  C   UNL     1       6.797   5.718  15.776  0.00  0.00    +0.000 A 
ATOM     17  C   UNL     1       5.688   5.236  16.486  0.00  0.00    +0.000 A 
ATOM     18  C   UNL     1       4.767   4.246  15.829  0.00  0.00    +0.000 C 
ENDBRANCH  11  12
BRANCH   1  19
ATOM     19  S   UNL     1       3.066   7.493  17.755  0.00  0.00    +0.000 S 
BRANCH  19  20
ATOM     20  C   UNL     1       1.867   8.396  18.767  0.00  0.00    +0.000 C 
BRANCH  20  21
ATOM     21  C   UNL     1       1.632   9.825  18.297  0.00  0.00    +0.000 C 
ATOM     22  O   UNL     1       2.207  10.263  17.299  0.00  0.00    +0.000 OA
BRANCH  21  25
ATOM     23  C   UNL     1      -1.242   9.908  17.463  0.00  0.00    +0.000 C 
ATOM     24  C   UNL     1      -0.721  10.651  18.681  0.00  0.00    +0.000 C 
ATOM     25  C   UNL     1       0.596  10.649  19.031  0.00  0.00    +0.000 C 
BRANCH  24  26
ATOM     26  N   UNL     1      -1.719  11.301  19.400  0.00  0.00    +0.000 N 
ATOM     27  H   UNL     1      -2.667  10.964  19.250  0.00  0.00    +0.000 HD
ATOM     28  H   UNL     1      -1.664  12.314  19.493  0.00  0.00    +0.000 HD
ENDBRANCH  24  26
BRANCH  25  29
ATOM     29  C   UNL     1       1.000  11.449  20.259  0.00  0.00    +0.000 C 
ATOM     30  N   UNL     1       1.335  12.113  21.277  0.00  0.00    +0.000 NA
ENDBRANCH  25  29
ENDBRANCH  21  25
ENDBRANCH  20  21
ENDBRANCH  19  20
ENDBRANCH   1  19
TORSDOF 7
ENDMDL
MODEL 9
REMARK VINA RESULT:      -6.8      1.370      1.424
REMARK  Name = 
REMARK  9 active torsions:
REMARK  status: ('A' for Active; 'I' for Inactive)
REMARK    1  A    between atoms: C_1  and  C_2
REMARK    2  A    between atoms: C_2  and  N_3
REMARK    3  A    between atoms: C_4  and  C_5
REMARK    4  A    between atoms: C_4  and  C_7
REMARK    5  A    between atoms: C_7  and  C_9
REMARK    6  A    between atoms: C_9  and  S_10
REMARK    7  A    between atoms: S_10  and  C_11
REMARK    8  A    between atoms: N_21  and  C_22
REMARK    9  A    between atoms: C_27  and  C_28
REMARK                            x       y       z     vdW  Elec       q    Type
REMARK                         _______ _______ _______ _____ _____    ______ ____
ROOT
ATOM      1  C   UNL     1       3.356   5.980  18.498  0.00  0.00    +0.000 A 
ATOM      2  N   UNL     1       4.060   6.625  17.624  0.00  0.00    +0.000 NA
ATOM      3  C   UNL     1       4.766   5.901  16.662  0.00  0.00    +0.000 A 
ATOM      4  C   UNL     1       5.419   6.602  15.642  0.00  0.00    +0.000 A 
ATOM      5  C   UNL     1       6.124   5.918  14.649  0.00  0.00    +0.000 A 
ATOM      6  C   UNL     1       6.185   4.525  14.671  0.00  0.00    +0.000 A 
ATOM      7  C   UNL     1       5.525   3.817  15.677  0.00  0.00    +0.000 A 
ATOM      8  C   UNL     1       4.810   4.511  16.660  0.00  0.00    +0.000 A 
ATOM      9  C   UNL     1       4.054   3.795  17.708  0.00  0.00    +0.000 A 
ATOM     10  O   UNL     1       4.103   2.566  17.730  0.00  0.00    +0.000 OA
ATOM     11  N   UNL     1       3.328   4.595  18.596  0.00  0.00    +0.000 N 
ENDROOT
BRANCH  11  12
ATOM     12  C   UNL     1       2.596   3.922  19.615  0.00  0.00    +0.000 A 
ATOM     13  C   UNL     1       3.186   3.770  20.878  0.00  0.00    +0.000 A 
ATOM     14  C   UNL     1       2.510   3.090  21.892  0.00  0.00    +0.000 A 
ATOM     15  C   UNL     1       1.241   2.570  21.650  0.00  0.00    +0.000 A 
ATOM     16  C   UNL     1       0.642   2.730  20.399  0.00  0.00    +0.000 A 
ATOM     17  C   UNL     1       1.311   3.399  19.363  0.00  0.00    +0.000 A 
ATOM     18  C   UNL     1       0.637   3.550  18.029  0.00  0.00    +0.000 C 
ENDBRANCH  11  12
BRANCH   1  19
ATOM     19  S   UNL     1       2.355   6.926  19.599  0.00  0.00    +0.000 S 
BRANCH  19  20
ATOM     20  C   UNL     1       1.993   8.398  18.609  0.00  0.00    +0.000 C 
BRANCH  20  21
ATOM     21  C   UNL     1       1.200   9.456  19.364  0.00  0.00    +0.000 C 
ATOM     22  O   UNL     1       0.936   9.312  20.559  0.00  0.00    +0.000 OA
BRANCH  21  25
ATOM     23  C   UNL     1      -1.579  10.034  18.411  0.00  0.00    +0.000 C 
ATOM     24  C   UNL     1      -0.432  11.014  18.235  0.00  0.00    +0.000 C 
ATOM     25  C   UNL     1       0.841  10.729  18.628  0.00  0.00    +0.000 C 
BRANCH  24  26
ATOM     26  N   UNL     1      -0.820  12.221  17.663  0.00  0.00    +0.000 N 
ATOM     27  H   UNL     1      -1.319  12.864  18.275  0.00  0.00    +0.000 HD
ATOM     28  H   UNL     1      -1.185  12.208  16.712  0.00  0.00    +0.000 HD
ENDBRANCH  24  26
BRANCH  25  29
ATOM     29  C   UNL     1       1.909  11.782  18.378  0.00  0.00    +0.000 C 
ATOM     30  N   UNL     1       2.794  12.655  18.170  0.00  0.00    +0.000 NA
ENDBRANCH  25  29
ENDBRANCH  21  25
ENDBRANCH  20  21
ENDBRANCH  19  20
ENDBRANCH   1  19
TORSDOF 7
ENDMDL
