MODEL 1
REMARK VINA RESULT:      -8.3      0.000      0.000
REMARK  Name = 
REMARK  9 active torsions:
REMARK  status: ('A' for Active; 'I' for Inactive)
REMARK    1  A    between atoms: C_1  and  C_2
REMARK    2  A    between atoms: C_3  and  C_4
REMARK    3  A    between atoms: C_4  and  N_5
REMARK    4  A    between atoms: N_5  and  C_6
REMARK    5  A    between atoms: N_5  and  C_7
REMARK    6  A    between atoms: C_7  and  C_8
REMARK    7  A    between atoms: N_12  and  C_13
REMARK    8  A    between atoms: C_14  and  C_15
REMARK    9  A    between atoms: N_22  and  C_23
REMARK                            x       y       z     vdW  Elec       q    Type
REMARK                         _______ _______ _______ _____ _____    ______ ____
ROOT
ATOM      1  C   UNL     1       1.978   9.745  18.303  0.00  0.00    +0.000 C 
ATOM      2  C   UNL     1       1.746   8.534  19.141  0.00  0.00    +0.000 A 
ATOM      3  C   UNL     1       2.195   7.222  18.974  0.00  0.00    +0.000 A 
ATOM      4  C   UNL     1       1.681   6.520  20.117  0.00  0.00    +0.000 A 
ATOM      5  N   UNL     1       1.172   7.381  21.005  0.00  0.00    +0.000 NA
ATOM      6  N   UNL     1       1.119   8.578  20.380  0.00  0.00    +0.000 N 
ENDROOT
BRANCH   4   7
ATOM      7  C   UNL     1       1.680   5.078  20.409  0.00  0.00    +0.000 A 
ATOM      8  C   UNL     1       0.938   4.190  19.614  0.00  0.00    +0.000 A 
ATOM      9  C   UNL     1       0.967   2.812  19.858  0.00  0.00    +0.000 A 
ATOM     10  C   UNL     1       1.737   2.303  20.900  0.00  0.00    +0.000 A 
ATOM     11  C   UNL     1       2.490   3.166  21.689  0.00  0.00    +0.000 A 
ATOM     12  C   UNL     1       2.471   4.543  21.439  0.00  0.00    +0.000 A 
ENDBRANCH   4   7
BRANCH   6  13
ATOM     13  C   UNL     1       0.514   9.680  21.053  0.00  0.00    +0.000 A 
ATOM     14  C   UNL     1      -0.261   9.437  22.200  0.00  0.00    +0.000 A 
ATOM     15  C   UNL     1      -0.819  10.502  22.908  0.00  0.00    +0.000 A 
ATOM     16  C   UNL     1      -0.641  11.811  22.467  0.00  0.00    +0.000 A 
ATOM     17  C   UNL     1       0.084  12.056  21.302  0.00  0.00    +0.000 A 
ATOM     18  C   UNL     1       0.653  10.997  20.595  0.00  0.00    +0.000 A 
ENDBRANCH   6  13
BRANCH   3  19
ATOM     19  C   UNL     1       3.023   6.600  17.872  0.00  0.00    +0.000 C 
BRANCH  19  20
ATOM     20  N   UNL     1       4.251   5.936  18.355  0.00  0.00    +0.000 NA
ATOM     21  C   UNL     1       4.265   4.508  18.004  0.00  0.00    +0.000 C 
BRANCH  20  22
ATOM     22  C   UNL     1       5.457   6.570  17.772  0.00  0.00    +0.000 C 
BRANCH  22  23
ATOM     23  C   UNL     1       5.959   5.907  16.530  0.00  0.00    +0.000 A 
ATOM     24  N   UNL     1       5.506   6.109  15.308  0.00  0.00    +0.000 NA
ATOM     25  N   UNL     1       6.250   5.345  14.440  0.00  0.00    +0.000 NA
ATOM     26  C   UNL     1       7.140   4.693  15.151  0.00  0.00    +0.000 A 
ATOM     27  N   UNL     1       6.982   4.995  16.467  0.00  0.00    +0.000 N 
ATOM     28  C   UNL     1       7.760   4.468  17.553  0.00  0.00    +0.000 C 
ENDBRANCH  22  23
ENDBRANCH  20  22
ENDBRANCH  19  20
ENDBRANCH   3  19
TORSDOF 6
ENDMDL
MODEL 2
REMARK VINA RESULT:      -8.2      0.124      1.295
REMARK  Name = 
REMARK  9 active torsions:
REMARK  status: ('A' for Active; 'I' for Inactive)
REMARK    1  A    between atoms: C_1  and  C_2
REMARK    2  A    between atoms: C_3  and  C_4
REMARK    3  A    between atoms: C_4  and  N_5
REMARK    4  A    between atoms: N_5  and  C_6
REMARK    5  A    between atoms: N_5  and  C_7
REMARK    6  A    between atoms: C_7  and  C_8
REMARK    7  A    between atoms: N_12  and  C_13
REMARK    8  A    between atoms: C_14  and  C_15
REMARK    9  A    between atoms: N_22  and  C_23
REMARK                            x       y       z     vdW  Elec       q    Type
REMARK                         _______ _______ _______ _____ _____    ______ ____
ROOT
ATOM      1  C   UNL     1       1.828   9.821  18.415  0.00  0.00    +0.000 C 
ATOM      2  C   UNL     1       1.655   8.580  19.222  0.00  0.00    +0.000 A 
ATOM      3  C   UNL     1       2.128   7.285  18.998  0.00  0.00    +0.000 A 
ATOM      4  C   UNL     1       1.673   6.536  20.135  0.00  0.00    +0.000 A 
ATOM      5  N   UNL     1       1.178   7.356  21.068  0.00  0.00    +0.000 NA
ATOM      6  N   UNL     1       1.073   8.570  20.484  0.00  0.00    +0.000 N 
ENDROOT
BRANCH   4   7
ATOM      7  C   UNL     1       1.717   5.086  20.382  0.00  0.00    +0.000 A 
ATOM      8  C   UNL     1       2.472   4.567  21.445  0.00  0.00    +0.000 A 
ATOM      9  C   UNL     1       2.485   3.193  21.713  0.00  0.00    +0.000 A 
ATOM     10  C   UNL     1       1.745   2.319  20.921  0.00  0.00    +0.000 A 
ATOM     11  C   UNL     1       0.980   2.817  19.871  0.00  0.00    +0.000 A 
ATOM     12  C   UNL     1       0.957   4.192  19.610  0.00  0.00    +0.000 A 
ENDBRANCH   4   7
BRANCH   6  13
ATOM     13  C   UNL     1       0.468   9.636  21.212  0.00  0.00    +0.000 A 
ATOM     14  C   UNL     1       0.657  10.957  20.772  0.00  0.00    +0.000 A 
ATOM     15  C   UNL     1       0.031  12.014  21.434  0.00  0.00    +0.000 A 
ATOM     16  C   UNL     1      -0.761  11.773  22.554  0.00  0.00    +0.000 A 
ATOM     17  C   UNL     1      -0.913  10.470  23.026  0.00  0.00    +0.000 A 
ATOM     18  C   UNL     1      -0.298   9.408  22.364  0.00  0.00    +0.000 A 
ENDBRANCH   6  13
BRANCH   3  19
ATOM     19  C   UNL     1       2.929   6.718  17.847  0.00  0.00    +0.000 C 
BRANCH  19  20
ATOM     20  N   UNL     1       4.125   5.961  18.272  0.00  0.00    +0.000 NA
ATOM     21  C   UNL     1       4.083   4.573  17.790  0.00  0.00    +0.000 C 
BRANCH  20  22
ATOM     22  C   UNL     1       5.360   6.596  17.757  0.00  0.00    +0.000 C 
BRANCH  22  23
ATOM     23  C   UNL     1       5.909   5.957  16.523  0.00  0.00    +0.000 A 
ATOM     24  N   UNL     1       5.489   6.167  15.290  0.00  0.00    +0.000 NA
ATOM     25  N   UNL     1       6.270   5.426  14.435  0.00  0.00    +0.000 NA
ATOM     26  C   UNL     1       7.150   4.780  15.164  0.00  0.00    +0.000 A 
ATOM     27  N   UNL     1       6.948   5.062  16.478  0.00  0.00    +0.000 N 
ATOM     28  C   UNL     1       7.704   4.534  17.580  0.00  0.00    +0.000 C 
ENDBRANCH  22  23
ENDBRANCH  20  22
ENDBRANCH  19  20
ENDBRANCH   3  19
TORSDOF 6
ENDMDL
MODEL 3
REMARK VINA RESULT:      -8.0      1.472      1.949
REMARK  Name = 
REMARK  9 active torsions:
REMARK  status: ('A' for Active; 'I' for Inactive)
REMARK    1  A    between atoms: C_1  and  C_2
REMARK    2  A    between atoms: C_3  and  C_4
REMARK    3  A    between atoms: C_4  and  N_5
REMARK    4  A    between atoms: N_5  and  C_6
REMARK    5  A    between atoms: N_5  and  C_7
REMARK    6  A    between atoms: C_7  and  C_8
REMARK    7  A    between atoms: N_12  and  C_13
REMARK    8  A    between atoms: C_14  and  C_15
REMARK    9  A    between atoms: N_22  and  C_23
REMARK                            x       y       z     vdW  Elec       q    Type
REMARK                         _______ _______ _______ _____ _____    ______ ____
ROOT
ATOM      1  C   UNL     1       2.466   9.386  17.845  0.00  0.00    +0.000 C 
ATOM      2  C   UNL     1       2.146   8.230  18.729  0.00  0.00    +0.000 A 
ATOM      3  C   UNL     1       2.545   6.894  18.648  0.00  0.00    +0.000 A 
ATOM      4  C   UNL     1       1.952   6.272  19.798  0.00  0.00    +0.000 A 
ATOM      5  N   UNL     1       1.442   7.196  20.619  0.00  0.00    +0.000 NA
ATOM      6  N   UNL     1       1.467   8.361  19.935  0.00  0.00    +0.000 N 
ENDROOT
BRANCH   4   7
ATOM      7  C   UNL     1       1.877   4.847  20.161  0.00  0.00    +0.000 A 
ATOM      8  C   UNL     1       2.386   4.397  21.389  0.00  0.00    +0.000 A 
ATOM      9  C   UNL     1       2.281   3.052  21.760  0.00  0.00    +0.000 A 
ATOM     10  C   UNL     1       1.666   2.138  20.909  0.00  0.00    +0.000 A 
ATOM     11  C   UNL     1       1.143   2.569  19.694  0.00  0.00    +0.000 A 
ATOM     12  C   UNL     1       1.238   3.916  19.327  0.00  0.00    +0.000 A 
ENDBRANCH   4   7
BRANCH   6  13
ATOM     13  C   UNL     1       0.880   9.520  20.524  0.00  0.00    +0.000 A 
ATOM     14  C   UNL     1       0.237   9.401  21.767  0.00  0.00    +0.000 A 
ATOM     15  C   UNL     1      -0.298  10.529  22.391  0.00  0.00    +0.000 A 
ATOM     16  C   UNL     1      -0.227  11.775  21.773  0.00  0.00    +0.000 A 
ATOM     17  C   UNL     1       0.365  11.892  20.517  0.00  0.00    +0.000 A 
ATOM     18  C   UNL     1       0.910  10.771  19.892  0.00  0.00    +0.000 A 
ENDBRANCH   6  13
BRANCH   3  19
ATOM     19  C   UNL     1       3.393   6.183  17.617  0.00  0.00    +0.000 C 
BRANCH  19  20
ATOM     20  N   UNL     1       4.725   5.783  18.117  0.00  0.00    +0.000 NA
ATOM     21  C   UNL     1       4.763   4.355  18.465  0.00  0.00    +0.000 C 
BRANCH  20  22
ATOM     22  C   UNL     1       5.769   6.042  17.098  0.00  0.00    +0.000 C 
BRANCH  22  23
ATOM     23  C   UNL     1       6.816   7.017  17.527  0.00  0.00    +0.000 A 
ATOM     24  N   UNL     1       6.971   8.242  17.062  0.00  0.00    +0.000 NA
ATOM     25  N   UNL     1       8.015   8.831  17.733  0.00  0.00    +0.000 NA
ATOM     26  C   UNL     1       8.476   7.955  18.595  0.00  0.00    +0.000 A 
ATOM     27  N   UNL     1       7.772   6.797  18.487  0.00  0.00    +0.000 N 
ATOM     28  C   UNL     1       7.991   5.602  19.253  0.00  0.00    +0.000 C 
ENDBRANCH  22  23
ENDBRANCH  20  22
ENDBRANCH  19  20
ENDBRANCH   3  19
TORSDOF 6
ENDMDL
MODEL 4
REMARK VINA RESULT:      -7.9      1.503      1.844
REMARK  Name = 
REMARK  9 active torsions:
REMARK  status: ('A' for Active; 'I' for Inactive)
REMARK    1  A    between atoms: C_1  and  C_2
REMARK    2  A    between atoms: C_3  and  C_4
REMARK    3  A    between atoms: C_4  and  N_5
REMARK    4  A    between atoms: N_5  and  C_6
REMARK    5  A    between atoms: N_5  and  C_7
REMARK    6  A    between atoms: C_7  and  C_8
REMARK    7  A    between atoms: N_12  and  C_13
REMARK    8  A    between atoms: C_14  and  C_15
REMARK    9  A    between atoms: N_22  and  C_23
REMARK                            x       y       z     vdW  Elec       q    Type
REMARK                         _______ _______ _______ _____ _____    ______ ____
ROOT
ATOM      1  C   UNL     1       2.901   8.850  17.351  0.00  0.00    +0.000 C 
ATOM      2  C   UNL     1       2.444   7.873  18.380  0.00  0.00    +0.000 A 
ATOM      3  C   UNL     1       2.732   6.514  18.524  0.00  0.00    +0.000 A 
ATOM      4  C   UNL     1       2.036   6.125  19.719  0.00  0.00    +0.000 A 
ATOM      5  N   UNL     1       1.570   7.202  20.360  0.00  0.00    +0.000 NA
ATOM      6  N   UNL     1       1.726   8.242  19.511  0.00  0.00    +0.000 N 
ENDROOT
BRANCH   4   7
ATOM      7  C   UNL     1       1.824   4.784  20.287  0.00  0.00    +0.000 A 
ATOM      8  C   UNL     1       1.059   3.831  19.597  0.00  0.00    +0.000 A 
ATOM      9  C   UNL     1       0.888   2.540  20.108  0.00  0.00    +0.000 A 
ATOM     10  C   UNL     1       1.480   2.183  21.317  0.00  0.00    +0.000 A 
ATOM     11  C   UNL     1       2.253   3.110  22.008  0.00  0.00    +0.000 A 
ATOM     12  C   UNL     1       2.434   4.398  21.492  0.00  0.00    +0.000 A 
ENDBRANCH   4   7
BRANCH   6  13
ATOM     13  C   UNL     1       1.213   9.519  19.883  0.00  0.00    +0.000 A 
ATOM     14  C   UNL     1       0.813   9.731  21.214  0.00  0.00    +0.000 A 
ATOM     15  C   UNL     1       0.359  10.988  21.618  0.00  0.00    +0.000 A 
ATOM     16  C   UNL     1       0.270  12.033  20.701  0.00  0.00    +0.000 A 
ATOM     17  C   UNL     1       0.619  11.816  19.369  0.00  0.00    +0.000 A 
ATOM     18  C   UNL     1       1.081  10.565  18.960  0.00  0.00    +0.000 A 
ENDBRANCH   6  13
BRANCH   3  19
ATOM     19  C   UNL     1       3.562   5.589  17.662  0.00  0.00    +0.000 C 
BRANCH  19  20
ATOM     20  N   UNL     1       4.815   5.143  18.306  0.00  0.00    +0.000 NA
ATOM     21  C   UNL     1       4.711   3.756  18.784  0.00  0.00    +0.000 C 
BRANCH  20  22
ATOM     22  C   UNL     1       5.951   5.224  17.359  0.00  0.00    +0.000 C 
BRANCH  22  23
ATOM     23  C   UNL     1       6.833   6.414  17.560  0.00  0.00    +0.000 A 
ATOM     24  N   UNL     1       6.842   7.504  16.817  0.00  0.00    +0.000 NA
ATOM     25  N   UNL     1       7.761   8.379  17.345  0.00  0.00    +0.000 NA
ATOM     26  C   UNL     1       8.293   7.805  18.399  0.00  0.00    +0.000 A 
ATOM     27  N   UNL     1       7.760   6.564  18.559  0.00  0.00    +0.000 N 
ATOM     28  C   UNL     1       8.101   5.627  19.593  0.00  0.00    +0.000 C 
ENDBRANCH  22  23
ENDBRANCH  20  22
ENDBRANCH  19  20
ENDBRANCH   3  19
TORSDOF 6
ENDMDL
MODEL 5
REMARK VINA RESULT:      -7.7      0.687      1.204
REMARK  Name = 
REMARK  9 active torsions:
REMARK  status: ('A' for Active; 'I' for Inactive)
REMARK    1  A    between atoms: C_1  and  C_2
REMARK    2  A    between atoms: C_3  and  C_4
REMARK    3  A    between atoms: C_4  and  N_5
REMARK    4  A    between atoms: N_5  and  C_6
REMARK    5  A    between atoms: N_5  and  C_7
REMARK    6  A    between atoms: C_7  and  C_8
REMARK    7  A    between atoms: N_12  and  C_13
REMARK    8  A    between atoms: C_14  and  C_15
REMARK    9  A    between atoms: N_22  and  C_23
REMARK                            x       y       z     vdW  Elec       q    Type
REMARK                         _______ _______ _______ _____ _____    ______ ____
ROOT
ATOM      1  C   UNL     1       2.162   9.630  18.501  0.00  0.00    +0.000 C 
ATOM      2  C   UNL     1       1.862   8.376  19.248  0.00  0.00    +0.000 A 
ATOM      3  C   UNL     1       2.376   7.086  19.090  0.00  0.00    +0.000 A 
ATOM      4  C   UNL     1       1.737   6.317  20.122  0.00  0.00    +0.000 A 
ATOM      5  N   UNL     1       1.084   7.122  20.968  0.00  0.00    +0.000 NA
ATOM      6  N   UNL     1       1.073   8.344  20.392  0.00  0.00    +0.000 N 
ENDROOT
BRANCH   4   7
ATOM      7  C   UNL     1       1.749   4.864  20.352  0.00  0.00    +0.000 A 
ATOM      8  C   UNL     1       1.188   3.990  19.408  0.00  0.00    +0.000 A 
ATOM      9  C   UNL     1       1.233   2.604  19.597  0.00  0.00    +0.000 A 
ATOM     10  C   UNL     1       1.838   2.073  20.733  0.00  0.00    +0.000 A 
ATOM     11  C   UNL     1       2.411   2.924  21.673  0.00  0.00    +0.000 A 
ATOM     12  C   UNL     1       2.377   4.309  21.478  0.00  0.00    +0.000 A 
ENDBRANCH   4   7
BRANCH   6  13
ATOM     13  C   UNL     1       0.344   9.396  21.020  0.00  0.00    +0.000 A 
ATOM     14  C   UNL     1       0.069   9.307  22.395  0.00  0.00    +0.000 A 
ATOM     15  C   UNL     1      -0.595  10.349  23.046  0.00  0.00    +0.000 A 
ATOM     16  C   UNL     1      -1.018  11.468  22.334  0.00  0.00    +0.000 A 
ATOM     17  C   UNL     1      -0.791  11.540  20.961  0.00  0.00    +0.000 A 
ATOM     18  C   UNL     1      -0.121  10.508  20.306  0.00  0.00    +0.000 A 
ENDBRANCH   6  13
BRANCH   3  19
ATOM     19  C   UNL     1       3.366   6.540  18.086  0.00  0.00    +0.000 C 
BRANCH  19  20
ATOM     20  N   UNL     1       4.611   6.030  18.696  0.00  0.00    +0.000 NA
ATOM     21  C   UNL     1       4.711   4.568  18.575  0.00  0.00    +0.000 C 
BRANCH  20  22
ATOM     22  C   UNL     1       5.799   6.633  18.050  0.00  0.00    +0.000 C 
BRANCH  22  23
ATOM     23  C   UNL     1       6.544   5.704  17.147  0.00  0.00    +0.000 A 
ATOM     24  N   UNL     1       7.583   4.964  17.484  0.00  0.00    +0.000 NA
ATOM     25  N   UNL     1       7.957   4.221  16.390  0.00  0.00    +0.000 NA
ATOM     26  C   UNL     1       7.139   4.522  15.409  0.00  0.00    +0.000 A 
ATOM     27  N   UNL     1       6.252   5.463  15.828  0.00  0.00    +0.000 N 
ATOM     28  C   UNL     1       5.210   6.053  15.035  0.00  0.00    +0.000 C 
ENDBRANCH  22  23
ENDBRANCH  20  22
ENDBRANCH  19  20
ENDBRANCH   3  19
TORSDOF 6
ENDMDL
MODEL 6
REMARK VINA RESULT:      -7.7      0.880      1.492
REMARK  Name = 
REMARK  9 active torsions:
REMARK  status: ('A' for Active; 'I' for Inactive)
REMARK    1  A    between atoms: C_1  and  C_2
REMARK    2  A    between atoms: C_3  and  C_4
REMARK    3  A    between atoms: C_4  and  N_5
REMARK    4  A    between atoms: N_5  and  C_6
REMARK    5  A    between atoms: N_5  and  C_7
REMARK    6  A    between atoms: C_7  and  C_8
REMARK    7  A    between atoms: N_12  and  C_13
REMARK    8  A    between atoms: C_14  and  C_15
REMARK    9  A    between atoms: N_22  and  C_23
REMARK                            x       y       z     vdW  Elec       q    Type
REMARK                         _______ _______ _______ _____ _____    ______ ____
ROOT
ATOM      1  C   UNL     1       2.548   9.344  17.939  0.00  0.00    +0.000 C 
ATOM      2  C   UNL     1       2.123   8.224  18.826  0.00  0.00    +0.000 A 
ATOM      3  C   UNL     1       2.569   6.901  18.885  0.00  0.00    +0.000 A 
ATOM      4  C   UNL     1       1.816   6.318  19.961  0.00  0.00    +0.000 A 
ATOM      5  N   UNL     1       1.156   7.264  20.637  0.00  0.00    +0.000 NA
ATOM      6  N   UNL     1       1.257   8.392  19.900  0.00  0.00    +0.000 N 
ENDROOT
BRANCH   4   7
ATOM      7  C   UNL     1       1.726   4.912  20.387  0.00  0.00    +0.000 A 
ATOM      8  C   UNL     1       1.052   3.970  19.595  0.00  0.00    +0.000 A 
ATOM      9  C   UNL     1       0.998   2.623  19.971  0.00  0.00    +0.000 A 
ATOM     10  C   UNL     1       1.616   2.199  21.145  0.00  0.00    +0.000 A 
ATOM     11  C   UNL     1       2.300   3.117  21.936  0.00  0.00    +0.000 A 
ATOM     12  C   UNL     1       2.364   4.462  21.554  0.00  0.00    +0.000 A 
ENDBRANCH   4   7
BRANCH   6  13
ATOM     13  C   UNL     1       0.551   9.557  20.321  0.00  0.00    +0.000 A 
ATOM     14  C   UNL     1      -0.367  10.154  19.440  0.00  0.00    +0.000 A 
ATOM     15  C   UNL     1      -1.112  11.262  19.848  0.00  0.00    +0.000 A 
ATOM     16  C   UNL     1      -0.929  11.805  21.117  0.00  0.00    +0.000 A 
ATOM     17  C   UNL     1       0.015  11.248  21.978  0.00  0.00    +0.000 A 
ATOM     18  C   UNL     1       0.756  10.135  21.581  0.00  0.00    +0.000 A 
ENDBRANCH   6  13
BRANCH   3  19
ATOM     19  C   UNL     1       3.591   6.171  18.044  0.00  0.00    +0.000 C 
BRANCH  19  20
ATOM     20  N   UNL     1       4.716   5.615  18.825  0.00  0.00    +0.000 NA
ATOM     21  C   UNL     1       4.804   4.155  18.678  0.00  0.00    +0.000 C 
BRANCH  20  22
ATOM     22  C   UNL     1       6.002   6.206  18.387  0.00  0.00    +0.000 C 
BRANCH  22  23
ATOM     23  C   UNL     1       6.589   5.566  17.171  0.00  0.00    +0.000 A 
ATOM     24  N   UNL     1       7.591   4.708  17.155  0.00  0.00    +0.000 NA
ATOM     25  N   UNL     1       7.808   4.322  15.854  0.00  0.00    +0.000 NA
ATOM     26  C   UNL     1       6.934   4.951  15.104  0.00  0.00    +0.000 A 
ATOM     27  N   UNL     1       6.164   5.758  15.881  0.00  0.00    +0.000 N 
ATOM     28  C   UNL     1       5.108   6.615  15.420  0.00  0.00    +0.000 C 
ENDBRANCH  22  23
ENDBRANCH  20  22
ENDBRANCH  19  20
ENDBRANCH   3  19
TORSDOF 6
ENDMDL
MODEL 7
REMARK VINA RESULT:      -7.7      2.479      4.666
REMARK  Name = 
REMARK  9 active torsions:
REMARK  status: ('A' for Active; 'I' for Inactive)
REMARK    1  A    between atoms: C_1  and  C_2
REMARK    2  A    between atoms: C_3  and  C_4
REMARK    3  A    between atoms: C_4  and  N_5
REMARK    4  A    between atoms: N_5  and  C_6
REMARK    5  A    between atoms: N_5  and  C_7
REMARK    6  A    between atoms: C_7  and  C_8
REMARK    7  A    between atoms: N_12  and  C_13
REMARK    8  A    between atoms: C_14  and  C_15
REMARK    9  A    between atoms: N_22  and  C_23
REMARK                            x       y       z     vdW  Elec       q    Type
REMARK                         _______ _______ _______ _____ _____    ______ ____
ROOT
ATOM      1  C   UNL     1       1.214   8.114  21.331  0.00  0.00    +0.000 C 
ATOM      2  C   UNL     1       1.868   7.805  20.029  0.00  0.00    +0.000 A 
ATOM      3  C   UNL     1       2.589   6.678  19.625  0.00  0.00    +0.000 A 
ATOM      4  C   UNL     1       2.933   6.944  18.256  0.00  0.00    +0.000 A 
ATOM      5  N   UNL     1       2.278   8.021  17.810  0.00  0.00    +0.000 NA
ATOM      6  N   UNL     1       1.718   8.597  18.897  0.00  0.00    +0.000 N 
ENDROOT
BRANCH   4   7
ATOM      7  C   UNL     1       3.829   6.203  17.354  0.00  0.00    +0.000 A 
ATOM      8  C   UNL     1       3.773   4.803  17.287  0.00  0.00    +0.000 A 
ATOM      9  C   UNL     1       4.590   4.093  16.400  0.00  0.00    +0.000 A 
ATOM     10  C   UNL     1       5.476   4.774  15.569  0.00  0.00    +0.000 A 
ATOM     11  C   UNL     1       5.536   6.163  15.612  0.00  0.00    +0.000 A 
ATOM     12  C   UNL     1       4.710   6.874  16.490  0.00  0.00    +0.000 A 
ENDBRANCH   4   7
BRANCH   6  13
ATOM     13  C   UNL     1       1.037   9.841  18.744  0.00  0.00    +0.000 A 
ATOM     14  C   UNL     1      -0.320   9.834  18.377  0.00  0.00    +0.000 A 
ATOM     15  C   UNL     1      -1.024  11.035  18.274  0.00  0.00    +0.000 A 
ATOM     16  C   UNL     1      -0.382  12.250  18.502  0.00  0.00    +0.000 A 
ATOM     17  C   UNL     1       0.975  12.266  18.818  0.00  0.00    +0.000 A 
ATOM     18  C   UNL     1       1.683  11.070  18.932  0.00  0.00    +0.000 A 
ENDBRANCH   6  13
BRANCH   3  19
ATOM     19  C   UNL     1       2.972   5.432  20.391  0.00  0.00    +0.000 C 
BRANCH  19  20
ATOM     20  N   UNL     1       1.829   4.765  21.050  0.00  0.00    +0.000 NA
ATOM     21  C   UNL     1       0.671   4.665  20.149  0.00  0.00    +0.000 C 
BRANCH  20  22
ATOM     22  C   UNL     1       2.198   3.398  21.486  0.00  0.00    +0.000 C 
BRANCH  22  23
ATOM     23  C   UNL     1       3.102   2.675  20.541  0.00  0.00    +0.000 A 
ATOM     24  N   UNL     1       4.400   2.497  20.695  0.00  0.00    +0.000 NA
ATOM     25  N   UNL     1       4.862   1.753  19.635  0.00  0.00    +0.000 NA
ATOM     26  C   UNL     1       3.837   1.493  18.858  0.00  0.00    +0.000 A 
ATOM     27  N   UNL     1       2.718   2.069  19.372  0.00  0.00    +0.000 N 
ATOM     28  C   UNL     1       1.403   2.018  18.796  0.00  0.00    +0.000 C 
ENDBRANCH  22  23
ENDBRANCH  20  22
ENDBRANCH  19  20
ENDBRANCH   3  19
TORSDOF 6
ENDMDL
MODEL 8
REMARK VINA RESULT:      -7.6      0.871      1.725
REMARK  Name = 
REMARK  9 active torsions:
REMARK  status: ('A' for Active; 'I' for Inactive)
REMARK    1  A    between atoms: C_1  and  C_2
REMARK    2  A    between atoms: C_3  and  C_4
REMARK    3  A    between atoms: C_4  and  N_5
REMARK    4  A    between atoms: N_5  and  C_6
REMARK    5  A    between atoms: N_5  and  C_7
REMARK    6  A    between atoms: C_7  and  C_8
REMARK    7  A    between atoms: N_12  and  C_13
REMARK    8  A    between atoms: C_14  and  C_15
REMARK    9  A    between atoms: N_22  and  C_23
REMARK                            x       y       z     vdW  Elec       q    Type
REMARK                         _______ _______ _______ _____ _____    ______ ____
ROOT
ATOM      1  C   UNL     1       1.725   9.755  18.033  0.00  0.00    +0.000 C 
ATOM      2  C   UNL     1       1.585   8.590  18.952  0.00  0.00    +0.000 A 
ATOM      3  C   UNL     1       2.007   7.267  18.803  0.00  0.00    +0.000 A 
ATOM      4  C   UNL     1       1.622   6.628  20.030  0.00  0.00    +0.000 A 
ATOM      5  N   UNL     1       1.221   7.537  20.925  0.00  0.00    +0.000 NA
ATOM      6  N   UNL     1       1.102   8.702  20.250  0.00  0.00    +0.000 N 
ENDROOT
BRANCH   4   7
ATOM      7  C   UNL     1       1.650   5.202  20.393  0.00  0.00    +0.000 A 
ATOM      8  C   UNL     1       2.485   4.746  21.425  0.00  0.00    +0.000 A 
ATOM      9  C   UNL     1       2.486   3.399  21.806  0.00  0.00    +0.000 A 
ATOM     10  C   UNL     1       1.652   2.490  21.161  0.00  0.00    +0.000 A 
ATOM     11  C   UNL     1       0.807   2.927  20.145  0.00  0.00    +0.000 A 
ATOM     12  C   UNL     1       0.798   4.275  19.771  0.00  0.00    +0.000 A 
ENDBRANCH   4   7
BRANCH   6  13
ATOM     13  C   UNL     1       0.580   9.842  20.930  0.00  0.00    +0.000 A 
ATOM     14  C   UNL     1      -0.303   9.649  22.006  0.00  0.00    +0.000 A 
ATOM     15  C   UNL     1      -0.785  10.746  22.723  0.00  0.00    +0.000 A 
ATOM     16  C   UNL     1      -0.422  12.040  22.358  0.00  0.00    +0.000 A 
ATOM     17  C   UNL     1       0.414  12.240  21.261  0.00  0.00    +0.000 A 
ATOM     18  C   UNL     1       0.907  11.149  20.547  0.00  0.00    +0.000 A 
ENDBRANCH   6  13
BRANCH   3  19
ATOM     19  C   UNL     1       2.703   6.583  17.648  0.00  0.00    +0.000 C 
BRANCH  19  20
ATOM     20  N   UNL     1       3.890   5.800  18.049  0.00  0.00    +0.000 NA
ATOM     21  C   UNL     1       3.804   4.411  17.575  0.00  0.00    +0.000 C 
BRANCH  20  22
ATOM     22  C   UNL     1       5.128   6.402  17.502  0.00  0.00    +0.000 C 
BRANCH  22  23
ATOM     23  C   UNL     1       6.385   5.720  17.935  0.00  0.00    +0.000 A 
ATOM     24  N   UNL     1       6.885   5.722  19.156  0.00  0.00    +0.000 NA
ATOM     25  N   UNL     1       8.025   4.954  19.157  0.00  0.00    +0.000 NA
ATOM     26  C   UNL     1       8.196   4.500  17.939  0.00  0.00    +0.000 A 
ATOM     27  N   UNL     1       7.208   4.971  17.133  0.00  0.00    +0.000 N 
ATOM     28  C   UNL     1       7.063   4.704  15.729  0.00  0.00    +0.000 C 
ENDBRANCH  22  23
ENDBRANCH  20  22
ENDBRANCH  19  20
ENDBRANCH   3  19
TORSDOF 6
ENDMDL
MODEL 9
REMARK VINA RESULT:      -7.6      1.277      1.919
REMARK  Name = 
REMARK  9 active torsions:
REMARK  status: ('A' for Active; 'I' for Inactive)
REMARK    1  A    between atoms: C_1  and  C_2
REMARK    2  A    between atoms: C_3  and  C_4
REMARK    3  A    between atoms: C_4  and  N_5
REMARK    4  A    between atoms: N_5  and  C_6
REMARK    5  A    between atoms: N_5  and  C_7
REMARK    6  A    between atoms: C_7  and  C_8
REMARK    7  A    between atoms: N_12  and  C_13
REMARK    8  A    between atoms: C_14  and  C_15
REMARK    9  A    between atoms: N_22  and  C_23
REMARK                            x       y       z     vdW  Elec       q    Type
REMARK                         _______ _______ _______ _____ _____    ______ ____
ROOT
ATOM      1  C   UNL     1       2.364   9.288  17.858  0.00  0.00    +0.000 C 
ATOM      2  C   UNL     1       2.047   8.186  18.809  0.00  0.00    +0.000 A 
ATOM      3  C   UNL     1       2.515   6.871  18.855  0.00  0.00    +0.000 A 
ATOM      4  C   UNL     1       1.883   6.305  20.014  0.00  0.00    +0.000 A 
ATOM      5  N   UNL     1       1.279   7.260  20.730  0.00  0.00    +0.000 NA
ATOM      6  N   UNL     1       1.290   8.371  19.960  0.00  0.00    +0.000 N 
ENDROOT
BRANCH   4   7
ATOM      7  C   UNL     1       1.855   4.910  20.481  0.00  0.00    +0.000 A 
ATOM      8  C   UNL     1       0.771   4.076  20.169  0.00  0.00    +0.000 A 
ATOM      9  C   UNL     1       0.757   2.736  20.571  0.00  0.00    +0.000 A 
ATOM     10  C   UNL     1       1.826   2.211  21.292  0.00  0.00    +0.000 A 
ATOM     11  C   UNL     1       2.916   3.019  21.598  0.00  0.00    +0.000 A 
ATOM     12  C   UNL     1       2.936   4.356  21.186  0.00  0.00    +0.000 A 
ENDBRANCH   4   7
BRANCH   6  13
ATOM     13  C   UNL     1       0.612   9.537  20.423  0.00  0.00    +0.000 A 
ATOM     14  C   UNL     1       0.484   9.748  21.806  0.00  0.00    +0.000 A 
ATOM     15  C   UNL     1      -0.126  10.908  22.286  0.00  0.00    +0.000 A 
ATOM     16  C   UNL     1      -0.643  11.850  21.399  0.00  0.00    +0.000 A 
ATOM     17  C   UNL     1      -0.564  11.623  20.026  0.00  0.00    +0.000 A 
ATOM     18  C   UNL     1       0.053  10.471  19.540  0.00  0.00    +0.000 A 
ENDBRANCH   6  13
BRANCH   3  19
ATOM     19  C   UNL     1       3.459   6.132  17.933  0.00  0.00    +0.000 C 
BRANCH  19  20
ATOM     20  N   UNL     1       3.406   4.663  18.082  0.00  0.00    +0.000 NA
ATOM     21  C   UNL     1       2.413   4.065  17.177  0.00  0.00    +0.000 C 
BRANCH  20  22
ATOM     22  C   UNL     1       4.726   4.057  17.791  0.00  0.00    +0.000 C 
BRANCH  22  23
ATOM     23  C   UNL     1       5.878   4.752  18.441  0.00  0.00    +0.000 A 
ATOM     24  N   UNL     1       6.154   4.753  19.731  0.00  0.00    +0.000 NA
ATOM     25  N   UNL     1       7.310   5.470  19.925  0.00  0.00    +0.000 NA
ATOM     26  C   UNL     1       7.716   5.892  18.751  0.00  0.00    +0.000 A 
ATOM     27  N   UNL     1       6.839   5.487  17.793  0.00  0.00    +0.000 N 
ATOM     28  C   UNL     1       6.936   5.766  16.388  0.00  0.00    +0.000 C 
ENDBRANCH  22  23
ENDBRANCH  20  22
ENDBRANCH  19  20
ENDBRANCH   3  19
TORSDOF 6
ENDMDL
