MODEL 1
REMARK VINA RESULT:      -9.1      0.000      0.000
REMARK  Name = 
REMARK  6 active torsions:
REMARK  status: ('A' for Active; 'I' for Inactive)
REMARK    1  A    between atoms: C_1  and  C_2
REMARK    2  A    between atoms: C_5  and  C_6
REMARK    3  A    between atoms: C_9  and  C_10
REMARK    4  A    between atoms: C_13  and  C_14
REMARK    5  A    between atoms: C_14  and  O_16
REMARK    6  A    between atoms: C_19  and  C_20
REMARK                            x       y       z     vdW  Elec       q    Type
REMARK                         _______ _______ _______ _____ _____    ______ ____
ROOT
ATOM      1  C   UNL     1       2.300   5.491  20.105  0.00  0.00    +0.000 C 
ATOM      2  O   UNL     1       1.990   5.042  21.216  0.00  0.00    +0.000 OA
ATOM      3  N   UNL     1       2.883   4.626  19.180  0.00  0.00    +0.000 N 
ATOM      4  C   UNL     1       2.679   3.187  19.437  0.00  0.00    +0.000 C 
ATOM      5  C   UNL     1       2.613   2.423  18.125  0.00  0.00    +0.000 C 
ATOM      6  S   UNL     1       2.846   3.650  16.827  0.00  0.00    +0.000 S 
ATOM      7  C   UNL     1       3.607   4.893  17.925  0.00  0.00    +0.000 C 
ENDROOT
BRANCH   7   8
ATOM      8  C   UNL     1       5.135   4.866  18.034  0.00  0.00    +0.000 A 
ATOM      9  C   UNL     1       5.750   5.402  19.193  0.00  0.00    +0.000 A 
ATOM     10  C   UNL     1       7.142   5.466  19.337  0.00  0.00    +0.000 A 
ATOM     11  C   UNL     1       7.971   4.997  18.328  0.00  0.00    +0.000 A 
ATOM     12  C   UNL     1       7.405   4.519  17.155  0.00  0.00    +0.000 A 
ATOM     13  C   UNL     1       6.010   4.490  16.988  0.00  0.00    +0.000 A 
ATOM     14 CL   UNL     1       5.496   4.082  15.386  0.00  0.00    +0.000 Cl
ENDBRANCH   7   8
BRANCH   1  18
ATOM     15  C   UNL     1       1.107   9.598  19.374  0.00  0.00    +0.000 A 
ATOM     16  C   UNL     1       0.884   8.970  20.605  0.00  0.00    +0.000 A 
ATOM     17  C   UNL     1       1.324   7.654  20.833  0.00  0.00    +0.000 A 
ATOM     18  C   UNL     1       1.980   6.922  19.828  0.00  0.00    +0.000 A 
ATOM     19  C   UNL     1       2.147   7.531  18.587  0.00  0.00    +0.000 A 
ATOM     20  C   UNL     1       1.776   8.865  18.385  0.00  0.00    +0.000 A 
BRANCH  15  25
ATOM     21  C   UNL     1       0.725  14.885  18.871  0.00  0.00    +0.000 C 
ATOM     22  C   UNL     1       0.422  13.426  18.859  0.00  0.00    +0.000 A 
ATOM     23  C   UNL     1      -0.725  12.778  18.456  0.00  0.00    +0.000 A 
ATOM     24  C   UNL     1      -0.625  11.360  18.600  0.00  0.00    +0.000 A 
ATOM     25  C   UNL     1       0.598  10.957  19.109  0.00  0.00    +0.000 A 
ATOM     26  S   UNL     1       1.608  12.324  19.387  0.00  0.00    +0.000 S 
ENDBRANCH  15  25
ENDBRANCH   1  18
BRANCH   4  27
ATOM     27  C   UNL     1       3.754   2.639  20.384  0.00  0.00    +0.000 C 
ATOM     28  O   UNL     1       4.904   2.372  20.065  0.00  0.00    +0.000 OA
BRANCH  27  29
ATOM     29  O   UNL     1       3.317   2.507  21.664  0.00  0.00    +0.000 OA
ATOM     30  H   UNL     1       2.579   1.851  21.742  0.00  0.00    +0.000 HD
ENDBRANCH  27  29
ENDBRANCH   4  27
TORSDOF 5
ENDMDL
MODEL 2
REMARK VINA RESULT:      -8.9      0.634      1.215
REMARK  Name = 
REMARK  6 active torsions:
REMARK  status: ('A' for Active; 'I' for Inactive)
REMARK    1  A    between atoms: C_1  and  C_2
REMARK    2  A    between atoms: C_5  and  C_6
REMARK    3  A    between atoms: C_9  and  C_10
REMARK    4  A    between atoms: C_13  and  C_14
REMARK    5  A    between atoms: C_14  and  O_16
REMARK    6  A    between atoms: C_19  and  C_20
REMARK                            x       y       z     vdW  Elec       q    Type
REMARK                         _______ _______ _______ _____ _____    ______ ____
ROOT
ATOM      1  C   UNL     1       2.230   5.408  20.093  0.00  0.00    +0.000 C 
ATOM      2  O   UNL     1       1.924   4.957  21.205  0.00  0.00    +0.000 OA
ATOM      3  N   UNL     1       2.837   4.552  19.176  0.00  0.00    +0.000 N 
ATOM      4  C   UNL     1       2.663   3.109  19.437  0.00  0.00    +0.000 C 
ATOM      5  C   UNL     1       2.620   2.339  18.128  0.00  0.00    +0.000 C 
ATOM      6  S   UNL     1       2.834   3.565  16.827  0.00  0.00    +0.000 S 
ATOM      7  C   UNL     1       3.562   4.829  17.923  0.00  0.00    +0.000 C 
ENDROOT
BRANCH   7   8
ATOM      8  C   UNL     1       5.089   4.835  18.040  0.00  0.00    +0.000 A 
ATOM      9  C   UNL     1       5.686   5.376  19.206  0.00  0.00    +0.000 A 
ATOM     10  C   UNL     1       7.075   5.470  19.359  0.00  0.00    +0.000 A 
ATOM     11  C   UNL     1       7.920   5.027  18.352  0.00  0.00    +0.000 A 
ATOM     12  C   UNL     1       7.372   4.545  17.172  0.00  0.00    +0.000 A 
ATOM     13  C   UNL     1       5.979   4.486  16.997  0.00  0.00    +0.000 A 
ATOM     14 CL   UNL     1       5.483   4.078  15.389  0.00  0.00    +0.000 Cl
ENDBRANCH   7   8
BRANCH   1  18
ATOM     15  C   UNL     1       1.484   9.587  19.199  0.00  0.00    +0.000 A 
ATOM     16  C   UNL     1       2.062   8.721  18.264  0.00  0.00    +0.000 A 
ATOM     17  C   UNL     1       2.248   7.359  18.560  0.00  0.00    +0.000 A 
ATOM     18  C   UNL     1       1.882   6.831  19.810  0.00  0.00    +0.000 A 
ATOM     19  C   UNL     1       1.361   7.708  20.757  0.00  0.00    +0.000 A 
ATOM     20  C   UNL     1       1.107   9.046  20.436  0.00  0.00    +0.000 A 
BRANCH  15  25
ATOM     21  C   UNL     1      -0.366  14.576  19.001  0.00  0.00    +0.000 C 
ATOM     22  C   UNL     1       0.482  13.362  18.835  0.00  0.00    +0.000 A 
ATOM     23  C   UNL     1       1.713  13.236  18.229  0.00  0.00    +0.000 A 
ATOM     24  C   UNL     1       2.204  11.896  18.275  0.00  0.00    +0.000 A 
ATOM     25  C   UNL     1       1.338  11.027  18.916  0.00  0.00    +0.000 A 
ATOM     26  S   UNL     1      -0.057  11.875  19.465  0.00  0.00    +0.000 S 
ENDBRANCH  15  25
ENDBRANCH   1  18
BRANCH   4  27
ATOM     27  C   UNL     1       3.743   2.588  20.393  0.00  0.00    +0.000 C 
ATOM     28  O   UNL     1       4.894   2.323  20.076  0.00  0.00    +0.000 OA
BRANCH  27  29
ATOM     29  O   UNL     1       3.311   2.480  21.677  0.00  0.00    +0.000 OA
ATOM     30  H   UNL     1       2.770   1.663  21.821  0.00  0.00    +0.000 HD
ENDBRANCH  27  29
ENDBRANCH   4  27
TORSDOF 5
ENDMDL
MODEL 3
REMARK VINA RESULT:      -8.4      0.684      1.118
REMARK  Name = 
REMARK  6 active torsions:
REMARK  status: ('A' for Active; 'I' for Inactive)
REMARK    1  A    between atoms: C_1  and  C_2
REMARK    2  A    between atoms: C_5  and  C_6
REMARK    3  A    between atoms: C_9  and  C_10
REMARK    4  A    between atoms: C_13  and  C_14
REMARK    5  A    between atoms: C_14  and  O_16
REMARK    6  A    between atoms: C_19  and  C_20
REMARK                            x       y       z     vdW  Elec       q    Type
REMARK                         _______ _______ _______ _____ _____    ______ ____
ROOT
ATOM      1  C   UNL     1       2.258   5.052  20.388  0.00  0.00    +0.000 C 
ATOM      2  O   UNL     1       2.061   4.511  21.484  0.00  0.00    +0.000 OA
ATOM      3  N   UNL     1       2.852   4.300  19.376  0.00  0.00    +0.000 N 
ATOM      4  C   UNL     1       2.789   2.835  19.549  0.00  0.00    +0.000 C 
ATOM      5  C   UNL     1       2.704   2.149  18.196  0.00  0.00    +0.000 C 
ATOM      6  S   UNL     1       2.746   3.467  16.970  0.00  0.00    +0.000 S 
ATOM      7  C   UNL     1       3.468   4.705  18.099  0.00  0.00    +0.000 C 
ENDROOT
BRANCH   7   8
ATOM      8  C   UNL     1       4.996   4.808  18.116  0.00  0.00    +0.000 A 
ATOM      9  C   UNL     1       5.636   5.344  19.261  0.00  0.00    +0.000 A 
ATOM     10  C   UNL     1       7.023   5.524  19.325  0.00  0.00    +0.000 A 
ATOM     11  C   UNL     1       7.823   5.176  18.246  0.00  0.00    +0.000 A 
ATOM     12  C   UNL     1       7.227   4.703  17.086  0.00  0.00    +0.000 A 
ATOM     13  C   UNL     1       5.832   4.558  17.002  0.00  0.00    +0.000 A 
ATOM     14 CL   UNL     1       5.253   4.179  15.415  0.00  0.00    +0.000 Cl
ENDBRANCH   7   8
BRANCH   1  18
ATOM     15  C   UNL     1       1.194   9.227  19.882  0.00  0.00    +0.000 A 
ATOM     16  C   UNL     1       1.943   8.533  18.925  0.00  0.00    +0.000 A 
ATOM     17  C   UNL     1       2.233   7.166  19.089  0.00  0.00    +0.000 A 
ATOM     18  C   UNL     1       1.800   6.463  20.226  0.00  0.00    +0.000 A 
ATOM     19  C   UNL     1       1.106   7.172  21.202  0.00  0.00    +0.000 A 
ATOM     20  C   UNL     1       0.753   8.512  21.003  0.00  0.00    +0.000 A 
BRANCH  15  25
ATOM     21  C   UNL     1       1.463  14.328  18.380  0.00  0.00    +0.000 C 
ATOM     22  C   UNL     1       1.050  13.054  19.033  0.00  0.00    +0.000 A 
ATOM     23  C   UNL     1       0.006  12.819  19.901  0.00  0.00    +0.000 A 
ATOM     24  C   UNL     1      -0.060  11.452  20.310  0.00  0.00    +0.000 A 
ATOM     25  C   UNL     1       0.935  10.673  19.744  0.00  0.00    +0.000 A 
ATOM     26  S   UNL     1       1.924  11.629  18.709  0.00  0.00    +0.000 S 
ENDBRANCH  15  25
ENDBRANCH   1  18
BRANCH   4  27
ATOM     27  C   UNL     1       3.966   2.329  20.393  0.00  0.00    +0.000 C 
ATOM     28  O   UNL     1       5.096   2.126  19.974  0.00  0.00    +0.000 OA
BRANCH  27  29
ATOM     29  O   UNL     1       3.645   2.157  21.702  0.00  0.00    +0.000 OA
ATOM     30  H   UNL     1       4.371   2.455  22.307  0.00  0.00    +0.000 HD
ENDBRANCH  27  29
ENDBRANCH   4  27
TORSDOF 5
ENDMDL
MODEL 4
REMARK VINA RESULT:      -7.8      3.802      8.738
REMARK  Name = 
REMARK  6 active torsions:
REMARK  status: ('A' for Active; 'I' for Inactive)
REMARK    1  A    between atoms: C_1  and  C_2
REMARK    2  A    between atoms: C_5  and  C_6
REMARK    3  A    between atoms: C_9  and  C_10
REMARK    4  A    between atoms: C_13  and  C_14
REMARK    5  A    between atoms: C_14  and  O_16
REMARK    6  A    between atoms: C_19  and  C_20
REMARK                            x       y       z     vdW  Elec       q    Type
REMARK                         _______ _______ _______ _____ _____    ______ ____
ROOT
ATOM      1  C   UNL     1       1.137   8.970  20.777  0.00  0.00    +0.000 C 
ATOM      2  O   UNL     1       1.043   8.532  21.931  0.00  0.00    +0.000 OA
ATOM      3  N   UNL     1       0.640  10.244  20.509  0.00  0.00    +0.000 N 
ATOM      4  C   UNL     1       0.453  11.116  21.686  0.00  0.00    +0.000 C 
ATOM      5  C   UNL     1       0.689  12.568  21.308  0.00  0.00    +0.000 C 
ATOM      6  S   UNL     1       1.073  12.564  19.549  0.00  0.00    +0.000 S 
ATOM      7  C   UNL     1       0.342  10.922  19.235  0.00  0.00    +0.000 C 
ENDROOT
BRANCH   7   8
ATOM      8  C   UNL     1      -1.129  10.898  18.811  0.00  0.00    +0.000 A 
ATOM      9  C   UNL     1      -1.629   9.760  18.130  0.00  0.00    +0.000 A 
ATOM     10  C   UNL     1      -2.946   9.690  17.659  0.00  0.00    +0.000 A 
ATOM     11  C   UNL     1      -3.814  10.756  17.852  0.00  0.00    +0.000 A 
ATOM     12  C   UNL     1      -3.344  11.909  18.464  0.00  0.00    +0.000 A 
ATOM     13  C   UNL     1      -2.012  12.000  18.901  0.00  0.00    +0.000 A 
ATOM     14 CL   UNL     1      -1.544  13.582  19.426  0.00  0.00    +0.000 Cl
ENDBRANCH   7   8
BRANCH   1  18
ATOM     15  C   UNL     1       3.325   6.419  18.032  0.00  0.00    +0.000 A 
ATOM     16  C   UNL     1       2.945   5.982  19.307  0.00  0.00    +0.000 A 
ATOM     17  C   UNL     1       2.194   6.811  20.159  0.00  0.00    +0.000 A 
ATOM     18  C   UNL     1       1.820   8.108  19.768  0.00  0.00    +0.000 A 
ATOM     19  C   UNL     1       2.250   8.559  18.523  0.00  0.00    +0.000 A 
ATOM     20  C   UNL     1       2.933   7.708  17.646  0.00  0.00    +0.000 A 
BRANCH  15  25
ATOM     21  C   UNL     1       6.847   4.791  14.387  0.00  0.00    +0.000 C 
ATOM     22  C   UNL     1       5.817   4.815  15.464  0.00  0.00    +0.000 A 
ATOM     23  C   UNL     1       5.232   3.762  16.132  0.00  0.00    +0.000 A 
ATOM     24  C   UNL     1       4.281   4.200  17.103  0.00  0.00    +0.000 A 
ATOM     25  C   UNL     1       4.161   5.577  17.156  0.00  0.00    +0.000 A 
ATOM     26  S   UNL     1       5.230   6.312  16.023  0.00  0.00    +0.000 S 
ENDBRANCH  15  25
ENDBRANCH   1  18
BRANCH   4  27
ATOM     27  C   UNL     1      -0.923  10.890  22.325  0.00  0.00    +0.000 C 
ATOM     28  O   UNL     1      -1.932  11.532  22.070  0.00  0.00    +0.000 OA
BRANCH  27  29
ATOM     29  O   UNL     1      -0.938   9.852  23.203  0.00  0.00    +0.000 OA
ATOM     30  H   UNL     1      -0.993   8.976  22.745  0.00  0.00    +0.000 HD
ENDBRANCH  27  29
ENDBRANCH   4  27
TORSDOF 5
ENDMDL
MODEL 5
REMARK VINA RESULT:      -7.8      2.831      4.176
REMARK  Name = 
REMARK  6 active torsions:
REMARK  status: ('A' for Active; 'I' for Inactive)
REMARK    1  A    between atoms: C_1  and  C_2
REMARK    2  A    between atoms: C_5  and  C_6
REMARK    3  A    between atoms: C_9  and  C_10
REMARK    4  A    between atoms: C_13  and  C_14
REMARK    5  A    between atoms: C_14  and  O_16
REMARK    6  A    between atoms: C_19  and  C_20
REMARK                            x       y       z     vdW  Elec       q    Type
REMARK                         _______ _______ _______ _____ _____    ______ ____
ROOT
ATOM      1  C   UNL     1       3.500   7.308  17.596  0.00  0.00    +0.000 C 
ATOM      2  O   UNL     1       3.549   7.749  16.440  0.00  0.00    +0.000 OA
ATOM      3  N   UNL     1       4.384   6.290  17.954  0.00  0.00    +0.000 N 
ATOM      4  C   UNL     1       5.568   6.139  17.085  0.00  0.00    +0.000 C 
ATOM      5  C   UNL     1       6.757   5.654  17.897  0.00  0.00    +0.000 C 
ATOM      6  S   UNL     1       6.157   5.456  19.582  0.00  0.00    +0.000 S 
ATOM      7  C   UNL     1       4.396   5.378  19.111  0.00  0.00    +0.000 C 
ENDROOT
BRANCH   7   8
ATOM      8  C   UNL     1       3.819   3.984  18.849  0.00  0.00    +0.000 A 
ATOM      9  C   UNL     1       4.636   2.848  19.074  0.00  0.00    +0.000 A 
ATOM     10  C   UNL     1       4.199   1.547  18.800  0.00  0.00    +0.000 A 
ATOM     11  C   UNL     1       2.926   1.331  18.290  0.00  0.00    +0.000 A 
ATOM     12  C   UNL     1       2.118   2.421  18.002  0.00  0.00    +0.000 A 
ATOM     13  C   UNL     1       2.568   3.732  18.237  0.00  0.00    +0.000 A 
ATOM     14 CL   UNL     1       1.526   4.962  17.607  0.00  0.00    +0.000 Cl
ENDBRANCH   7   8
BRANCH   1  18
ATOM     15  C   UNL     1       0.802   9.371  20.295  0.00  0.00    +0.000 A 
ATOM     16  C   UNL     1       1.082   9.857  19.013  0.00  0.00    +0.000 A 
ATOM     17  C   UNL     1       1.922   9.144  18.139  0.00  0.00    +0.000 A 
ATOM     18  C   UNL     1       2.522   7.936  18.531  0.00  0.00    +0.000 A 
ATOM     19  C   UNL     1       2.287   7.487  19.828  0.00  0.00    +0.000 A 
ATOM     20  C   UNL     1       1.393   8.157  20.671  0.00  0.00    +0.000 A 
BRANCH  15  25
ATOM     21  C   UNL     1      -2.450  13.020  22.407  0.00  0.00    +0.000 C 
ATOM     22  C   UNL     1      -1.563  11.837  22.222  0.00  0.00    +0.000 A 
ATOM     23  C   UNL     1      -1.211  10.862  23.129  0.00  0.00    +0.000 A 
ATOM     24  C   UNL     1      -0.332   9.889  22.564  0.00  0.00    +0.000 A 
ATOM     25  C   UNL     1      -0.031  10.142  21.237  0.00  0.00    +0.000 A 
ATOM     26  S   UNL     1      -0.846  11.562  20.702  0.00  0.00    +0.000 S 
ENDBRANCH  15  25
ENDBRANCH   1  18
BRANCH   4  27
ATOM     27  C   UNL     1       5.261   5.230  15.889  0.00  0.00    +0.000 C 
ATOM     28  O   UNL     1       4.990   4.040  15.960  0.00  0.00    +0.000 OA
BRANCH  27  29
ATOM     29  O   UNL     1       5.275   5.891  14.701  0.00  0.00    +0.000 OA
ATOM     30  H   UNL     1       6.052   5.638  14.142  0.00  0.00    +0.000 HD
ENDBRANCH  27  29
ENDBRANCH   4  27
TORSDOF 5
ENDMDL
MODEL 6
REMARK VINA RESULT:      -7.6      1.489      1.731
REMARK  Name = 
REMARK  6 active torsions:
REMARK  status: ('A' for Active; 'I' for Inactive)
REMARK    1  A    between atoms: C_1  and  C_2
REMARK    2  A    between atoms: C_5  and  C_6
REMARK    3  A    between atoms: C_9  and  C_10
REMARK    4  A    between atoms: C_13  and  C_14
REMARK    5  A    between atoms: C_14  and  O_16
REMARK    6  A    between atoms: C_19  and  C_20
REMARK                            x       y       z     vdW  Elec       q    Type
REMARK                         _______ _______ _______ _____ _____    ______ ____
ROOT
ATOM      1  C   UNL     1       3.002   5.670  19.707  0.00  0.00    +0.000 C 
ATOM      2  O   UNL     1       3.323   5.406  20.873  0.00  0.00    +0.000 OA
ATOM      3  N   UNL     1       3.171   4.686  18.734  0.00  0.00    +0.000 N 
ATOM      4  C   UNL     1       3.295   3.305  19.239  0.00  0.00    +0.000 C 
ATOM      5  C   UNL     1       2.701   2.325  18.242  0.00  0.00    +0.000 C 
ATOM      6  S   UNL     1       2.127   3.319  16.855  0.00  0.00    +0.000 S 
ATOM      7  C   UNL     1       3.162   4.765  17.263  0.00  0.00    +0.000 C 
ENDROOT
BRANCH   7   8
ATOM      8  C   UNL     1       4.543   4.826  16.604  0.00  0.00    +0.000 A 
ATOM      9  C   UNL     1       5.040   3.675  15.943  0.00  0.00    +0.000 A 
ATOM     10  C   UNL     1       6.317   3.636  15.370  0.00  0.00    +0.000 A 
ATOM     11  C   UNL     1       7.146   4.747  15.437  0.00  0.00    +0.000 A 
ATOM     12  C   UNL     1       6.717   5.872  16.126  0.00  0.00    +0.000 A 
ATOM     13  C   UNL     1       5.453   5.901  16.738  0.00  0.00    +0.000 A 
ATOM     14 CL   UNL     1       5.183   7.287  17.740  0.00  0.00    +0.000 Cl
ENDBRANCH   7   8
BRANCH   1  18
ATOM     15  C   UNL     1       1.056   9.494  19.058  0.00  0.00    +0.000 A 
ATOM     16  C   UNL     1       1.123   8.902  20.324  0.00  0.00    +0.000 A 
ATOM     17  C   UNL     1       1.802   7.686  20.518  0.00  0.00    +0.000 A 
ATOM     18  C   UNL     1       2.415   7.017  19.445  0.00  0.00    +0.000 A 
ATOM     19  C   UNL     1       2.295   7.580  18.177  0.00  0.00    +0.000 A 
ATOM     20  C   UNL     1       1.685   8.827  17.998  0.00  0.00    +0.000 A 
BRANCH  15  25
ATOM     21  C   UNL     1      -0.317  14.626  18.712  0.00  0.00    +0.000 C 
ATOM     22  C   UNL     1      -0.341  13.137  18.661  0.00  0.00    +0.000 A 
ATOM     23  C   UNL     1      -1.353  12.296  18.251  0.00  0.00    +0.000 A 
ATOM     24  C   UNL     1      -0.986  10.920  18.353  0.00  0.00    +0.000 A 
ATOM     25  C   UNL     1       0.298  10.739  18.837  0.00  0.00    +0.000 A 
ATOM     26  S   UNL     1       1.038  12.263  19.145  0.00  0.00    +0.000 S 
ENDBRANCH  15  25
ENDBRANCH   1  18
BRANCH   4  27
ATOM     27  C   UNL     1       4.751   2.977  19.593  0.00  0.00    +0.000 C 
ATOM     28  O   UNL     1       5.686   3.762  19.525  0.00  0.00    +0.000 OA
BRANCH  27  29
ATOM     29  O   UNL     1       4.915   1.705  20.043  0.00  0.00    +0.000 OA
ATOM     30  H   UNL     1       4.574   1.034  19.400  0.00  0.00    +0.000 HD
ENDBRANCH  27  29
ENDBRANCH   4  27
TORSDOF 5
ENDMDL
MODEL 7
REMARK VINA RESULT:      -7.6      3.787      9.131
REMARK  Name = 
REMARK  6 active torsions:
REMARK  status: ('A' for Active; 'I' for Inactive)
REMARK    1  A    between atoms: C_1  and  C_2
REMARK    2  A    between atoms: C_5  and  C_6
REMARK    3  A    between atoms: C_9  and  C_10
REMARK    4  A    between atoms: C_13  and  C_14
REMARK    5  A    between atoms: C_14  and  O_16
REMARK    6  A    between atoms: C_19  and  C_20
REMARK                            x       y       z     vdW  Elec       q    Type
REMARK                         _______ _______ _______ _____ _____    ______ ____
ROOT
ATOM      1  C   UNL     1       0.726  10.303  21.009  0.00  0.00    +0.000 C 
ATOM      2  O   UNL     1       0.798  10.152  22.236  0.00  0.00    +0.000 OA
ATOM      3  N   UNL     1       0.217  11.504  20.519  0.00  0.00    +0.000 N 
ATOM      4  C   UNL     1       0.226  12.635  21.467  0.00  0.00    +0.000 C 
ATOM      5  C   UNL     1       0.429  13.944  20.724  0.00  0.00    +0.000 C 
ATOM      6  S   UNL     1       0.544  13.509  18.980  0.00  0.00    +0.000 S 
ATOM      7  C   UNL     1      -0.257  11.881  19.175  0.00  0.00    +0.000 C 
ENDROOT
BRANCH   7   8
ATOM      8  C   UNL     1      -1.776  11.837  18.983  0.00  0.00    +0.000 A 
ATOM      9  C   UNL     1      -2.597  12.633  19.820  0.00  0.00    +0.000 A 
ATOM     10  C   UNL     1      -3.995  12.601  19.744  0.00  0.00    +0.000 A 
ATOM     11  C   UNL     1      -4.625  11.772  18.826  0.00  0.00    +0.000 A 
ATOM     12  C   UNL     1      -3.856  10.935  18.030  0.00  0.00    +0.000 A 
ATOM     13  C   UNL     1      -2.454  10.934  18.131  0.00  0.00    +0.000 A 
ATOM     14 CL   UNL     1      -1.680   9.672  17.233  0.00  0.00    +0.000 Cl
ENDBRANCH   7   8
BRANCH   1  18
ATOM     15  C   UNL     1       2.409   7.044  18.691  0.00  0.00    +0.000 A 
ATOM     16  C   UNL     1       2.078   6.898  20.043  0.00  0.00    +0.000 A 
ATOM     17  C   UNL     1       1.488   7.954  20.760  0.00  0.00    +0.000 A 
ATOM     18  C   UNL     1       1.233   9.193  20.149  0.00  0.00    +0.000 A 
ATOM     19  C   UNL     1       1.617   9.353  18.821  0.00  0.00    +0.000 A 
ATOM     20  C   UNL     1       2.135   8.279  18.088  0.00  0.00    +0.000 A 
BRANCH  15  25
ATOM     21  C   UNL     1       5.916   4.253  15.818  0.00  0.00    +0.000 C 
ATOM     22  C   UNL     1       4.724   4.650  16.619  0.00  0.00    +0.000 A 
ATOM     23  C   UNL     1       3.646   3.888  17.013  0.00  0.00    +0.000 A 
ATOM     24  C   UNL     1       2.702   4.640  17.776  0.00  0.00    +0.000 A 
ATOM     25  C   UNL     1       3.080   5.960  17.949  0.00  0.00    +0.000 A 
ATOM     26  S   UNL     1       4.595   6.251  17.184  0.00  0.00    +0.000 S 
ENDBRANCH  15  25
ENDBRANCH   1  18
BRANCH   4  27
ATOM     27  C   UNL     1      -1.042  12.639  22.331  0.00  0.00    +0.000 C 
ATOM     28  O   UNL     1      -1.569  13.636  22.803  0.00  0.00    +0.000 OA
BRANCH  27  29
ATOM     29  O   UNL     1      -1.573  11.400  22.501  0.00  0.00    +0.000 OA
ATOM     30  H   UNL     1      -1.397  11.038  23.406  0.00  0.00    +0.000 HD
ENDBRANCH  27  29
ENDBRANCH   4  27
TORSDOF 5
ENDMDL
MODEL 8
REMARK VINA RESULT:      -7.5      3.947      8.988
REMARK  Name = 
REMARK  6 active torsions:
REMARK  status: ('A' for Active; 'I' for Inactive)
REMARK    1  A    between atoms: C_1  and  C_2
REMARK    2  A    between atoms: C_5  and  C_6
REMARK    3  A    between atoms: C_9  and  C_10
REMARK    4  A    between atoms: C_13  and  C_14
REMARK    5  A    between atoms: C_14  and  O_16
REMARK    6  A    between atoms: C_19  and  C_20
REMARK                            x       y       z     vdW  Elec       q    Type
REMARK                         _______ _______ _______ _____ _____    ______ ____
ROOT
ATOM      1  C   UNL     1       0.263  10.286  18.756  0.00  0.00    +0.000 C 
ATOM      2  O   UNL     1      -0.424  10.274  17.726  0.00  0.00    +0.000 OA
ATOM      3  N   UNL     1       0.081  11.331  19.660  0.00  0.00    +0.000 N 
ATOM      4  C   UNL     1      -1.190  12.071  19.533  0.00  0.00    +0.000 C 
ATOM      5  C   UNL     1      -1.646  12.570  20.894  0.00  0.00    +0.000 C 
ATOM      6  S   UNL     1      -0.383  12.041  22.062  0.00  0.00    +0.000 S 
ATOM      7  C   UNL     1       0.905  11.787  20.795  0.00  0.00    +0.000 C 
ENDROOT
BRANCH   7   8
ATOM      8  C   UNL     1       1.820  12.979  20.500  0.00  0.00    +0.000 A 
ATOM      9  C   UNL     1       1.800  14.093  21.375  0.00  0.00    +0.000 A 
ATOM     10  C   UNL     1       2.564  15.243  21.139  0.00  0.00    +0.000 A 
ATOM     11  C   UNL     1       3.377  15.321  20.017  0.00  0.00    +0.000 A 
ATOM     12  C   UNL     1       3.379  14.274  19.107  0.00  0.00    +0.000 A 
ATOM     13  C   UNL     1       2.583  13.136  19.319  0.00  0.00    +0.000 A 
ATOM     14 CL   UNL     1       2.537  12.043  17.977  0.00  0.00    +0.000 Cl
ENDBRANCH   7   8
BRANCH   1  18
ATOM     15  C   UNL     1       2.879   6.848  19.157  0.00  0.00    +0.000 A 
ATOM     16  C   UNL     1       2.760   7.552  17.954  0.00  0.00    +0.000 A 
ATOM     17  C   UNL     1       1.943   8.693  17.863  0.00  0.00    +0.000 A 
ATOM     18  C   UNL     1       1.204   9.148  18.968  0.00  0.00    +0.000 A 
ATOM     19  C   UNL     1       1.280   8.410  20.146  0.00  0.00    +0.000 A 
ATOM     20  C   UNL     1       2.150   7.319  20.258  0.00  0.00    +0.000 A 
BRANCH  15  25
ATOM     21  C   UNL     1       4.425   1.814  19.944  0.00  0.00    +0.000 C 
ATOM     22  C   UNL     1       4.409   3.263  19.597  0.00  0.00    +0.000 A 
ATOM     23  C   UNL     1       5.425   4.051  19.099  0.00  0.00    +0.000 A 
ATOM     24  C   UNL     1       5.011   5.403  18.897  0.00  0.00    +0.000 A 
ATOM     25  C   UNL     1       3.689   5.618  19.244  0.00  0.00    +0.000 A 
ATOM     26  S   UNL     1       2.972   4.154  19.799  0.00  0.00    +0.000 S 
ENDBRANCH  15  25
ENDBRANCH   1  18
BRANCH   4  27
ATOM     27  C   UNL     1      -1.070  13.200  18.501  0.00  0.00    +0.000 C 
ATOM     28  O   UNL     1      -0.729  14.347  18.750  0.00  0.00    +0.000 OA
BRANCH  27  29
ATOM     29  O   UNL     1      -1.344  12.792  17.234  0.00  0.00    +0.000 OA
ATOM     30  H   UNL     1      -2.317  12.758  17.055  0.00  0.00    +0.000 HD
ENDBRANCH  27  29
ENDBRANCH   4  27
TORSDOF 5
ENDMDL
MODEL 9
REMARK VINA RESULT:      -7.4      1.312      1.732
REMARK  Name = 
REMARK  6 active torsions:
REMARK  status: ('A' for Active; 'I' for Inactive)
REMARK    1  A    between atoms: C_1  and  C_2
REMARK    2  A    between atoms: C_5  and  C_6
REMARK    3  A    between atoms: C_9  and  C_10
REMARK    4  A    between atoms: C_13  and  C_14
REMARK    5  A    between atoms: C_14  and  O_16
REMARK    6  A    between atoms: C_19  and  C_20
REMARK                            x       y       z     vdW  Elec       q    Type
REMARK                         _______ _______ _______ _____ _____    ______ ____
ROOT
ATOM      1  C   UNL     1       2.509   5.339  20.154  0.00  0.00    +0.000 C 
ATOM      2  O   UNL     1       2.589   4.905  21.311  0.00  0.00    +0.000 OA
ATOM      3  N   UNL     1       2.745   4.460  19.099  0.00  0.00    +0.000 N 
ATOM      4  C   UNL     1       2.634   3.025  19.427  0.00  0.00    +0.000 C 
ATOM      5  C   UNL     1       2.128   2.248  18.223  0.00  0.00    +0.000 C 
ATOM      6  S   UNL     1       1.916   3.459  16.908  0.00  0.00    +0.000 S 
ATOM      7  C   UNL     1       3.006   4.708  17.670  0.00  0.00    +0.000 C 
ENDROOT
BRANCH   7   8
ATOM      8  C   UNL     1       4.481   4.670  17.260  0.00  0.00    +0.000 A 
ATOM      9  C   UNL     1       4.852   3.957  16.093  0.00  0.00    +0.000 A 
ATOM     10  C   UNL     1       6.186   3.828  15.688  0.00  0.00    +0.000 A 
ATOM     11  C   UNL     1       7.201   4.409  16.436  0.00  0.00    +0.000 A 
ATOM     12  C   UNL     1       6.882   5.066  17.616  0.00  0.00    +0.000 A 
ATOM     13  C   UNL     1       5.549   5.162  18.047  0.00  0.00    +0.000 A 
ATOM     14 CL   UNL     1       5.365   5.809  19.642  0.00  0.00    +0.000 Cl
ENDBRANCH   7   8
BRANCH   1  18
ATOM     15  C   UNL     1       1.117   9.426  19.721  0.00  0.00    +0.000 A 
ATOM     16  C   UNL     1       0.910   8.694  20.895  0.00  0.00    +0.000 A 
ATOM     17  C   UNL     1       1.414   7.387  21.030  0.00  0.00    +0.000 A 
ATOM     18  C   UNL     1       2.120   6.770  19.983  0.00  0.00    +0.000 A 
ATOM     19  C   UNL     1       2.272   7.480  18.796  0.00  0.00    +0.000 A 
ATOM     20  C   UNL     1       1.836   8.806  18.690  0.00  0.00    +0.000 A 
BRANCH  15  25
ATOM     21  C   UNL     1      -1.808  13.830  20.350  0.00  0.00    +0.000 C 
ATOM     22  C   UNL     1      -0.813  12.838  19.853  0.00  0.00    +0.000 A 
ATOM     23  C   UNL     1       0.112  12.964  18.840  0.00  0.00    +0.000 A 
ATOM     24  C   UNL     1       0.890  11.779  18.666  0.00  0.00    +0.000 A 
ATOM     25  C   UNL     1       0.542  10.774  19.552  0.00  0.00    +0.000 A 
ATOM     26  S   UNL     1      -0.723  11.306  20.592  0.00  0.00    +0.000 S 
ENDBRANCH  15  25
ENDBRANCH   1  18
BRANCH   4  27
ATOM     27  C   UNL     1       3.962   2.479  19.966  0.00  0.00    +0.000 C 
ATOM     28  O   UNL     1       4.962   2.272  19.293  0.00  0.00    +0.000 OA
BRANCH  27  29
ATOM     29  O   UNL     1       3.947   2.275  21.309  0.00  0.00    +0.000 OA
ATOM     30  H   UNL     1       4.859   2.254  21.694  0.00  0.00    +0.000 HD
ENDBRANCH  27  29
ENDBRANCH   4  27
TORSDOF 5
ENDMDL
