MODEL 1
REMARK VINA RESULT:      -6.3      0.000      0.000
REMARK  Name = 
REMARK  9 active torsions:
REMARK  status: ('A' for Active; 'I' for Inactive)
REMARK    1  A    between atoms: C_1  and  C_2
REMARK    2  A    between atoms: C_2  and  C_3
REMARK    3  A    between atoms: C_3  and  C_4
REMARK    4  A    between atoms: C_4  and  C_5
REMARK    5  A    between atoms: C_4  and  C_6
REMARK    6  A    between atoms: C_4  and  N_7
REMARK    7  A    between atoms: C_8  and  C_10
REMARK    8  A    between atoms: C_13  and  C_14
REMARK    9  A    between atoms: C_14  and  C_15
REMARK                            x       y       z     vdW  Elec       q    Type
REMARK                         _______ _______ _______ _____ _____    ______ ____
ROOT
ATOM      1  N   UNL     1       4.401   3.349  18.066  0.00  0.00    +0.000 N 
ATOM      2  C   UNL     1       5.364   4.329  18.202  0.00  0.00    +0.000 C 
ATOM      3  O   UNL     1       5.623   4.865  19.278  0.00  0.00    +0.000 OA
ATOM      4  H   UNL     1       4.285   2.952  17.143  0.00  0.00    +0.000 HD
ENDROOT
BRANCH   2   5
ATOM      5  C   UNL     1       6.059   4.680  16.983  0.00  0.00    +0.000 A 
ATOM      6  C   UNL     1       7.027   5.647  16.813  0.00  0.00    +0.000 A 
ATOM      7  N   UNL     1       7.539   5.770  15.533  0.00  0.00    +0.000 NA
ATOM      8  C   UNL     1       6.955   4.894  14.744  0.00  0.00    +0.000 A 
ATOM      9  S   UNL     1       5.773   3.898  15.489  0.00  0.00    +0.000 S 
BRANCH   8  10
ATOM     10  C   UNL     1       7.253   4.726  13.289  0.00  0.00    +0.000 C 
ATOM     11  C   UNL     1       6.368   3.662  12.660  0.00  0.00    +0.000 C 
ENDBRANCH   8  10
ENDBRANCH   2   5
BRANCH   1  12
ATOM     12  C   UNL     1       3.600   2.786  19.163  0.00  0.00    +0.000 C 
ATOM     13  C   UNL     1       4.557   2.090  20.155  0.00  0.00    +0.000 C 
ATOM     14  C   UNL     1       2.638   1.714  18.612  0.00  0.00    +0.000 C 
BRANCH  12  15
ATOM     15  C   UNL     1       2.792   3.894  19.894  0.00  0.00    +0.000 C 
BRANCH  15  17
ATOM     16  C   UNL     1       1.361   2.830  21.693  0.00  0.00    +0.000 C 
ATOM     17  C   UNL     1       1.377   3.468  20.314  0.00  0.00    +0.000 C 
ENDBRANCH  15  17
ENDBRANCH  12  15
ENDBRANCH   1  12
TORSDOF 5
ENDMDL
MODEL 2
REMARK VINA RESULT:      -6.2      1.001      1.682
REMARK  Name = 
REMARK  9 active torsions:
REMARK  status: ('A' for Active; 'I' for Inactive)
REMARK    1  A    between atoms: C_1  and  C_2
REMARK    2  A    between atoms: C_2  and  C_3
REMARK    3  A    between atoms: C_3  and  C_4
REMARK    4  A    between atoms: C_4  and  C_5
REMARK    5  A    between atoms: C_4  and  C_6
REMARK    6  A    between atoms: C_4  and  N_7
REMARK    7  A    between atoms: C_8  and  C_10
REMARK    8  A    between atoms: C_13  and  C_14
REMARK    9  A    between atoms: C_14  and  C_15
REMARK                            x       y       z     vdW  Elec       q    Type
REMARK                         _______ _______ _______ _____ _____    ______ ____
ROOT
ATOM      1  N   UNL     1       3.718   4.438  17.940  0.00  0.00    +0.000 N 
ATOM      2  C   UNL     1       5.076   4.299  18.152  0.00  0.00    +0.000 C 
ATOM      3  O   UNL     1       5.557   4.064  19.259  0.00  0.00    +0.000 OA
ATOM      4  H   UNL     1       3.422   4.602  16.987  0.00  0.00    +0.000 HD
ENDROOT
BRANCH   2   5
ATOM      5  C   UNL     1       5.899   4.445  16.972  0.00  0.00    +0.000 A 
ATOM      6  C   UNL     1       7.263   4.643  16.915  0.00  0.00    +0.000 A 
ATOM      7  N   UNL     1       7.806   4.739  15.645  0.00  0.00    +0.000 NA
ATOM      8  C   UNL     1       6.849   4.612  14.751  0.00  0.00    +0.000 A 
ATOM      9  S   UNL     1       5.270   4.381  15.383  0.00  0.00    +0.000 S 
BRANCH   8  10
ATOM     10  C   UNL     1       7.055   4.656  13.271  0.00  0.00    +0.000 C 
ATOM     11  C   UNL     1       6.291   3.544  12.572  0.00  0.00    +0.000 C 
ENDBRANCH   8  10
ENDBRANCH   2   5
BRANCH   1  12
ATOM     12  C   UNL     1       2.676   4.281  18.966  0.00  0.00    +0.000 C 
ATOM     13  C   UNL     1       1.312   4.149  18.256  0.00  0.00    +0.000 C 
ATOM     14  C   UNL     1       2.621   5.541  19.853  0.00  0.00    +0.000 C 
BRANCH  12  15
ATOM     15  C   UNL     1       2.941   3.027  19.846  0.00  0.00    +0.000 C 
BRANCH  15  17
ATOM     16  C   UNL     1       1.455   2.614  21.856  0.00  0.00    +0.000 C 
ATOM     17  C   UNL     1       1.667   2.350  20.374  0.00  0.00    +0.000 C 
ENDBRANCH  15  17
ENDBRANCH  12  15
ENDBRANCH   1  12
TORSDOF 5
ENDMDL
MODEL 3
REMARK VINA RESULT:      -6.1      2.513      6.655
REMARK  Name = 
REMARK  9 active torsions:
REMARK  status: ('A' for Active; 'I' for Inactive)
REMARK    1  A    between atoms: C_1  and  C_2
REMARK    2  A    between atoms: C_2  and  C_3
REMARK    3  A    between atoms: C_3  and  C_4
REMARK    4  A    between atoms: C_4  and  C_5
REMARK    5  A    between atoms: C_4  and  C_6
REMARK    6  A    between atoms: C_4  and  N_7
REMARK    7  A    between atoms: C_8  and  C_10
REMARK    8  A    between atoms: C_13  and  C_14
REMARK    9  A    between atoms: C_14  and  C_15
REMARK                            x       y       z     vdW  Elec       q    Type
REMARK                         _______ _______ _______ _____ _____    ______ ____
ROOT
ATOM      1  N   UNL     1       5.991   3.474  13.727  0.00  0.00    +0.000 N 
ATOM      2  C   UNL     1       6.545   4.506  14.460  0.00  0.00    +0.000 C 
ATOM      3  O   UNL     1       7.144   5.445  13.940  0.00  0.00    +0.000 OA
ATOM      4  H   UNL     1       5.494   2.764  14.247  0.00  0.00    +0.000 HD
ENDROOT
BRANCH   2   5
ATOM      5  C   UNL     1       6.364   4.408  15.891  0.00  0.00    +0.000 A 
ATOM      6  C   UNL     1       7.326   4.523  16.872  0.00  0.00    +0.000 A 
ATOM      7  N   UNL     1       6.877   4.397  18.175  0.00  0.00    +0.000 NA
ATOM      8  C   UNL     1       5.579   4.188  18.171  0.00  0.00    +0.000 A 
ATOM      9  S   UNL     1       4.843   4.127  16.621  0.00  0.00    +0.000 S 
BRANCH   8  10
ATOM     10  C   UNL     1       4.740   4.009  19.395  0.00  0.00    +0.000 C 
ATOM     11  C   UNL     1       3.817   5.196  19.615  0.00  0.00    +0.000 C 
ENDBRANCH   8  10
ENDBRANCH   2   5
BRANCH   1  12
ATOM     12  C   UNL     1       5.995   3.375  12.260  0.00  0.00    +0.000 C 
ATOM     13  C   UNL     1       6.021   1.881  11.874  0.00  0.00    +0.000 C 
ATOM     14  C   UNL     1       7.274   4.025  11.695  0.00  0.00    +0.000 C 
BRANCH  12  15
ATOM     15  C   UNL     1       4.741   4.059  11.648  0.00  0.00    +0.000 C 
BRANCH  15  17
ATOM     16  C   UNL     1       3.046   3.791   9.785  0.00  0.00    +0.000 C 
ATOM     17  C   UNL     1       3.798   3.098  10.909  0.00  0.00    +0.000 C 
ENDBRANCH  15  17
ENDBRANCH  12  15
ENDBRANCH   1  12
TORSDOF 5
ENDMDL
MODEL 4
REMARK VINA RESULT:      -6.1      1.168      1.398
REMARK  Name = 
REMARK  9 active torsions:
REMARK  status: ('A' for Active; 'I' for Inactive)
REMARK    1  A    between atoms: C_1  and  C_2
REMARK    2  A    between atoms: C_2  and  C_3
REMARK    3  A    between atoms: C_3  and  C_4
REMARK    4  A    between atoms: C_4  and  C_5
REMARK    5  A    between atoms: C_4  and  C_6
REMARK    6  A    between atoms: C_4  and  N_7
REMARK    7  A    between atoms: C_8  and  C_10
REMARK    8  A    between atoms: C_13  and  C_14
REMARK    9  A    between atoms: C_14  and  C_15
REMARK                            x       y       z     vdW  Elec       q    Type
REMARK                         _______ _______ _______ _____ _____    ______ ____
ROOT
ATOM      1  N   UNL     1       3.910   3.724  17.375  0.00  0.00    +0.000 N 
ATOM      2  C   UNL     1       4.420   4.989  17.158  0.00  0.00    +0.000 C 
ATOM      3  O   UNL     1       4.001   5.986  17.744  0.00  0.00    +0.000 OA
ATOM      4  H   UNL     1       4.342   2.967  16.864  0.00  0.00    +0.000 HD
ENDROOT
BRANCH   2   5
ATOM      5  C   UNL     1       5.492   5.060  16.191  0.00  0.00    +0.000 A 
ATOM      6  C   UNL     1       6.762   5.568  16.376  0.00  0.00    +0.000 A 
ATOM      7  N   UNL     1       7.603   5.504  15.279  0.00  0.00    +0.000 NA
ATOM      8  C   UNL     1       6.965   4.946  14.273  0.00  0.00    +0.000 A 
ATOM      9  S   UNL     1       5.343   4.485  14.588  0.00  0.00    +0.000 S 
BRANCH   8  10
ATOM     10  C   UNL     1       7.555   4.702  12.921  0.00  0.00    +0.000 C 
ATOM     11  C   UNL     1       6.742   3.685  12.136  0.00  0.00    +0.000 C 
ENDBRANCH   8  10
ENDBRANCH   2   5
BRANCH   1  12
ATOM     12  C   UNL     1       2.856   3.386  18.344  0.00  0.00    +0.000 C 
ATOM     13  C   UNL     1       2.588   1.868  18.259  0.00  0.00    +0.000 C 
ATOM     14  C   UNL     1       1.549   4.113  17.970  0.00  0.00    +0.000 C 
BRANCH  12  15
ATOM     15  C   UNL     1       3.280   3.771  19.789  0.00  0.00    +0.000 C 
BRANCH  15  17
ATOM     16  C   UNL     1       1.743   3.006  21.652  0.00  0.00    +0.000 C 
ATOM     17  C   UNL     1       2.108   4.141  20.710  0.00  0.00    +0.000 C 
ENDBRANCH  15  17
ENDBRANCH  12  15
ENDBRANCH   1  12
TORSDOF 5
ENDMDL
MODEL 5
REMARK VINA RESULT:      -6.1      0.843      1.259
REMARK  Name = 
REMARK  9 active torsions:
REMARK  status: ('A' for Active; 'I' for Inactive)
REMARK    1  A    between atoms: C_1  and  C_2
REMARK    2  A    between atoms: C_2  and  C_3
REMARK    3  A    between atoms: C_3  and  C_4
REMARK    4  A    between atoms: C_4  and  C_5
REMARK    5  A    between atoms: C_4  and  C_6
REMARK    6  A    between atoms: C_4  and  N_7
REMARK    7  A    between atoms: C_8  and  C_10
REMARK    8  A    between atoms: C_13  and  C_14
REMARK    9  A    between atoms: C_14  and  C_15
REMARK                            x       y       z     vdW  Elec       q    Type
REMARK                         _______ _______ _______ _____ _____    ______ ____
ROOT
ATOM      1  N   UNL     1       4.289   3.548  18.100  0.00  0.00    +0.000 N 
ATOM      2  C   UNL     1       5.488   4.222  18.222  0.00  0.00    +0.000 C 
ATOM      3  O   UNL     1       5.994   4.491  19.310  0.00  0.00    +0.000 OA
ATOM      4  H   UNL     1       3.973   3.350  17.160  0.00  0.00    +0.000 HD
ENDROOT
BRANCH   2   5
ATOM      5  C   UNL     1       6.116   4.587  16.972  0.00  0.00    +0.000 A 
ATOM      6  C   UNL     1       7.053   5.576  16.756  0.00  0.00    +0.000 A 
ATOM      7  N   UNL     1       7.501   5.709  15.453  0.00  0.00    +0.000 NA
ATOM      8  C   UNL     1       6.901   4.819  14.693  0.00  0.00    +0.000 A 
ATOM      9  S   UNL     1       5.779   3.797  15.493  0.00  0.00    +0.000 S 
BRANCH   8  10
ATOM     10  C   UNL     1       7.135   4.655  13.225  0.00  0.00    +0.000 C 
ATOM     11  C   UNL     1       6.257   3.561  12.642  0.00  0.00    +0.000 C 
ENDBRANCH   8  10
ENDBRANCH   2   5
BRANCH   1  12
ATOM     12  C   UNL     1       3.489   3.026  19.219  0.00  0.00    +0.000 C 
ATOM     13  C   UNL     1       4.403   2.151  20.102  0.00  0.00    +0.000 C 
ATOM     14  C   UNL     1       2.360   2.126  18.679  0.00  0.00    +0.000 C 
BRANCH  12  15
ATOM     15  C   UNL     1       2.885   4.183  20.063  0.00  0.00    +0.000 C 
BRANCH  15  17
ATOM     16  C   UNL     1       2.414   6.652  19.744  0.00  0.00    +0.000 C 
ATOM     17  C   UNL     1       2.146   5.245  19.235  0.00  0.00    +0.000 C 
ENDBRANCH  15  17
ENDBRANCH  12  15
ENDBRANCH   1  12
TORSDOF 5
ENDMDL
MODEL 6
REMARK VINA RESULT:      -6.1      2.322      6.465
REMARK  Name = 
REMARK  9 active torsions:
REMARK  status: ('A' for Active; 'I' for Inactive)
REMARK    1  A    between atoms: C_1  and  C_2
REMARK    2  A    between atoms: C_2  and  C_3
REMARK    3  A    between atoms: C_3  and  C_4
REMARK    4  A    between atoms: C_4  and  C_5
REMARK    5  A    between atoms: C_4  and  C_6
REMARK    6  A    between atoms: C_4  and  N_7
REMARK    7  A    between atoms: C_8  and  C_10
REMARK    8  A    between atoms: C_13  and  C_14
REMARK    9  A    between atoms: C_14  and  C_15
REMARK                            x       y       z     vdW  Elec       q    Type
REMARK                         _______ _______ _______ _____ _____    ______ ____
ROOT
ATOM      1  N   UNL     1       5.493   5.341  17.790  0.00  0.00    +0.000 N 
ATOM      2  C   UNL     1       4.344   6.106  17.852  0.00  0.00    +0.000 C 
ATOM      3  O   UNL     1       4.187   7.127  17.185  0.00  0.00    +0.000 OA
ATOM      4  H   UNL     1       5.512   4.504  18.357  0.00  0.00    +0.000 HD
ENDROOT
BRANCH   2   5
ATOM      5  C   UNL     1       3.329   5.616  18.758  0.00  0.00    +0.000 A 
ATOM      6  C   UNL     1       2.617   6.335  19.695  0.00  0.00    +0.000 A 
ATOM      7  N   UNL     1       1.690   5.616  20.430  0.00  0.00    +0.000 NA
ATOM      8  C   UNL     1       1.706   4.360  20.042  0.00  0.00    +0.000 A 
ATOM      9  S   UNL     1       2.826   3.982  18.798  0.00  0.00    +0.000 S 
BRANCH   8  10
ATOM     10  C   UNL     1       0.834   3.283  20.605  0.00  0.00    +0.000 C 
ATOM     11  C   UNL     1       1.532   2.534  21.727  0.00  0.00    +0.000 C 
ENDBRANCH   8  10
ENDBRANCH   2   5
BRANCH   1  12
ATOM     12  C   UNL     1       6.641   5.601  16.909  0.00  0.00    +0.000 C 
ATOM     13  C   UNL     1       7.701   4.507  17.159  0.00  0.00    +0.000 C 
ATOM     14  C   UNL     1       7.278   6.958  17.266  0.00  0.00    +0.000 C 
BRANCH  12  15
ATOM     15  C   UNL     1       6.214   5.594  15.415  0.00  0.00    +0.000 C 
BRANCH  15  17
ATOM     16  C   UNL     1       6.176   3.858  13.570  0.00  0.00    +0.000 C 
ATOM     17  C   UNL     1       5.633   4.256  14.932  0.00  0.00    +0.000 C 
ENDBRANCH  15  17
ENDBRANCH  12  15
ENDBRANCH   1  12
TORSDOF 5
ENDMDL
MODEL 7
REMARK VINA RESULT:      -6.1      1.585      2.133
REMARK  Name = 
REMARK  9 active torsions:
REMARK  status: ('A' for Active; 'I' for Inactive)
REMARK    1  A    between atoms: C_1  and  C_2
REMARK    2  A    between atoms: C_2  and  C_3
REMARK    3  A    between atoms: C_3  and  C_4
REMARK    4  A    between atoms: C_4  and  C_5
REMARK    5  A    between atoms: C_4  and  C_6
REMARK    6  A    between atoms: C_4  and  N_7
REMARK    7  A    between atoms: C_8  and  C_10
REMARK    8  A    between atoms: C_13  and  C_14
REMARK    9  A    between atoms: C_14  and  C_15
REMARK                            x       y       z     vdW  Elec       q    Type
REMARK                         _______ _______ _______ _____ _____    ______ ____
ROOT
ATOM      1  N   UNL     1       3.930   5.308  17.682  0.00  0.00    +0.000 N 
ATOM      2  C   UNL     1       4.564   4.244  17.070  0.00  0.00    +0.000 C 
ATOM      3  O   UNL     1       4.268   3.072  17.295  0.00  0.00    +0.000 OA
ATOM      4  H   UNL     1       4.229   6.234  17.406  0.00  0.00    +0.000 HD
ENDROOT
BRANCH   2   5
ATOM      5  C   UNL     1       5.604   4.608  16.133  0.00  0.00    +0.000 A 
ATOM      6  C   UNL     1       6.763   5.311  16.390  0.00  0.00    +0.000 A 
ATOM      7  N   UNL     1       7.598   5.514  15.305  0.00  0.00    +0.000 NA
ATOM      8  C   UNL     1       7.067   4.962  14.236  0.00  0.00    +0.000 A 
ATOM      9  S   UNL     1       5.554   4.188  14.476  0.00  0.00    +0.000 S 
BRANCH   8  10
ATOM     10  C   UNL     1       7.687   4.970  12.875  0.00  0.00    +0.000 C 
ATOM     11  C   UNL     1       7.017   3.964  11.954  0.00  0.00    +0.000 C 
ENDBRANCH   8  10
ENDBRANCH   2   5
BRANCH   1  12
ATOM     12  C   UNL     1       2.810   5.200  18.628  0.00  0.00    +0.000 C 
ATOM     13  C   UNL     1       1.616   4.552  17.895  0.00  0.00    +0.000 C 
ATOM     14  C   UNL     1       2.372   6.606  19.083  0.00  0.00    +0.000 C 
BRANCH  12  15
ATOM     15  C   UNL     1       3.202   4.343  19.865  0.00  0.00    +0.000 C 
BRANCH  15  17
ATOM     16  C   UNL     1       1.629   3.022  21.346  0.00  0.00    +0.000 C 
ATOM     17  C   UNL     1       2.185   4.396  21.014  0.00  0.00    +0.000 C 
ENDBRANCH  15  17
ENDBRANCH  12  15
ENDBRANCH   1  12
TORSDOF 5
ENDMDL
MODEL 8
REMARK VINA RESULT:      -6.0      0.950      1.289
REMARK  Name = 
REMARK  9 active torsions:
REMARK  status: ('A' for Active; 'I' for Inactive)
REMARK    1  A    between atoms: C_1  and  C_2
REMARK    2  A    between atoms: C_2  and  C_3
REMARK    3  A    between atoms: C_3  and  C_4
REMARK    4  A    between atoms: C_4  and  C_5
REMARK    5  A    between atoms: C_4  and  C_6
REMARK    6  A    between atoms: C_4  and  N_7
REMARK    7  A    between atoms: C_8  and  C_10
REMARK    8  A    between atoms: C_13  and  C_14
REMARK    9  A    between atoms: C_14  and  C_15
REMARK                            x       y       z     vdW  Elec       q    Type
REMARK                         _______ _______ _______ _____ _____    ______ ____
ROOT
ATOM      1  N   UNL     1       3.813   3.996  17.552  0.00  0.00    +0.000 N 
ATOM      2  C   UNL     1       5.163   4.144  17.804  0.00  0.00    +0.000 C 
ATOM      3  O   UNL     1       5.662   3.938  18.908  0.00  0.00    +0.000 OA
ATOM      4  H   UNL     1       3.508   4.162  16.602  0.00  0.00    +0.000 HD
ENDROOT
BRANCH   2   5
ATOM      5  C   UNL     1       5.957   4.556  16.667  0.00  0.00    +0.000 A 
ATOM      6  C   UNL     1       6.984   5.477  16.645  0.00  0.00    +0.000 A 
ATOM      7  N   UNL     1       7.588   5.677  15.416  0.00  0.00    +0.000 NA
ATOM      8  C   UNL     1       7.016   4.906  14.518  0.00  0.00    +0.000 A 
ATOM      9  S   UNL     1       5.735   3.920  15.095  0.00  0.00    +0.000 S 
BRANCH   8  10
ATOM     10  C   UNL     1       7.405   4.844  13.076  0.00  0.00    +0.000 C 
ATOM     11  C   UNL     1       8.466   5.879  12.742  0.00  0.00    +0.000 C 
ENDBRANCH   8  10
ENDBRANCH   2   5
BRANCH   1  12
ATOM     12  C   UNL     1       2.812   3.537  18.526  0.00  0.00    +0.000 C 
ATOM     13  C   UNL     1       2.919   2.002  18.646  0.00  0.00    +0.000 C 
ATOM     14  C   UNL     1       1.395   3.869  18.016  0.00  0.00    +0.000 C 
BRANCH  12  15
ATOM     15  C   UNL     1       3.040   4.195  19.916  0.00  0.00    +0.000 C 
BRANCH  15  17
ATOM     16  C   UNL     1       1.800   3.051  21.805  0.00  0.00    +0.000 C 
ATOM     17  C   UNL     1       1.797   4.206  20.818  0.00  0.00    +0.000 C 
ENDBRANCH  15  17
ENDBRANCH  12  15
ENDBRANCH   1  12
TORSDOF 5
ENDMDL
MODEL 9
REMARK VINA RESULT:      -6.0      1.776      2.372
REMARK  Name = 
REMARK  9 active torsions:
REMARK  status: ('A' for Active; 'I' for Inactive)
REMARK    1  A    between atoms: C_1  and  C_2
REMARK    2  A    between atoms: C_2  and  C_3
REMARK    3  A    between atoms: C_3  and  C_4
REMARK    4  A    between atoms: C_4  and  C_5
REMARK    5  A    between atoms: C_4  and  C_6
REMARK    6  A    between atoms: C_4  and  N_7
REMARK    7  A    between atoms: C_8  and  C_10
REMARK    8  A    between atoms: C_13  and  C_14
REMARK    9  A    between atoms: C_14  and  C_15
REMARK                            x       y       z     vdW  Elec       q    Type
REMARK                         _______ _______ _______ _____ _____    ______ ____
ROOT
ATOM      1  N   UNL     1       4.076   5.549  17.492  0.00  0.00    +0.000 N 
ATOM      2  C   UNL     1       4.662   4.421  16.951  0.00  0.00    +0.000 C 
ATOM      3  O   UNL     1       4.353   3.281  17.293  0.00  0.00    +0.000 OA
ATOM      4  H   UNL     1       4.379   6.440  17.122  0.00  0.00    +0.000 HD
ENDROOT
BRANCH   2   5
ATOM      5  C   UNL     1       5.666   4.676  15.942  0.00  0.00    +0.000 A 
ATOM      6  C   UNL     1       6.882   5.306  16.104  0.00  0.00    +0.000 A 
ATOM      7  N   UNL     1       7.663   5.410  14.966  0.00  0.00    +0.000 NA
ATOM      8  C   UNL     1       7.034   4.856  13.953  0.00  0.00    +0.000 A 
ATOM      9  S   UNL     1       5.490   4.197  14.310  0.00  0.00    +0.000 S 
BRANCH   8  10
ATOM     10  C   UNL     1       7.571   4.770  12.560  0.00  0.00    +0.000 C 
ATOM     11  C   UNL     1       6.972   3.594  11.806  0.00  0.00    +0.000 C 
ENDBRANCH   8  10
ENDBRANCH   2   5
BRANCH   1  12
ATOM     12  C   UNL     1       2.997   5.551  18.491  0.00  0.00    +0.000 C 
ATOM     13  C   UNL     1       2.527   7.007  18.695  0.00  0.00    +0.000 C 
ATOM     14  C   UNL     1       3.533   5.040  19.843  0.00  0.00    +0.000 C 
BRANCH  12  15
ATOM     15  C   UNL     1       1.804   4.668  18.029  0.00  0.00    +0.000 C 
BRANCH  15  17
ATOM     16  C   UNL     1       1.111   2.316  18.663  0.00  0.00    +0.000 C 
ATOM     17  C   UNL     1       1.232   3.758  19.126  0.00  0.00    +0.000 C 
ENDBRANCH  15  17
ENDBRANCH  12  15
ENDBRANCH   1  12
TORSDOF 5
ENDMDL
