MODEL 1
REMARK VINA RESULT:      -7.8      0.000      0.000
REMARK  Name = 
REMARK  6 active torsions:
REMARK  status: ('A' for Active; 'I' for Inactive)
REMARK    1  A    between atoms: C_1  and  C_2
REMARK    2  A    between atoms: N_4  and  C_5
REMARK    3  A    between atoms: C_5  and  C_6
REMARK    4  A    between atoms: N_8  and  C_9
REMARK    5  A    between atoms: C_9  and  C_10
REMARK    6  A    between atoms: C_9  and  C_11
REMARK                            x       y       z     vdW  Elec       q    Type
REMARK                         _______ _______ _______ _____ _____    ______ ____
ROOT
ATOM      1  C   UNL     1       6.141   5.036  16.970  0.00  0.00    +0.000 C 
ENDROOT
BRANCH   1   5
ATOM      2  C   UNL     1       2.631   7.029  19.551  0.00  0.00    +0.000 C 
ATOM      3  C   UNL     1       3.176   5.798  18.869  0.00  0.00    +0.000 A 
ATOM      4  N   UNL     1       4.293   5.920  18.220  0.00  0.00    +0.000 NA
ATOM      5  N   UNL     1       4.828   4.829  17.585  0.00  0.00    +0.000 N 
ATOM      6  C   UNL     1       4.234   3.573  17.564  0.00  0.00    +0.000 A 
ATOM      7  O   UNL     1       4.675   2.624  16.919  0.00  0.00    +0.000 OA
ATOM      8  C   UNL     1       2.999   3.414  18.357  0.00  0.00    +0.000 A 
ATOM      9  C   UNL     1       2.391   2.157  18.484  0.00  0.00    +0.000 A 
ATOM     10  C   UNL     1       1.219   2.022  19.229  0.00  0.00    +0.000 A 
ATOM     11  C   UNL     1       0.647   3.139  19.837  0.00  0.00    +0.000 A 
ATOM     12  C   UNL     1       1.257   4.391  19.719  0.00  0.00    +0.000 A 
ATOM     13  C   UNL     1       2.445   4.523  18.988  0.00  0.00    +0.000 A 
ENDBRANCH   1   5
BRANCH   1  14
ATOM     14  C   UNL     1       6.084   5.460  15.504  0.00  0.00    +0.000 C 
ATOM     15  O   UNL     1       5.531   6.504  15.156  0.00  0.00    +0.000 OA
ATOM     16  N   UNL     1       6.843   4.698  14.639  0.00  0.00    +0.000 N 
ATOM     17  H   UNL     1       7.210   3.816  14.979  0.00  0.00    +0.000 HD
BRANCH  16  18
ATOM     18  C   UNL     1       6.873   4.974  13.212  0.00  0.00    +0.000 C 
ATOM     19  C   UNL     1       8.226   5.551  12.796  0.00  0.00    +0.000 C 
BRANCH  18  20
ATOM     20  C   UNL     1       6.529   3.727  12.419  0.00  0.00    +0.000 A 
ATOM     21  C   UNL     1       7.552   2.934  11.876  0.00  0.00    +0.000 A 
ATOM     22  C   UNL     1       7.251   1.795  11.128  0.00  0.00    +0.000 A 
ATOM     23  C   UNL     1       5.922   1.436  10.910  0.00  0.00    +0.000 A 
ATOM     24  C   UNL     1       4.895   2.210  11.444  0.00  0.00    +0.000 A 
ATOM     25  C   UNL     1       5.195   3.347  12.196  0.00  0.00    +0.000 A 
ENDBRANCH  18  20
ENDBRANCH  16  18
ENDBRANCH   1  14
TORSDOF 4
ENDMDL
MODEL 2
REMARK VINA RESULT:      -7.5      5.415      8.663
REMARK  Name = 
REMARK  6 active torsions:
REMARK  status: ('A' for Active; 'I' for Inactive)
REMARK    1  A    between atoms: C_1  and  C_2
REMARK    2  A    between atoms: N_4  and  C_5
REMARK    3  A    between atoms: C_5  and  C_6
REMARK    4  A    between atoms: N_8  and  C_9
REMARK    5  A    between atoms: C_9  and  C_10
REMARK    6  A    between atoms: C_9  and  C_11
REMARK                            x       y       z     vdW  Elec       q    Type
REMARK                         _______ _______ _______ _____ _____    ______ ____
ROOT
ATOM      1  C   UNL     1       1.444  10.017  19.276  0.00  0.00    +0.000 C 
ENDROOT
BRANCH   1   5
ATOM      2  C   UNL     1      -2.423   9.847  16.452  0.00  0.00    +0.000 C 
ATOM      3  C   UNL     1      -1.798  10.333  17.737  0.00  0.00    +0.000 A 
ATOM      4  N   UNL     1      -0.577   9.970  17.982  0.00  0.00    +0.000 NA
ATOM      5  N   UNL     1       0.034  10.387  19.137  0.00  0.00    +0.000 N 
ATOM      6  C   UNL     1      -0.584  11.171  20.102  0.00  0.00    +0.000 A 
ATOM      7  O   UNL     1      -0.060  11.467  21.175  0.00  0.00    +0.000 OA
ATOM      8  C   UNL     1      -1.949  11.642  19.796  0.00  0.00    +0.000 A 
ATOM      9  C   UNL     1      -2.609  12.527  20.661  0.00  0.00    +0.000 A 
ATOM     10  C   UNL     1      -3.902  12.957  20.364  0.00  0.00    +0.000 A 
ATOM     11  C   UNL     1      -4.543  12.497  19.214  0.00  0.00    +0.000 A 
ATOM     12  C   UNL     1      -3.884  11.621  18.347  0.00  0.00    +0.000 A 
ATOM     13  C   UNL     1      -2.577  11.206  18.634  0.00  0.00    +0.000 A 
ENDBRANCH   1   5
BRANCH   1  14
ATOM     14  C   UNL     1       1.893   8.903  18.333  0.00  0.00    +0.000 C 
ATOM     15  O   UNL     1       2.140   9.123  17.147  0.00  0.00    +0.000 OA
ATOM     16  N   UNL     1       2.176   7.695  18.940  0.00  0.00    +0.000 N 
ATOM     17  H   UNL     1       1.882   7.565  19.901  0.00  0.00    +0.000 HD
BRANCH  16  18
ATOM     18  C   UNL     1       2.599   6.539  18.166  0.00  0.00    +0.000 C 
ATOM     19  C   UNL     1       4.122   6.490  18.047  0.00  0.00    +0.000 C 
BRANCH  18  20
ATOM     20  C   UNL     1       2.043   5.262  18.767  0.00  0.00    +0.000 A 
ATOM     21  C   UNL     1       1.710   4.181  17.936  0.00  0.00    +0.000 A 
ATOM     22  C   UNL     1       1.179   3.006  18.471  0.00  0.00    +0.000 A 
ATOM     23  C   UNL     1       0.971   2.899  19.845  0.00  0.00    +0.000 A 
ATOM     24  C   UNL     1       1.299   3.961  20.685  0.00  0.00    +0.000 A 
ATOM     25  C   UNL     1       1.833   5.134  20.151  0.00  0.00    +0.000 A 
ENDBRANCH  18  20
ENDBRANCH  16  18
ENDBRANCH   1  14
TORSDOF 4
ENDMDL
MODEL 3
REMARK VINA RESULT:      -7.5      1.159      2.434
REMARK  Name = 
REMARK  6 active torsions:
REMARK  status: ('A' for Active; 'I' for Inactive)
REMARK    1  A    between atoms: C_1  and  C_2
REMARK    2  A    between atoms: N_4  and  C_5
REMARK    3  A    between atoms: C_5  and  C_6
REMARK    4  A    between atoms: N_8  and  C_9
REMARK    5  A    between atoms: C_9  and  C_10
REMARK    6  A    between atoms: C_9  and  C_11
REMARK                            x       y       z     vdW  Elec       q    Type
REMARK                         _______ _______ _______ _____ _____    ______ ____
ROOT
ATOM      1  C   UNL     1       6.670   4.677  17.014  0.00  0.00    +0.000 C 
ENDROOT
BRANCH   1   5
ATOM      2  C   UNL     1       3.246   1.487  18.042  0.00  0.00    +0.000 C 
ATOM      3  C   UNL     1       3.802   2.875  18.243  0.00  0.00    +0.000 A 
ATOM      4  N   UNL     1       4.921   3.162  17.651  0.00  0.00    +0.000 NA
ATOM      5  N   UNL     1       5.465   4.411  17.803  0.00  0.00    +0.000 N 
ATOM      6  C   UNL     1       4.905   5.412  18.586  0.00  0.00    +0.000 A 
ATOM      7  O   UNL     1       5.444   6.499  18.789  0.00  0.00    +0.000 OA
ATOM      8  C   UNL     1       3.599   5.113  19.206  0.00  0.00    +0.000 A 
ATOM      9  C   UNL     1       2.907   6.099  19.922  0.00  0.00    +0.000 A 
ATOM     10  C   UNL     1       1.678   5.801  20.511  0.00  0.00    +0.000 A 
ATOM     11  C   UNL     1       1.145   4.517  20.397  0.00  0.00    +0.000 A 
ATOM     12  C   UNL     1       1.829   3.535  19.676  0.00  0.00    +0.000 A 
ATOM     13  C   UNL     1       3.054   3.841  19.068  0.00  0.00    +0.000 A 
ENDBRANCH   1   5
BRANCH   1  14
ATOM     14  C   UNL     1       6.390   5.178  15.599  0.00  0.00    +0.000 C 
ATOM     15  O   UNL     1       5.705   6.179  15.393  0.00  0.00    +0.000 OA
ATOM     16  N   UNL     1       7.102   4.546  14.598  0.00  0.00    +0.000 N 
ATOM     17  H   UNL     1       7.590   3.688  14.830  0.00  0.00    +0.000 HD
BRANCH  16  18
ATOM     18  C   UNL     1       6.928   4.906  13.200  0.00  0.00    +0.000 C 
ATOM     19  C   UNL     1       8.175   5.603  12.657  0.00  0.00    +0.000 C 
BRANCH  18  20
ATOM     20  C   UNL     1       6.565   3.685  12.376  0.00  0.00    +0.000 A 
ATOM     21  C   UNL     1       5.217   3.359  12.161  0.00  0.00    +0.000 A 
ATOM     22  C   UNL     1       4.866   2.228  11.421  0.00  0.00    +0.000 A 
ATOM     23  C   UNL     1       5.858   1.408  10.890  0.00  0.00    +0.000 A 
ATOM     24  C   UNL     1       7.201   1.720  11.090  0.00  0.00    +0.000 A 
ATOM     25  C   UNL     1       7.553   2.852  11.827  0.00  0.00    +0.000 A 
ENDBRANCH  18  20
ENDBRANCH  16  18
ENDBRANCH   1  14
TORSDOF 4
ENDMDL
MODEL 4
REMARK VINA RESULT:      -7.4      1.123      2.238
REMARK  Name = 
REMARK  6 active torsions:
REMARK  status: ('A' for Active; 'I' for Inactive)
REMARK    1  A    between atoms: C_1  and  C_2
REMARK    2  A    between atoms: N_4  and  C_5
REMARK    3  A    between atoms: C_5  and  C_6
REMARK    4  A    between atoms: N_8  and  C_9
REMARK    5  A    between atoms: C_9  and  C_10
REMARK    6  A    between atoms: C_9  and  C_11
REMARK                            x       y       z     vdW  Elec       q    Type
REMARK                         _______ _______ _______ _____ _____    ______ ____
ROOT
ATOM      1  C   UNL     1       6.587   4.582  16.950  0.00  0.00    +0.000 C 
ENDROOT
BRANCH   1   5
ATOM      2  C   UNL     1       3.271   1.407  18.318  0.00  0.00    +0.000 C 
ATOM      3  C   UNL     1       3.800   2.818  18.398  0.00  0.00    +0.000 A 
ATOM      4  N   UNL     1       4.894   3.083  17.752  0.00  0.00    +0.000 NA
ATOM      5  N   UNL     1       5.414   4.351  17.794  0.00  0.00    +0.000 N 
ATOM      6  C   UNL     1       4.853   5.396  18.516  0.00  0.00    +0.000 A 
ATOM      7  O   UNL     1       5.373   6.506  18.621  0.00  0.00    +0.000 OA
ATOM      8  C   UNL     1       3.573   5.117  19.198  0.00  0.00    +0.000 A 
ATOM      9  C   UNL     1       2.880   6.139  19.859  0.00  0.00    +0.000 A 
ATOM     10  C   UNL     1       1.676   5.860  20.507  0.00  0.00    +0.000 A 
ATOM     11  C   UNL     1       1.170   4.561  20.505  0.00  0.00    +0.000 A 
ATOM     12  C   UNL     1       1.855   3.541  19.839  0.00  0.00    +0.000 A 
ATOM     13  C   UNL     1       3.054   3.827  19.171  0.00  0.00    +0.000 A 
ENDBRANCH   1   5
BRANCH   1  14
ATOM     14  C   UNL     1       6.255   4.988  15.516  0.00  0.00    +0.000 C 
ATOM     15  O   UNL     1       5.272   5.681  15.253  0.00  0.00    +0.000 OA
ATOM     16  N   UNL     1       7.221   4.684  14.577  0.00  0.00    +0.000 N 
ATOM     17  H   UNL     1       7.967   4.052  14.849  0.00  0.00    +0.000 HD
BRANCH  16  18
ATOM     18  C   UNL     1       7.036   4.995  13.169  0.00  0.00    +0.000 C 
ATOM     19  C   UNL     1       8.295   5.630  12.581  0.00  0.00    +0.000 C 
BRANCH  18  20
ATOM     20  C   UNL     1       6.619   3.757  12.398  0.00  0.00    +0.000 A 
ATOM     21  C   UNL     1       7.594   2.913  11.845  0.00  0.00    +0.000 A 
ATOM     22  C   UNL     1       7.227   1.780  11.116  0.00  0.00    +0.000 A 
ATOM     23  C   UNL     1       5.880   1.480  10.929  0.00  0.00    +0.000 A 
ATOM     24  C   UNL     1       4.899   2.305  11.475  0.00  0.00    +0.000 A 
ATOM     25  C   UNL     1       5.265   3.435  12.206  0.00  0.00    +0.000 A 
ENDBRANCH  18  20
ENDBRANCH  16  18
ENDBRANCH   1  14
TORSDOF 4
ENDMDL
MODEL 5
REMARK VINA RESULT:      -7.3      1.512      2.183
REMARK  Name = 
REMARK  6 active torsions:
REMARK  status: ('A' for Active; 'I' for Inactive)
REMARK    1  A    between atoms: C_1  and  C_2
REMARK    2  A    between atoms: N_4  and  C_5
REMARK    3  A    between atoms: C_5  and  C_6
REMARK    4  A    between atoms: N_8  and  C_9
REMARK    5  A    between atoms: C_9  and  C_10
REMARK    6  A    between atoms: C_9  and  C_11
REMARK                            x       y       z     vdW  Elec       q    Type
REMARK                         _______ _______ _______ _____ _____    ______ ____
ROOT
ATOM      1  C   UNL     1       3.875   7.218  17.077  0.00  0.00    +0.000 C 
ENDROOT
BRANCH   1   5
ATOM      2  C   UNL     1       1.436   7.198  21.200  0.00  0.00    +0.000 C 
ATOM      3  C   UNL     1       2.002   6.408  20.046  0.00  0.00    +0.000 A 
ATOM      4  N   UNL     1       2.599   7.072  19.104  0.00  0.00    +0.000 NA
ATOM      5  N   UNL     1       3.130   6.399  18.034  0.00  0.00    +0.000 N 
ATOM      6  C   UNL     1       3.053   5.022  17.867  0.00  0.00    +0.000 A 
ATOM      7  O   UNL     1       3.453   4.435  16.863  0.00  0.00    +0.000 OA
ATOM      8  C   UNL     1       2.435   4.257  18.968  0.00  0.00    +0.000 A 
ATOM      9  C   UNL     1       2.412   2.856  18.938  0.00  0.00    +0.000 A 
ATOM     10  C   UNL     1       1.817   2.145  19.980  0.00  0.00    +0.000 A 
ATOM     11  C   UNL     1       1.234   2.830  21.046  0.00  0.00    +0.000 A 
ATOM     12  C   UNL     1       1.264   4.226  21.083  0.00  0.00    +0.000 A 
ATOM     13  C   UNL     1       1.880   4.939  20.046  0.00  0.00    +0.000 A 
ENDBRANCH   1   5
BRANCH   1  14
ATOM     14  C   UNL     1       5.320   6.771  16.864  0.00  0.00    +0.000 C 
ATOM     15  O   UNL     1       6.198   7.014  17.693  0.00  0.00    +0.000 OA
ATOM     16  N   UNL     1       5.526   5.932  15.788  0.00  0.00    +0.000 N 
ATOM     17  H   UNL     1       4.778   5.833  15.111  0.00  0.00    +0.000 HD
BRANCH  16  18
ATOM     18  C   UNL     1       6.852   5.438  15.453  0.00  0.00    +0.000 C 
ATOM     19  C   UNL     1       7.358   4.466  16.518  0.00  0.00    +0.000 C 
BRANCH  18  20
ATOM     20  C   UNL     1       6.855   4.808  14.073  0.00  0.00    +0.000 A 
ATOM     21  C   UNL     1       7.737   5.278  13.088  0.00  0.00    +0.000 A 
ATOM     22  C   UNL     1       7.738   4.723  11.807  0.00  0.00    +0.000 A 
ATOM     23  C   UNL     1       6.855   3.692  11.495  0.00  0.00    +0.000 A 
ATOM     24  C   UNL     1       5.975   3.210  12.462  0.00  0.00    +0.000 A 
ATOM     25  C   UNL     1       5.976   3.763  13.744  0.00  0.00    +0.000 A 
ENDBRANCH  18  20
ENDBRANCH  16  18
ENDBRANCH   1  14
TORSDOF 4
ENDMDL
MODEL 6
REMARK VINA RESULT:      -7.1      5.715      9.098
REMARK  Name = 
REMARK  6 active torsions:
REMARK  status: ('A' for Active; 'I' for Inactive)
REMARK    1  A    between atoms: C_1  and  C_2
REMARK    2  A    between atoms: N_4  and  C_5
REMARK    3  A    between atoms: C_5  and  C_6
REMARK    4  A    between atoms: N_8  and  C_9
REMARK    5  A    between atoms: C_9  and  C_10
REMARK    6  A    between atoms: C_9  and  C_11
REMARK                            x       y       z     vdW  Elec       q    Type
REMARK                         _______ _______ _______ _____ _____    ______ ____
ROOT
ATOM      1  C   UNL     1       1.566   9.129  21.637  0.00  0.00    +0.000 C 
ENDROOT
BRANCH   1   5
ATOM      2  C   UNL     1       1.235  13.778  20.527  0.00  0.00    +0.000 C 
ATOM      3  C   UNL     1       0.622  12.579  21.210  0.00  0.00    +0.000 A 
ATOM      4  N   UNL     1       1.252  11.449  21.110  0.00  0.00    +0.000 NA
ATOM      5  N   UNL     1       0.735  10.331  21.714  0.00  0.00    +0.000 N 
ATOM      6  C   UNL     1      -0.458  10.315  22.425  0.00  0.00    +0.000 A 
ATOM      7  O   UNL     1      -0.959   9.291  22.887  0.00  0.00    +0.000 OA
ATOM      8  C   UNL     1      -1.142  11.612  22.598  0.00  0.00    +0.000 A 
ATOM      9  C   UNL     1      -2.293  11.710  23.392  0.00  0.00    +0.000 A 
ATOM     10  C   UNL     1      -2.934  12.940  23.541  0.00  0.00    +0.000 A 
ATOM     11  C   UNL     1      -2.437  14.068  22.889  0.00  0.00    +0.000 A 
ATOM     12  C   UNL     1      -1.285  13.974  22.104  0.00  0.00    +0.000 A 
ATOM     13  C   UNL     1      -0.629  12.743  21.972  0.00  0.00    +0.000 A 
ENDBRANCH   1   5
BRANCH   1  14
ATOM     14  C   UNL     1       1.542   8.439  20.274  0.00  0.00    +0.000 C 
ATOM     15  O   UNL     1       0.999   8.958  19.299  0.00  0.00    +0.000 OA
ATOM     16  N   UNL     1       2.320   7.303  20.174  0.00  0.00    +0.000 N 
ATOM     17  H   UNL     1       2.679   6.895  21.030  0.00  0.00    +0.000 HD
BRANCH  16  18
ATOM     18  C   UNL     1       2.383   6.533  18.942  0.00  0.00    +0.000 C 
ATOM     19  C   UNL     1       3.789   6.571  18.346  0.00  0.00    +0.000 C 
BRANCH  18  20
ATOM     20  C   UNL     1       1.912   5.110  19.178  0.00  0.00    +0.000 A 
ATOM     21  C   UNL     1       1.543   4.696  20.467  0.00  0.00    +0.000 A 
ATOM     22  C   UNL     1       1.126   3.385  20.704  0.00  0.00    +0.000 A 
ATOM     23  C   UNL     1       1.078   2.470  19.654  0.00  0.00    +0.000 A 
ATOM     24  C   UNL     1       1.438   2.865  18.368  0.00  0.00    +0.000 A 
ATOM     25  C   UNL     1       1.851   4.176  18.130  0.00  0.00    +0.000 A 
ENDBRANCH  18  20
ENDBRANCH  16  18
ENDBRANCH   1  14
TORSDOF 4
ENDMDL
MODEL 7
REMARK VINA RESULT:      -7.1      5.039      7.807
REMARK  Name = 
REMARK  6 active torsions:
REMARK  status: ('A' for Active; 'I' for Inactive)
REMARK    1  A    between atoms: C_1  and  C_2
REMARK    2  A    between atoms: N_4  and  C_5
REMARK    3  A    between atoms: C_5  and  C_6
REMARK    4  A    between atoms: N_8  and  C_9
REMARK    5  A    between atoms: C_9  and  C_10
REMARK    6  A    between atoms: C_9  and  C_11
REMARK                            x       y       z     vdW  Elec       q    Type
REMARK                         _______ _______ _______ _____ _____    ______ ____
ROOT
ATOM      1  C   UNL     1       1.879   9.506  18.213  0.00  0.00    +0.000 C 
ENDROOT
BRANCH   1   5
ATOM      2  C   UNL     1      -2.643   9.806  16.657  0.00  0.00    +0.000 C 
ATOM      3  C   UNL     1      -1.618  10.200  17.693  0.00  0.00    +0.000 A 
ATOM      4  N   UNL     1      -0.426   9.701  17.573  0.00  0.00    +0.000 NA
ATOM      5  N   UNL     1       0.540  10.030  18.490  0.00  0.00    +0.000 N 
ATOM      6  C   UNL     1       0.324  10.861  19.581  0.00  0.00    +0.000 A 
ATOM      7  O   UNL     1       1.169  11.080  20.446  0.00  0.00    +0.000 OA
ATOM      8  C   UNL     1      -1.011  11.484  19.683  0.00  0.00    +0.000 A 
ATOM      9  C   UNL     1      -1.286  12.421  20.688  0.00  0.00    +0.000 A 
ATOM     10  C   UNL     1      -2.554  12.995  20.779  0.00  0.00    +0.000 A 
ATOM     11  C   UNL     1      -3.552  12.626  19.877  0.00  0.00    +0.000 A 
ATOM     12  C   UNL     1      -3.278  11.698  18.869  0.00  0.00    +0.000 A 
ATOM     13  C   UNL     1      -1.998  11.138  18.765  0.00  0.00    +0.000 A 
ENDBRANCH   1   5
BRANCH   1  14
ATOM     14  C   UNL     1       2.152   8.135  18.828  0.00  0.00    +0.000 C 
ATOM     15  O   UNL     1       1.815   7.867  19.982  0.00  0.00    +0.000 OA
ATOM     16  N   UNL     1       2.627   7.180  17.952  0.00  0.00    +0.000 N 
ATOM     17  H   UNL     1       2.949   7.487  17.041  0.00  0.00    +0.000 HD
BRANCH  16  18
ATOM     18  C   UNL     1       2.947   5.833  18.398  0.00  0.00    +0.000 C 
ATOM     19  C   UNL     1       1.934   4.824  17.860  0.00  0.00    +0.000 C 
BRANCH  18  20
ATOM     20  C   UNL     1       4.367   5.465  18.009  0.00  0.00    +0.000 A 
ATOM     21  C   UNL     1       4.666   5.130  16.679  0.00  0.00    +0.000 A 
ATOM     22  C   UNL     1       5.962   4.770  16.308  0.00  0.00    +0.000 A 
ATOM     23  C   UNL     1       6.976   4.737  17.263  0.00  0.00    +0.000 A 
ATOM     24  C   UNL     1       6.697   5.070  18.587  0.00  0.00    +0.000 A 
ATOM     25  C   UNL     1       5.402   5.434  18.958  0.00  0.00    +0.000 A 
ENDBRANCH  18  20
ENDBRANCH  16  18
ENDBRANCH   1  14
TORSDOF 4
ENDMDL
MODEL 8
REMARK VINA RESULT:      -7.1      1.040      1.040
REMARK  Name = 
REMARK  6 active torsions:
REMARK  status: ('A' for Active; 'I' for Inactive)
REMARK    1  A    between atoms: C_1  and  C_2
REMARK    2  A    between atoms: N_4  and  C_5
REMARK    3  A    between atoms: C_5  and  C_6
REMARK    4  A    between atoms: N_8  and  C_9
REMARK    5  A    between atoms: C_9  and  C_10
REMARK    6  A    between atoms: C_9  and  C_11
REMARK                            x       y       z     vdW  Elec       q    Type
REMARK                         _______ _______ _______ _____ _____    ______ ____
ROOT
ATOM      1  C   UNL     1       6.412   5.285  17.135  0.00  0.00    +0.000 C 
ENDROOT
BRANCH   1   5
ATOM      2  C   UNL     1       2.375   7.561  18.352  0.00  0.00    +0.000 C 
ATOM      3  C   UNL     1       3.220   6.315  18.451  0.00  0.00    +0.000 A 
ATOM      4  N   UNL     1       4.330   6.290  17.779  0.00  0.00    +0.000 NA
ATOM      5  N   UNL     1       5.132   5.180  17.838  0.00  0.00    +0.000 N 
ATOM      6  C   UNL     1       4.824   4.037  18.565  0.00  0.00    +0.000 A 
ATOM      7  O   UNL     1       5.503   3.013  18.542  0.00  0.00    +0.000 OA
ATOM      8  C   UNL     1       3.596   4.087  19.384  0.00  0.00    +0.000 A 
ATOM      9  C   UNL     1       3.263   3.023  20.235  0.00  0.00    +0.000 A 
ATOM     10  C   UNL     1       2.095   3.079  20.996  0.00  0.00    +0.000 A 
ATOM     11  C   UNL     1       1.254   4.187  20.902  0.00  0.00    +0.000 A 
ATOM     12  C   UNL     1       1.589   5.252  20.061  0.00  0.00    +0.000 A 
ATOM     13  C   UNL     1       2.772   5.205  19.312  0.00  0.00    +0.000 A 
ENDBRANCH   1   5
BRANCH   1  14
ATOM     14  C   UNL     1       6.284   5.661  15.660  0.00  0.00    +0.000 C 
ATOM     15  O   UNL     1       5.556   6.582  15.290  0.00  0.00    +0.000 OA
ATOM     16  N   UNL     1       7.170   5.027  14.811  0.00  0.00    +0.000 N 
ATOM     17  H   UNL     1       7.687   4.232  15.170  0.00  0.00    +0.000 HD
BRANCH  16  18
ATOM     18  C   UNL     1       7.155   5.274  13.378  0.00  0.00    +0.000 C 
ATOM     19  C   UNL     1       8.544   5.672  12.879  0.00  0.00    +0.000 C 
BRANCH  18  20
ATOM     20  C   UNL     1       6.616   4.066  12.634  0.00  0.00    +0.000 A 
ATOM     21  C   UNL     1       7.500   3.183  11.995  0.00  0.00    +0.000 A 
ATOM     22  C   UNL     1       7.019   2.079  11.289  0.00  0.00    +0.000 A 
ATOM     23  C   UNL     1       5.648   1.846  11.212  0.00  0.00    +0.000 A 
ATOM     24  C   UNL     1       4.757   2.710  11.844  0.00  0.00    +0.000 A 
ATOM     25  C   UNL     1       5.237   3.813  12.553  0.00  0.00    +0.000 A 
ENDBRANCH  18  20
ENDBRANCH  16  18
ENDBRANCH   1  14
TORSDOF 4
ENDMDL
MODEL 9
REMARK VINA RESULT:      -7.1      4.372      8.417
REMARK  Name = 
REMARK  6 active torsions:
REMARK  status: ('A' for Active; 'I' for Inactive)
REMARK    1  A    between atoms: C_1  and  C_2
REMARK    2  A    between atoms: N_4  and  C_5
REMARK    3  A    between atoms: C_5  and  C_6
REMARK    4  A    between atoms: N_8  and  C_9
REMARK    5  A    between atoms: C_9  and  C_10
REMARK    6  A    between atoms: C_9  and  C_11
REMARK                            x       y       z     vdW  Elec       q    Type
REMARK                         _______ _______ _______ _____ _____    ______ ____
ROOT
ATOM      1  C   UNL     1       1.152   6.984  21.200  0.00  0.00    +0.000 C 
ENDROOT
BRANCH   1   5
ATOM      2  C   UNL     1       4.085   7.217  17.419  0.00  0.00    +0.000 C 
ATOM      3  C   UNL     1       3.318   6.355  18.391  0.00  0.00    +0.000 A 
ATOM      4  N   UNL     1       2.660   6.957  19.333  0.00  0.00    +0.000 NA
ATOM      5  N   UNL     1       1.947   6.216  20.240  0.00  0.00    +0.000 N 
ATOM      6  C   UNL     1       1.895   4.828  20.239  0.00  0.00    +0.000 A 
ATOM      7  O   UNL     1       1.327   4.168  21.108  0.00  0.00    +0.000 OA
ATOM      8  C   UNL     1       2.587   4.142  19.130  0.00  0.00    +0.000 A 
ATOM      9  C   UNL     1       2.497   2.751  18.985  0.00  0.00    +0.000 A 
ATOM     10  C   UNL     1       3.163   2.114  17.938  0.00  0.00    +0.000 A 
ATOM     11  C   UNL     1       3.927   2.861  17.042  0.00  0.00    +0.000 A 
ATOM     12  C   UNL     1       4.011   4.249  17.179  0.00  0.00    +0.000 A 
ATOM     13  C   UNL     1       3.325   4.891  18.219  0.00  0.00    +0.000 A 
ENDBRANCH   1   5
BRANCH   1  14
ATOM     14  C   UNL     1       1.167   8.492  20.958  0.00  0.00    +0.000 C 
ATOM     15  O   UNL     1       1.670   9.270  21.769  0.00  0.00    +0.000 OA
ATOM     16  N   UNL     1       0.752   8.892  19.703  0.00  0.00    +0.000 N 
ATOM     17  H   UNL     1       0.286   8.210  19.116  0.00  0.00    +0.000 HD
BRANCH  16  18
ATOM     18  C   UNL     1       0.699  10.298  19.334  0.00  0.00    +0.000 C 
ATOM     19  C   UNL     1       1.751  10.625  18.275  0.00  0.00    +0.000 C 
BRANCH  18  20
ATOM     20  C   UNL     1      -0.697  10.677  18.875  0.00  0.00    +0.000 A 
ATOM     21  C   UNL     1      -1.245  10.079  17.729  0.00  0.00    +0.000 A 
ATOM     22  C   UNL     1      -2.520  10.431  17.282  0.00  0.00    +0.000 A 
ATOM     23  C   UNL     1      -3.261  11.387  17.973  0.00  0.00    +0.000 A 
ATOM     24  C   UNL     1      -2.733  11.987  19.114  0.00  0.00    +0.000 A 
ATOM     25  C   UNL     1      -1.460  11.634  19.564  0.00  0.00    +0.000 A 
ENDBRANCH  18  20
ENDBRANCH  16  18
ENDBRANCH   1  14
TORSDOF 4
ENDMDL
