MODEL 1
REMARK VINA RESULT:      -5.6      0.000      0.000
REMARK  Name = 
REMARK  4 active torsions:
REMARK  status: ('A' for Active; 'I' for Inactive)
REMARK    1  A    between atoms: C_2  and  C_3
REMARK    2  A    between atoms: C_3  and  C_4
REMARK    3  A    between atoms: C_3  and  O_5
REMARK    4  A    between atoms: O_5  and  N_6
REMARK                            x       y       z     vdW  Elec       q    Type
REMARK                         _______ _______ _______ _____ _____    ______ ____
ROOT
ATOM      1  N   UNL     1       5.227   5.021  18.685  0.00  0.00    +0.000 NA
ATOM      2  C   UNL     1       4.235   4.230  18.941  0.00  0.00    +0.000 C 
ATOM      3  C   UNL     1       4.269   2.773  19.347  0.00  0.00    +0.000 C 
ATOM      4  N   UNL     1       2.798   2.477  19.449  0.00  0.00    +0.000 NA
ATOM      5  C   UNL     1       2.231   2.468  18.066  0.00  0.00    +0.000 C 
ATOM      6  C   UNL     1       2.219   3.944  17.629  0.00  0.00    +0.000 C 
ATOM      7  C   UNL     1       2.793   4.646  18.856  0.00  0.00    +0.000 C 
ATOM      8  C   UNL     1       2.262   3.769  19.980  0.00  0.00    +0.000 C 
ENDROOT
BRANCH   1   9
ATOM      9  O   UNL     1       6.443   4.332  18.862  0.00  0.00    +0.000 OA
BRANCH   9  10
ATOM     10  C   UNL     1       7.447   4.871  17.987  0.00  0.00    +0.000 C 
ATOM     11  C   UNL     1       7.560   6.373  18.218  0.00  0.00    +0.000 C 
BRANCH  10  13
ATOM     12  C   UNL     1       6.734   4.388  15.451  0.00  0.00    +0.000 C 
ATOM     13  C   UNL     1       7.060   4.597  16.590  0.00  0.00    +0.000 C 
ENDBRANCH  10  13
ENDBRANCH   9  10
ENDBRANCH   1   9
TORSDOF 3
ENDMDL
MODEL 2
REMARK VINA RESULT:      -5.6      3.158      5.100
REMARK  Name = 
REMARK  4 active torsions:
REMARK  status: ('A' for Active; 'I' for Inactive)
REMARK    1  A    between atoms: C_2  and  C_3
REMARK    2  A    between atoms: C_3  and  C_4
REMARK    3  A    between atoms: C_3  and  O_5
REMARK    4  A    between atoms: O_5  and  N_6
REMARK                            x       y       z     vdW  Elec       q    Type
REMARK                         _______ _______ _______ _____ _____    ______ ____
ROOT
ATOM      1  N   UNL     1       6.642   4.142  14.674  0.00  0.00    +0.000 NA
ATOM      2  C   UNL     1       6.255   4.607  15.818  0.00  0.00    +0.000 C 
ATOM      3  C   UNL     1       4.865   5.018  16.249  0.00  0.00    +0.000 C 
ATOM      4  N   UNL     1       5.134   5.483  17.654  0.00  0.00    +0.000 NA
ATOM      5  C   UNL     1       5.897   6.765  17.578  0.00  0.00    +0.000 C 
ATOM      6  C   UNL     1       7.308   6.364  17.111  0.00  0.00    +0.000 C 
ATOM      7  C   UNL     1       7.182   4.850  16.976  0.00  0.00    +0.000 C 
ATOM      8  C   UNL     1       6.200   4.530  18.093  0.00  0.00    +0.000 C 
ENDROOT
BRANCH   1   9
ATOM      9  O   UNL     1       5.536   4.025  13.809  0.00  0.00    +0.000 OA
BRANCH   9  10
ATOM     10  C   UNL     1       5.918   3.329  12.612  0.00  0.00    +0.000 C 
ATOM     11  C   UNL     1       7.071   4.070  11.946  0.00  0.00    +0.000 C 
BRANCH  10  13
ATOM     12  C   UNL     1       3.805   3.209  10.969  0.00  0.00    +0.000 C 
ATOM     13  C   UNL     1       4.758   3.270  11.703  0.00  0.00    +0.000 C 
ENDBRANCH  10  13
ENDBRANCH   9  10
ENDBRANCH   1   9
TORSDOF 3
ENDMDL
MODEL 3
REMARK VINA RESULT:      -5.5      1.864      5.206
REMARK  Name = 
REMARK  4 active torsions:
REMARK  status: ('A' for Active; 'I' for Inactive)
REMARK    1  A    between atoms: C_2  and  C_3
REMARK    2  A    between atoms: C_3  and  C_4
REMARK    3  A    between atoms: C_3  and  O_5
REMARK    4  A    between atoms: O_5  and  N_6
REMARK                            x       y       z     vdW  Elec       q    Type
REMARK                         _______ _______ _______ _____ _____    ______ ____
ROOT
ATOM      1  N   UNL     1       4.094   5.680  17.811  0.00  0.00    +0.000 NA
ATOM      2  C   UNL     1       5.361   5.498  18.003  0.00  0.00    +0.000 C 
ATOM      3  C   UNL     1       6.068   5.020  19.252  0.00  0.00    +0.000 C 
ATOM      4  N   UNL     1       7.501   5.068  18.797  0.00  0.00    +0.000 NA
ATOM      5  C   UNL     1       7.897   6.502  18.668  0.00  0.00    +0.000 C 
ATOM      6  C   UNL     1       7.159   7.010  17.415  0.00  0.00    +0.000 C 
ATOM      7  C   UNL     1       6.409   5.763  16.959  0.00  0.00    +0.000 C 
ATOM      8  C   UNL     1       7.380   4.663  17.362  0.00  0.00    +0.000 C 
ENDROOT
BRANCH   1   9
ATOM      9  O   UNL     1       3.382   5.335  18.977  0.00  0.00    +0.000 OA
BRANCH   9  10
ATOM     10  C   UNL     1       2.616   4.141  18.751  0.00  0.00    +0.000 C 
ATOM     11  C   UNL     1       1.608   4.394  17.636  0.00  0.00    +0.000 C 
BRANCH  10  13
ATOM     12  C   UNL     1       1.336   3.473  21.008  0.00  0.00    +0.000 C 
ATOM     13  C   UNL     1       1.916   3.779  19.998  0.00  0.00    +0.000 C 
ENDBRANCH  10  13
ENDBRANCH   9  10
ENDBRANCH   1   9
TORSDOF 3
ENDMDL
MODEL 4
REMARK VINA RESULT:      -5.5      1.017      1.704
REMARK  Name = 
REMARK  4 active torsions:
REMARK  status: ('A' for Active; 'I' for Inactive)
REMARK    1  A    between atoms: C_2  and  C_3
REMARK    2  A    between atoms: C_3  and  C_4
REMARK    3  A    between atoms: C_3  and  O_5
REMARK    4  A    between atoms: O_5  and  N_6
REMARK                            x       y       z     vdW  Elec       q    Type
REMARK                         _______ _______ _______ _____ _____    ______ ____
ROOT
ATOM      1  N   UNL     1       5.410   3.896  19.303  0.00  0.00    +0.000 NA
ATOM      2  C   UNL     1       4.247   3.582  18.829  0.00  0.00    +0.000 C 
ATOM      3  C   UNL     1       3.346   4.393  17.924  0.00  0.00    +0.000 C 
ATOM      4  N   UNL     1       2.169   3.465  17.797  0.00  0.00    +0.000 NA
ATOM      5  C   UNL     1       1.456   3.440  19.110  0.00  0.00    +0.000 C 
ATOM      6  C   UNL     1       2.379   2.642  20.051  0.00  0.00    +0.000 C 
ATOM      7  C   UNL     1       3.544   2.289  19.132  0.00  0.00    +0.000 C 
ATOM      8  C   UNL     1       2.835   2.125  17.796  0.00  0.00    +0.000 C 
ENDROOT
BRANCH   1   9
ATOM      9  O   UNL     1       5.791   5.167  18.827  0.00  0.00    +0.000 OA
BRANCH   9  10
ATOM     10  C   UNL     1       7.122   5.113  18.290  0.00  0.00    +0.000 C 
ATOM     11  C   UNL     1       7.809   6.455  18.514  0.00  0.00    +0.000 C 
BRANCH  10  13
ATOM     12  C   UNL     1       6.982   4.588  15.667  0.00  0.00    +0.000 C 
ATOM     13  C   UNL     1       7.044   4.815  16.847  0.00  0.00    +0.000 C 
ENDBRANCH  10  13
ENDBRANCH   9  10
ENDBRANCH   1   9
TORSDOF 3
ENDMDL
MODEL 5
REMARK VINA RESULT:      -5.4      1.739      5.067
REMARK  Name = 
REMARK  4 active torsions:
REMARK  status: ('A' for Active; 'I' for Inactive)
REMARK    1  A    between atoms: C_2  and  C_3
REMARK    2  A    between atoms: C_3  and  C_4
REMARK    3  A    between atoms: C_3  and  O_5
REMARK    4  A    between atoms: O_5  and  N_6
REMARK                            x       y       z     vdW  Elec       q    Type
REMARK                         _______ _______ _______ _____ _____    ______ ____
ROOT
ATOM      1  N   UNL     1       5.704   3.905  19.006  0.00  0.00    +0.000 NA
ATOM      2  C   UNL     1       5.902   4.774  18.066  0.00  0.00    +0.000 C 
ATOM      3  C   UNL     1       4.922   5.759  17.469  0.00  0.00    +0.000 C 
ATOM      4  N   UNL     1       5.787   6.420  16.432  0.00  0.00    +0.000 NA
ATOM      5  C   UNL     1       6.036   5.431  15.340  0.00  0.00    +0.000 C 
ATOM      6  C   UNL     1       7.011   4.403  15.945  0.00  0.00    +0.000 C 
ATOM      7  C   UNL     1       7.215   4.949  17.355  0.00  0.00    +0.000 C 
ATOM      8  C   UNL     1       7.118   6.448  17.115  0.00  0.00    +0.000 C 
ENDROOT
BRANCH   1   9
ATOM      9  O   UNL     1       4.376   3.999  19.468  0.00  0.00    +0.000 OA
BRANCH   9  10
ATOM     10  C   UNL     1       3.892   2.699  19.841  0.00  0.00    +0.000 C 
ATOM     11  C   UNL     1       3.421   1.961  18.594  0.00  0.00    +0.000 C 
BRANCH  10  13
ATOM     12  C   UNL     1       1.872   2.998  21.575  0.00  0.00    +0.000 C 
ATOM     13  C   UNL     1       2.774   2.860  20.790  0.00  0.00    +0.000 C 
ENDBRANCH  10  13
ENDBRANCH   9  10
ENDBRANCH   1   9
TORSDOF 3
ENDMDL
MODEL 6
REMARK VINA RESULT:      -5.4      2.795      3.799
REMARK  Name = 
REMARK  4 active torsions:
REMARK  status: ('A' for Active; 'I' for Inactive)
REMARK    1  A    between atoms: C_2  and  C_3
REMARK    2  A    between atoms: C_3  and  C_4
REMARK    3  A    between atoms: C_3  and  O_5
REMARK    4  A    between atoms: O_5  and  N_6
REMARK                            x       y       z     vdW  Elec       q    Type
REMARK                         _______ _______ _______ _____ _____    ______ ____
ROOT
ATOM      1  N   UNL     1       1.965   5.999  20.031  0.00  0.00    +0.000 NA
ATOM      2  C   UNL     1       2.214   4.737  20.182  0.00  0.00    +0.000 C 
ATOM      3  C   UNL     1       3.477   3.976  19.841  0.00  0.00    +0.000 C 
ATOM      4  N   UNL     1       3.078   2.582  20.236  0.00  0.00    +0.000 NA
ATOM      5  C   UNL     1       2.068   2.093  19.249  0.00  0.00    +0.000 C 
ATOM      6  C   UNL     1       0.784   2.882  19.566  0.00  0.00    +0.000 C 
ATOM      7  C   UNL     1       1.225   3.752  20.739  0.00  0.00    +0.000 C 
ATOM      8  C   UNL     1       2.220   2.837  21.435  0.00  0.00    +0.000 C 
ENDROOT
BRANCH   1   9
ATOM      9  O   UNL     1       3.096   6.646  19.494  0.00  0.00    +0.000 OA
BRANCH   9  10
ATOM     10  C   UNL     1       2.885   6.932  18.101  0.00  0.00    +0.000 C 
ATOM     11  C   UNL     1       4.216   6.847  17.364  0.00  0.00    +0.000 C 
BRANCH  10  13
ATOM     12  C   UNL     1       1.851   9.393  17.884  0.00  0.00    +0.000 C 
ATOM     13  C   UNL     1       2.317   8.287  17.973  0.00  0.00    +0.000 C 
ENDBRANCH  10  13
ENDBRANCH   9  10
ENDBRANCH   1   9
TORSDOF 3
ENDMDL
MODEL 7
REMARK VINA RESULT:      -5.4      1.655      5.204
REMARK  Name = 
REMARK  4 active torsions:
REMARK  status: ('A' for Active; 'I' for Inactive)
REMARK    1  A    between atoms: C_2  and  C_3
REMARK    2  A    between atoms: C_3  and  C_4
REMARK    3  A    between atoms: C_3  and  O_5
REMARK    4  A    between atoms: O_5  and  N_6
REMARK                            x       y       z     vdW  Elec       q    Type
REMARK                         _______ _______ _______ _____ _____    ______ ____
ROOT
ATOM      1  N   UNL     1       4.832   5.051  19.377  0.00  0.00    +0.000 NA
ATOM      2  C   UNL     1       5.539   5.585  18.433  0.00  0.00    +0.000 C 
ATOM      3  C   UNL     1       5.068   6.392  17.243  0.00  0.00    +0.000 C 
ATOM      4  N   UNL     1       6.377   6.666  16.556  0.00  0.00    +0.000 NA
ATOM      5  C   UNL     1       6.869   5.383  15.969  0.00  0.00    +0.000 C 
ATOM      6  C   UNL     1       7.324   4.540  17.174  0.00  0.00    +0.000 C 
ATOM      7  C   UNL     1       7.035   5.473  18.345  0.00  0.00    +0.000 C 
ATOM      8  C   UNL     1       7.304   6.833  17.719  0.00  0.00    +0.000 C 
ENDROOT
BRANCH   1   9
ATOM      9  O   UNL     1       3.469   5.344  19.176  0.00  0.00    +0.000 OA
BRANCH   9  10
ATOM     10  C   UNL     1       2.743   4.138  18.887  0.00  0.00    +0.000 C 
ATOM     11  C   UNL     1       1.767   4.401  17.747  0.00  0.00    +0.000 C 
BRANCH  10  13
ATOM     12  C   UNL     1       1.401   3.383  21.078  0.00  0.00    +0.000 C 
ATOM     13  C   UNL     1       2.012   3.719  20.098  0.00  0.00    +0.000 C 
ENDBRANCH  10  13
ENDBRANCH   9  10
ENDBRANCH   1   9
TORSDOF 3
ENDMDL
MODEL 8
REMARK VINA RESULT:      -5.4      1.786      5.128
REMARK  Name = 
REMARK  4 active torsions:
REMARK  status: ('A' for Active; 'I' for Inactive)
REMARK    1  A    between atoms: C_2  and  C_3
REMARK    2  A    between atoms: C_3  and  C_4
REMARK    3  A    between atoms: C_3  and  O_5
REMARK    4  A    between atoms: O_5  and  N_6
REMARK                            x       y       z     vdW  Elec       q    Type
REMARK                         _______ _______ _______ _____ _____    ______ ____
ROOT
ATOM      1  N   UNL     1       3.967   3.266  17.434  0.00  0.00    +0.000 NA
ATOM      2  C   UNL     1       4.993   4.054  17.380  0.00  0.00    +0.000 C 
ATOM      3  C   UNL     1       5.728   4.727  18.519  0.00  0.00    +0.000 C 
ATOM      4  N   UNL     1       6.770   5.500  17.760  0.00  0.00    +0.000 NA
ATOM      5  C   UNL     1       6.085   6.618  17.043  0.00  0.00    +0.000 C 
ATOM      6  C   UNL     1       5.308   5.943  15.898  0.00  0.00    +0.000 C 
ATOM      7  C   UNL     1       5.658   4.471  16.099  0.00  0.00    +0.000 C 
ATOM      8  C   UNL     1       7.080   4.570  16.630  0.00  0.00    +0.000 C 
ENDROOT
BRANCH   1   9
ATOM      9  O   UNL     1       3.590   3.067  18.777  0.00  0.00    +0.000 OA
BRANCH   9  10
ATOM     10  C   UNL     1       2.180   2.805  18.859  0.00  0.00    +0.000 C 
ATOM     11  C   UNL     1       1.422   3.891  18.105  0.00  0.00    +0.000 C 
BRANCH  10  13
ATOM     12  C   UNL     1       1.438   2.775  21.433  0.00  0.00    +0.000 C 
ATOM     13  C   UNL     1       1.778   2.795  20.278  0.00  0.00    +0.000 C 
ENDBRANCH  10  13
ENDBRANCH   9  10
ENDBRANCH   1   9
TORSDOF 3
ENDMDL
MODEL 9
REMARK VINA RESULT:      -5.4      1.248      2.301
REMARK  Name = 
REMARK  4 active torsions:
REMARK  status: ('A' for Active; 'I' for Inactive)
REMARK    1  A    between atoms: C_2  and  C_3
REMARK    2  A    between atoms: C_3  and  C_4
REMARK    3  A    between atoms: C_3  and  O_5
REMARK    4  A    between atoms: O_5  and  N_6
REMARK                            x       y       z     vdW  Elec       q    Type
REMARK                         _______ _______ _______ _____ _____    ______ ____
ROOT
ATOM      1  N   UNL     1       5.499   4.170  18.963  0.00  0.00    +0.000 NA
ATOM      2  C   UNL     1       4.268   3.888  18.682  0.00  0.00    +0.000 C 
ATOM      3  C   UNL     1       3.183   4.806  18.162  0.00  0.00    +0.000 C 
ATOM      4  N   UNL     1       2.022   3.854  18.090  0.00  0.00    +0.000 NA
ATOM      5  C   UNL     1       1.601   3.531  19.487  0.00  0.00    +0.000 C 
ATOM      6  C   UNL     1       2.714   2.619  20.039  0.00  0.00    +0.000 C 
ATOM      7  C   UNL     1       3.665   2.521  18.851  0.00  0.00    +0.000 C 
ATOM      8  C   UNL     1       2.694   2.581  17.681  0.00  0.00    +0.000 C 
ENDROOT
BRANCH   1   9
ATOM      9  O   UNL     1       5.751   5.529  18.689  0.00  0.00    +0.000 OA
BRANCH   9  10
ATOM     10  C   UNL     1       6.649   5.649  17.574  0.00  0.00    +0.000 C 
ATOM     11  C   UNL     1       7.707   4.555  17.663  0.00  0.00    +0.000 C 
BRANCH  10  13
ATOM     12  C   UNL     1       7.819   8.057  17.640  0.00  0.00    +0.000 C 
ATOM     13  C   UNL     1       7.286   6.978  17.615  0.00  0.00    +0.000 C 
ENDBRANCH  10  13
ENDBRANCH   9  10
ENDBRANCH   1   9
TORSDOF 3
ENDMDL
