MODEL 1
REMARK VINA RESULT:      -8.3      0.000      0.000
REMARK  Name = 
REMARK  16 active torsions:
REMARK  status: ('A' for Active; 'I' for Inactive)
REMARK    1  A    between atoms: C_1  and  C_2
REMARK    2  A    between atoms: C_2  and  C_3
REMARK    3  A    between atoms: C_3  and  C_4
REMARK    4  A    between atoms: C_3  and  C_5
REMARK    5  A    between atoms: C_5  and  N_6
REMARK    6  A    between atoms: C_5  and  C_10
REMARK    7  A    between atoms: N_12  and  C_13
REMARK    8  A    between atoms: C_13  and  C_14
REMARK    9  A    between atoms: N_16  and  C_17
REMARK   10  A    between atoms: C_17  and  C_18
REMARK   11  A    between atoms: C_17  and  C_33
REMARK   12  A    between atoms: C_18  and  C_19
REMARK   13  A    between atoms: C_22  and  C_23
REMARK   14  A    between atoms: C_24  and  C_25
REMARK   15  A    between atoms: C_33  and  O_35
REMARK   16  A    between atoms: O_35  and  C_36
REMARK                            x       y       z     vdW  Elec       q    Type
REMARK                         _______ _______ _______ _____ _____    ______ ____
ROOT
ATOM      1  C   UNL     1       2.560   6.249  18.797  0.00  0.00    +0.000 C 
ATOM      2  O   UNL     1       1.898   6.011  17.794  0.00  0.00    +0.000 OA
ATOM      3  N   UNL     1       3.560   5.410  19.260  0.00  0.00    +0.000 N 
ATOM      4  H   UNL     1       3.852   5.499  20.228  0.00  0.00    +0.000 HD
ENDROOT
BRANCH   1   5
ATOM      5  C   UNL     1       2.414   7.528  19.603  0.00  0.00    +0.000 C 
BRANCH   5   8
ATOM      6  C   UNL     1       1.054   9.638  19.234  0.00  0.00    +0.000 C 
ATOM      7  O   UNL     1       0.427  10.236  18.355  0.00  0.00    +0.000 OA
ATOM      8  N   UNL     1       1.763   8.552  18.819  0.00  0.00    +0.000 N 
ATOM      9  H   UNL     1       1.865   8.508  17.811  0.00  0.00    +0.000 HD
BRANCH   6  10
ATOM     10  C   UNL     1       1.009  10.013  20.737  0.00  0.00    +0.000 C 
BRANCH  10  11
ATOM     11  N   UNL     1       1.347  11.422  20.987  0.00  0.00    +0.000 NA
ATOM     12  C   UNL     1       0.728  12.460  20.594  0.00  0.00    +0.000 C 
ATOM     13  N   UNL     1      -0.340  12.624  19.798  0.00  0.00    +0.000 N 
ATOM     14  N   UNL     1       1.197  13.664  20.957  0.00  0.00    +0.000 N 
ATOM     15  H   UNL     1      -0.709  11.779  19.365  0.00  0.00    +0.000 HD
ATOM     16  H   UNL     1      -1.049  13.288  20.065  0.00  0.00    +0.000 HD
ATOM     17  H   UNL     1       1.820  13.625  21.754  0.00  0.00    +0.000 HD
ATOM     18  H   UNL     1       0.562  14.441  20.921  0.00  0.00    +0.000 HD
ENDBRANCH  10  11
BRANCH  10  19
ATOM     19  C   UNL     1      -0.313   9.691  21.473  0.00  0.00    +0.000 C 
ATOM     20  C   UNL     1      -0.641   8.200  21.537  0.00  0.00    +0.000 C 
BRANCH  19  22
ATOM     21  C   UNL     1      -1.560  11.224  23.191  0.00  0.00    +0.000 C 
ATOM     22  C   UNL     1      -0.369  10.316  22.897  0.00  0.00    +0.000 C 
ENDBRANCH  19  22
ENDBRANCH  10  19
ENDBRANCH   6  10
ENDBRANCH   5   8
ENDBRANCH   1   5
BRANCH   3  23
ATOM     23  C   UNL     1       3.750   4.091  18.646  0.00  0.00    +0.000 C 
BRANCH  23  24
ATOM     24  C   UNL     1       3.905   3.105  19.804  0.00  0.00    +0.000 C 
ATOM     25  O   UNL     1       4.916   2.431  20.006  0.00  0.00    +0.000 OA
BRANCH  24  26
ATOM     26  O   UNL     1       2.779   3.074  20.569  0.00  0.00    +0.000 OA
ATOM     27  C   UNL     1       1.710   2.328  19.989  0.00  0.00    +0.000 C 
ENDBRANCH  24  26
ENDBRANCH  23  24
BRANCH  23  28
ATOM     28  C   UNL     1       5.006   4.022  17.759  0.00  0.00    +0.000 C 
BRANCH  28  29
ATOM     29  C   UNL     1       5.948   5.213  17.746  0.00  0.00    +0.000 A 
ATOM     30  C   UNL     1       5.760   6.337  16.939  0.00  0.00    +0.000 A 
ATOM     31  C   UNL     1       6.598   7.452  17.060  0.00  0.00    +0.000 A 
ATOM     32  C   UNL     1       7.623   7.488  18.003  0.00  0.00    +0.000 A 
ATOM     33  C   UNL     1       7.880   6.340  18.749  0.00  0.00    +0.000 A 
ATOM     34  C   UNL     1       7.054   5.212  18.616  0.00  0.00    +0.000 A 
BRANCH  32  35
ATOM     35  C   UNL     1       8.337   8.715  18.232  0.00  0.00    +0.000 C 
ATOM     36  C   UNL     1       8.857   9.793  18.375  0.00  0.00    +0.000 C 
BRANCH  36  37
ATOM     37  C   UNL     1       9.482  11.084  18.484  0.00  0.00    +0.000 A 
ATOM     38  C   UNL     1      10.575  11.300  19.330  0.00  0.00    +0.000 A 
ATOM     39  C   UNL     1      11.106  12.579  19.513  0.00  0.00    +0.000 A 
ATOM     40  C   UNL     1      10.566  13.654  18.815  0.00  0.00    +0.000 A 
ATOM     41  C   UNL     1       9.510  13.443  17.929  0.00  0.00    +0.000 A 
ATOM     42  C   UNL     1       8.969  12.163  17.766  0.00  0.00    +0.000 A 
ENDBRANCH  36  37
ENDBRANCH  32  35
ENDBRANCH  28  29
ENDBRANCH  23  28
ENDBRANCH   3  23
TORSDOF 13
ENDMDL
MODEL 2
REMARK VINA RESULT:      -8.2      1.479      2.214
REMARK  Name = 
REMARK  16 active torsions:
REMARK  status: ('A' for Active; 'I' for Inactive)
REMARK    1  A    between atoms: C_1  and  C_2
REMARK    2  A    between atoms: C_2  and  C_3
REMARK    3  A    between atoms: C_3  and  C_4
REMARK    4  A    between atoms: C_3  and  C_5
REMARK    5  A    between atoms: C_5  and  N_6
REMARK    6  A    between atoms: C_5  and  C_10
REMARK    7  A    between atoms: N_12  and  C_13
REMARK    8  A    between atoms: C_13  and  C_14
REMARK    9  A    between atoms: N_16  and  C_17
REMARK   10  A    between atoms: C_17  and  C_18
REMARK   11  A    between atoms: C_17  and  C_33
REMARK   12  A    between atoms: C_18  and  C_19
REMARK   13  A    between atoms: C_22  and  C_23
REMARK   14  A    between atoms: C_24  and  C_25
REMARK   15  A    between atoms: C_33  and  O_35
REMARK   16  A    between atoms: O_35  and  C_36
REMARK                            x       y       z     vdW  Elec       q    Type
REMARK                         _______ _______ _______ _____ _____    ______ ____
ROOT
ATOM      1  C   UNL     1       2.264   5.920  18.400  0.00  0.00    +0.000 C 
ATOM      2  O   UNL     1       1.544   5.773  17.420  0.00  0.00    +0.000 OA
ATOM      3  N   UNL     1       3.284   5.043  18.727  0.00  0.00    +0.000 N 
ATOM      4  H   UNL     1       3.633   5.045  19.680  0.00  0.00    +0.000 HD
ENDROOT
BRANCH   1   5
ATOM      5  C   UNL     1       2.171   7.121  19.324  0.00  0.00    +0.000 C 
BRANCH   5   8
ATOM      6  C   UNL     1       1.732   9.456  18.431  0.00  0.00    +0.000 C 
ATOM      7  O   UNL     1       2.160  10.265  17.604  0.00  0.00    +0.000 OA
ATOM      8  N   UNL     1       2.488   8.338  18.612  0.00  0.00    +0.000 N 
ATOM      9  H   UNL     1       3.415   8.420  18.211  0.00  0.00    +0.000 HD
BRANCH   6  10
ATOM     10  C   UNL     1       0.387   9.619  19.185  0.00  0.00    +0.000 C 
BRANCH  10  11
ATOM     11  N   UNL     1       0.564   9.905  20.617  0.00  0.00    +0.000 NA
ATOM     12  C   UNL     1       0.148   9.227  21.610  0.00  0.00    +0.000 C 
ATOM     13  N   UNL     1      -0.614   8.127  21.693  0.00  0.00    +0.000 N 
ATOM     14  N   UNL     1       0.441   9.657  22.847  0.00  0.00    +0.000 N 
ATOM     15  H   UNL     1      -0.997   7.780  20.815  0.00  0.00    +0.000 HD
ATOM     16  H   UNL     1      -0.351   7.399  22.338  0.00  0.00    +0.000 HD
ATOM     17  H   UNL     1       1.216  10.308  22.870  0.00  0.00    +0.000 HD
ATOM     18  H   UNL     1       0.395   8.988  23.595  0.00  0.00    +0.000 HD
ENDBRANCH  10  11
BRANCH  10  19
ATOM     19  C   UNL     1      -0.594  10.660  18.598  0.00  0.00    +0.000 C 
ATOM     20  C   UNL     1      -1.581  10.080  17.585  0.00  0.00    +0.000 C 
BRANCH  19  22
ATOM     21  C   UNL     1      -1.437  12.961  19.520  0.00  0.00    +0.000 C 
ATOM     22  C   UNL     1      -1.357  11.447  19.701  0.00  0.00    +0.000 C 
ENDBRANCH  19  22
ENDBRANCH  10  19
ENDBRANCH   6  10
ENDBRANCH   5   8
ENDBRANCH   1   5
BRANCH   3  23
ATOM     23  C   UNL     1       3.432   3.785  17.987  0.00  0.00    +0.000 C 
BRANCH  23  24
ATOM     24  C   UNL     1       3.372   2.672  19.033  0.00  0.00    +0.000 C 
ATOM     25  O   UNL     1       2.617   1.700  18.966  0.00  0.00    +0.000 OA
BRANCH  24  26
ATOM     26  O   UNL     1       4.256   2.905  20.042  0.00  0.00    +0.000 OA
ATOM     27  C   UNL     1       4.864   1.722  20.560  0.00  0.00    +0.000 C 
ENDBRANCH  24  26
ENDBRANCH  23  24
BRANCH  23  28
ATOM     28  C   UNL     1       4.770   3.690  17.233  0.00  0.00    +0.000 C 
BRANCH  28  29
ATOM     29  C   UNL     1       5.724   4.869  17.302  0.00  0.00    +0.000 A 
ATOM     30  C   UNL     1       5.566   6.034  16.550  0.00  0.00    +0.000 A 
ATOM     31  C   UNL     1       6.412   7.132  16.747  0.00  0.00    +0.000 A 
ATOM     32  C   UNL     1       7.416   7.109  17.714  0.00  0.00    +0.000 A 
ATOM     33  C   UNL     1       7.643   5.922  18.406  0.00  0.00    +0.000 A 
ATOM     34  C   UNL     1       6.810   4.811  18.196  0.00  0.00    +0.000 A 
BRANCH  32  35
ATOM     35  C   UNL     1       8.137   8.314  18.021  0.00  0.00    +0.000 C 
ATOM     36  C   UNL     1       8.744   9.292  18.379  0.00  0.00    +0.000 C 
BRANCH  36  37
ATOM     37  C   UNL     1       9.420  10.475  18.842  0.00  0.00    +0.000 A 
ATOM     38  C   UNL     1      10.054  11.350  17.954  0.00  0.00    +0.000 A 
ATOM     39  C   UNL     1      10.801  12.436  18.419  0.00  0.00    +0.000 A 
ATOM     40  C   UNL     1      10.886  12.677  19.786  0.00  0.00    +0.000 A 
ATOM     41  C   UNL     1      10.215  11.841  20.678  0.00  0.00    +0.000 A 
ATOM     42  C   UNL     1       9.486  10.743  20.208  0.00  0.00    +0.000 A 
ENDBRANCH  36  37
ENDBRANCH  32  35
ENDBRANCH  28  29
ENDBRANCH  23  28
ENDBRANCH   3  23
TORSDOF 13
ENDMDL
MODEL 3
REMARK VINA RESULT:      -8.1      1.325      2.096
REMARK  Name = 
REMARK  16 active torsions:
REMARK  status: ('A' for Active; 'I' for Inactive)
REMARK    1  A    between atoms: C_1  and  C_2
REMARK    2  A    between atoms: C_2  and  C_3
REMARK    3  A    between atoms: C_3  and  C_4
REMARK    4  A    between atoms: C_3  and  C_5
REMARK    5  A    between atoms: C_5  and  N_6
REMARK    6  A    between atoms: C_5  and  C_10
REMARK    7  A    between atoms: N_12  and  C_13
REMARK    8  A    between atoms: C_13  and  C_14
REMARK    9  A    between atoms: N_16  and  C_17
REMARK   10  A    between atoms: C_17  and  C_18
REMARK   11  A    between atoms: C_17  and  C_33
REMARK   12  A    between atoms: C_18  and  C_19
REMARK   13  A    between atoms: C_22  and  C_23
REMARK   14  A    between atoms: C_24  and  C_25
REMARK   15  A    between atoms: C_33  and  O_35
REMARK   16  A    between atoms: O_35  and  C_36
REMARK                            x       y       z     vdW  Elec       q    Type
REMARK                         _______ _______ _______ _____ _____    ______ ____
ROOT
ATOM      1  C   UNL     1       2.391   5.737  18.669  0.00  0.00    +0.000 C 
ATOM      2  O   UNL     1       1.701   5.358  17.731  0.00  0.00    +0.000 OA
ATOM      3  N   UNL     1       3.485   5.029  19.139  0.00  0.00    +0.000 N 
ATOM      4  H   UNL     1       3.819   5.227  20.076  0.00  0.00    +0.000 HD
ENDROOT
BRANCH   1   5
ATOM      5  C   UNL     1       2.174   7.064  19.375  0.00  0.00    +0.000 C 
BRANCH   5   8
ATOM      6  C   UNL     1       1.818   9.308  18.245  0.00  0.00    +0.000 C 
ATOM      7  O   UNL     1       2.234   9.985  17.301  0.00  0.00    +0.000 OA
ATOM      8  N   UNL     1       2.513   8.166  18.504  0.00  0.00    +0.000 N 
ATOM      9  H   UNL     1       3.411   8.135  18.035  0.00  0.00    +0.000 HD
BRANCH   6  10
ATOM     10  C   UNL     1       0.547   9.652  19.063  0.00  0.00    +0.000 C 
BRANCH  10  11
ATOM     11  N   UNL     1       0.827   9.878  20.489  0.00  0.00    +0.000 NA
ATOM     12  C   UNL     1       0.346   9.261  21.491  0.00  0.00    +0.000 C 
ATOM     13  N   UNL     1      -0.586   8.301  21.595  0.00  0.00    +0.000 N 
ATOM     14  N   UNL     1       0.757   9.612  22.719  0.00  0.00    +0.000 N 
ATOM     15  H   UNL     1      -1.057   8.039  20.730  0.00  0.00    +0.000 HD
ATOM     16  H   UNL     1      -0.422   7.528  22.219  0.00  0.00    +0.000 HD
ATOM     17  H   UNL     1       1.630  10.125  22.716  0.00  0.00    +0.000 HD
ATOM     18  H   UNL     1       0.630   8.947  23.460  0.00  0.00    +0.000 HD
ENDBRANCH  10  11
BRANCH  10  19
ATOM     19  C   UNL     1      -0.294  10.839  18.538  0.00  0.00    +0.000 C 
ATOM     20  C   UNL     1      -1.803  10.640  18.678  0.00  0.00    +0.000 C 
BRANCH  19  22
ATOM     21  C   UNL     1      -0.971  13.238  19.336  0.00  0.00    +0.000 C 
ATOM     22  C   UNL     1       0.132  12.195  19.169  0.00  0.00    +0.000 C 
ENDBRANCH  19  22
ENDBRANCH  10  19
ENDBRANCH   6  10
ENDBRANCH   5   8
ENDBRANCH   1   5
BRANCH   3  23
ATOM     23  C   UNL     1       3.760   3.683  18.624  0.00  0.00    +0.000 C 
BRANCH  23  24
ATOM     24  C   UNL     1       3.860   2.776  19.850  0.00  0.00    +0.000 C 
ATOM     25  O   UNL     1       2.949   2.609  20.662  0.00  0.00    +0.000 OA
BRANCH  24  26
ATOM     26  O   UNL     1       5.087   2.189  19.922  0.00  0.00    +0.000 OA
ATOM     27  C   UNL     1       5.206   1.230  20.972  0.00  0.00    +0.000 C 
ENDBRANCH  24  26
ENDBRANCH  23  24
BRANCH  23  28
ATOM     28  C   UNL     1       5.079   3.604  17.835  0.00  0.00    +0.000 C 
BRANCH  28  29
ATOM     29  C   UNL     1       5.951   4.845  17.758  0.00  0.00    +0.000 A 
ATOM     30  C   UNL     1       5.678   5.929  16.922  0.00  0.00    +0.000 A 
ATOM     31  C   UNL     1       6.454   7.093  16.984  0.00  0.00    +0.000 A 
ATOM     32  C   UNL     1       7.499   7.218  17.897  0.00  0.00    +0.000 A 
ATOM     33  C   UNL     1       7.840   6.113  18.673  0.00  0.00    +0.000 A 
ATOM     34  C   UNL     1       7.077   4.935  18.597  0.00  0.00    +0.000 A 
BRANCH  32  35
ATOM     35  C   UNL     1       8.147   8.490  18.068  0.00  0.00    +0.000 C 
ATOM     36  C   UNL     1       8.670   9.549  18.313  0.00  0.00    +0.000 C 
BRANCH  36  37
ATOM     37  C   UNL     1       9.237  10.834  18.624  0.00  0.00    +0.000 A 
ATOM     38  C   UNL     1      10.045  11.024  19.750  0.00  0.00    +0.000 A 
ATOM     39  C   UNL     1      10.501  12.296  20.106  0.00  0.00    +0.000 A 
ATOM     40  C   UNL     1      10.180  13.389  19.309  0.00  0.00    +0.000 A 
ATOM     41  C   UNL     1       9.418  13.204  18.156  0.00  0.00    +0.000 A 
ATOM     42  C   UNL     1       8.947  11.931  17.816  0.00  0.00    +0.000 A 
ENDBRANCH  36  37
ENDBRANCH  32  35
ENDBRANCH  28  29
ENDBRANCH  23  28
ENDBRANCH   3  23
TORSDOF 13
ENDMDL
MODEL 4
REMARK VINA RESULT:      -7.8      1.580      2.454
REMARK  Name = 
REMARK  16 active torsions:
REMARK  status: ('A' for Active; 'I' for Inactive)
REMARK    1  A    between atoms: C_1  and  C_2
REMARK    2  A    between atoms: C_2  and  C_3
REMARK    3  A    between atoms: C_3  and  C_4
REMARK    4  A    between atoms: C_3  and  C_5
REMARK    5  A    between atoms: C_5  and  N_6
REMARK    6  A    between atoms: C_5  and  C_10
REMARK    7  A    between atoms: N_12  and  C_13
REMARK    8  A    between atoms: C_13  and  C_14
REMARK    9  A    between atoms: N_16  and  C_17
REMARK   10  A    between atoms: C_17  and  C_18
REMARK   11  A    between atoms: C_17  and  C_33
REMARK   12  A    between atoms: C_18  and  C_19
REMARK   13  A    between atoms: C_22  and  C_23
REMARK   14  A    between atoms: C_24  and  C_25
REMARK   15  A    between atoms: C_33  and  O_35
REMARK   16  A    between atoms: O_35  and  C_36
REMARK                            x       y       z     vdW  Elec       q    Type
REMARK                         _______ _______ _______ _____ _____    ______ ____
ROOT
ATOM      1  C   UNL     1       2.644   5.701  18.241  0.00  0.00    +0.000 C 
ATOM      2  O   UNL     1       1.908   4.952  17.611  0.00  0.00    +0.000 OA
ATOM      3  N   UNL     1       4.023   5.578  18.248  0.00  0.00    +0.000 N 
ATOM      4  H   UNL     1       4.541   6.016  19.002  0.00  0.00    +0.000 HD
ENDROOT
BRANCH   1   5
ATOM      5  C   UNL     1       2.133   6.898  19.025  0.00  0.00    +0.000 C 
BRANCH   5   8
ATOM      6  C   UNL     1       1.787   9.290  18.252  0.00  0.00    +0.000 C 
ATOM      7  O   UNL     1       2.238  10.117  17.455  0.00  0.00    +0.000 OA
ATOM      8  N   UNL     1       2.494   8.131  18.364  0.00  0.00    +0.000 N 
ATOM      9  H   UNL     1       3.416   8.189  17.948  0.00  0.00    +0.000 HD
BRANCH   6  10
ATOM     10  C   UNL     1       0.466   9.478  19.040  0.00  0.00    +0.000 C 
BRANCH  10  11
ATOM     11  N   UNL     1       0.685   9.839  20.449  0.00  0.00    +0.000 NA
ATOM     12  C   UNL     1       0.320   9.204  21.488  0.00  0.00    +0.000 C 
ATOM     13  N   UNL     1      -0.415   8.093  21.653  0.00  0.00    +0.000 N 
ATOM     14  N   UNL     1       0.645   9.701  22.691  0.00  0.00    +0.000 N 
ATOM     15  H   UNL     1      -0.819   7.695  20.807  0.00  0.00    +0.000 HD
ATOM     16  H   UNL     1      -0.113   7.405  22.323  0.00  0.00    +0.000 HD
ATOM     17  H   UNL     1       1.406  10.369  22.655  0.00  0.00    +0.000 HD
ATOM     18  H   UNL     1       0.640   9.070  23.472  0.00  0.00    +0.000 HD
ENDBRANCH  10  11
BRANCH  10  19
ATOM     19  C   UNL     1      -0.546  10.477  18.432  0.00  0.00    +0.000 C 
ATOM     20  C   UNL     1      -1.467   9.864  17.377  0.00  0.00    +0.000 C 
BRANCH  19  22
ATOM     21  C   UNL     1      -2.444  12.185  19.012  0.00  0.00    +0.000 C 
ATOM     22  C   UNL     1      -1.386  11.209  19.519  0.00  0.00    +0.000 C 
ENDBRANCH  19  22
ENDBRANCH  10  19
ENDBRANCH   6  10
ENDBRANCH   5   8
ENDBRANCH   1   5
BRANCH   3  23
ATOM     23  C   UNL     1       4.655   4.413  17.619  0.00  0.00    +0.000 C 
BRANCH  23  24
ATOM     24  C   UNL     1       4.449   3.249  18.589  0.00  0.00    +0.000 C 
ATOM     25  O   UNL     1       5.004   3.155  19.684  0.00  0.00    +0.000 OA
BRANCH  24  26
ATOM     26  O   UNL     1       3.579   2.336  18.074  0.00  0.00    +0.000 OA
ATOM     27  C   UNL     1       2.776   1.687  19.059  0.00  0.00    +0.000 C 
ENDBRANCH  24  26
ENDBRANCH  23  24
BRANCH  23  28
ATOM     28  C   UNL     1       6.164   4.607  17.385  0.00  0.00    +0.000 C 
BRANCH  28  29
ATOM     29  C   UNL     1       6.783   5.950  17.730  0.00  0.00    +0.000 A 
ATOM     30  C   UNL     1       7.767   6.118  18.705  0.00  0.00    +0.000 A 
ATOM     31  C   UNL     1       8.382   7.361  18.894  0.00  0.00    +0.000 A 
ATOM     32  C   UNL     1       8.055   8.458  18.099  0.00  0.00    +0.000 A 
ATOM     33  C   UNL     1       7.012   8.329  17.185  0.00  0.00    +0.000 A 
ATOM     34  C   UNL     1       6.377   7.089  17.009  0.00  0.00    +0.000 A 
BRANCH  32  35
ATOM     35  C   UNL     1       8.838   9.661  18.188  0.00  0.00    +0.000 C 
ATOM     36  C   UNL     1       9.552  10.621  18.336  0.00  0.00    +0.000 C 
BRANCH  36  37
ATOM     37  C   UNL     1      10.383  11.772  18.572  0.00  0.00    +0.000 A 
ATOM     38  C   UNL     1      10.157  12.985  17.914  0.00  0.00    +0.000 A 
ATOM     39  C   UNL     1      11.032  14.064  18.065  0.00  0.00    +0.000 A 
ATOM     40  C   UNL     1      12.128  13.947  18.913  0.00  0.00    +0.000 A 
ATOM     41  C   UNL     1      12.333  12.760  19.616  0.00  0.00    +0.000 A 
ATOM     42  C   UNL     1      11.465  11.676  19.444  0.00  0.00    +0.000 A 
ENDBRANCH  36  37
ENDBRANCH  32  35
ENDBRANCH  28  29
ENDBRANCH  23  28
ENDBRANCH   3  23
TORSDOF 13
ENDMDL
MODEL 5
REMARK VINA RESULT:      -7.8      1.663      2.458
REMARK  Name = 
REMARK  16 active torsions:
REMARK  status: ('A' for Active; 'I' for Inactive)
REMARK    1  A    between atoms: C_1  and  C_2
REMARK    2  A    between atoms: C_2  and  C_3
REMARK    3  A    between atoms: C_3  and  C_4
REMARK    4  A    between atoms: C_3  and  C_5
REMARK    5  A    between atoms: C_5  and  N_6
REMARK    6  A    between atoms: C_5  and  C_10
REMARK    7  A    between atoms: N_12  and  C_13
REMARK    8  A    between atoms: C_13  and  C_14
REMARK    9  A    between atoms: N_16  and  C_17
REMARK   10  A    between atoms: C_17  and  C_18
REMARK   11  A    between atoms: C_17  and  C_33
REMARK   12  A    between atoms: C_18  and  C_19
REMARK   13  A    between atoms: C_22  and  C_23
REMARK   14  A    between atoms: C_24  and  C_25
REMARK   15  A    between atoms: C_33  and  O_35
REMARK   16  A    between atoms: O_35  and  C_36
REMARK                            x       y       z     vdW  Elec       q    Type
REMARK                         _______ _______ _______ _____ _____    ______ ____
ROOT
ATOM      1  C   UNL     1       2.529   6.521  19.129  0.00  0.00    +0.000 C 
ATOM      2  O   UNL     1       1.863   6.475  18.102  0.00  0.00    +0.000 OA
ATOM      3  N   UNL     1       3.378   5.502  19.526  0.00  0.00    +0.000 N 
ATOM      4  H   UNL     1       3.657   5.461  20.500  0.00  0.00    +0.000 HD
ENDROOT
BRANCH   1   5
ATOM      5  C   UNL     1       2.556   7.731  20.045  0.00  0.00    +0.000 C 
BRANCH   5   8
ATOM      6  C   UNL     1       0.414   9.082  20.200  0.00  0.00    +0.000 C 
ATOM      7  O   UNL     1      -0.584   9.223  20.912  0.00  0.00    +0.000 OA
ATOM      8  N   UNL     1       1.228   8.040  20.523  0.00  0.00    +0.000 N 
ATOM      9  H   UNL     1       0.795   7.383  21.161  0.00  0.00    +0.000 HD
BRANCH   6  10
ATOM     10  C   UNL     1       0.800  10.047  19.051  0.00  0.00    +0.000 C 
BRANCH  10  11
ATOM     11  N   UNL     1      -0.076   9.921  17.877  0.00  0.00    +0.000 NA
ATOM     12  C   UNL     1      -1.290  10.283  17.760  0.00  0.00    +0.000 C 
ATOM     13  N   UNL     1      -2.162  10.803  18.637  0.00  0.00    +0.000 N 
ATOM     14  N   UNL     1      -1.905  10.096  16.583  0.00  0.00    +0.000 N 
ATOM     15  H   UNL     1      -1.838  10.878  19.600  0.00  0.00    +0.000 HD
ATOM     16  H   UNL     1      -2.750  11.567  18.345  0.00  0.00    +0.000 HD
ATOM     17  H   UNL     1      -1.261   9.964  15.813  0.00  0.00    +0.000 HD
ATOM     18  H   UNL     1      -2.724  10.646  16.393  0.00  0.00    +0.000 HD
ENDBRANCH  10  11
BRANCH  10  19
ATOM     19  C   UNL     1       0.895  11.544  19.430  0.00  0.00    +0.000 C 
ATOM     20  C   UNL     1       1.212  11.793  20.904  0.00  0.00    +0.000 C 
BRANCH  19  22
ATOM     21  C   UNL     1       1.775  13.847  18.548  0.00  0.00    +0.000 C 
ATOM     22  C   UNL     1       1.893  12.325  18.527  0.00  0.00    +0.000 C 
ENDBRANCH  19  22
ENDBRANCH  10  19
ENDBRANCH   6  10
ENDBRANCH   5   8
ENDBRANCH   1   5
BRANCH   3  23
ATOM     23  C   UNL     1       3.383   4.229  18.797  0.00  0.00    +0.000 C 
BRANCH  23  24
ATOM     24  C   UNL     1       3.539   3.138  19.856  0.00  0.00    +0.000 C 
ATOM     25  O   UNL     1       4.312   2.184  19.758  0.00  0.00    +0.000 OA
BRANCH  24  26
ATOM     26  O   UNL     1       2.707   3.363  20.911  0.00  0.00    +0.000 OA
ATOM     27  C   UNL     1       1.435   2.729  20.787  0.00  0.00    +0.000 C 
ENDBRANCH  24  26
ENDBRANCH  23  24
BRANCH  23  28
ATOM     28  C   UNL     1       4.545   4.120  17.793  0.00  0.00    +0.000 C 
BRANCH  28  29
ATOM     29  C   UNL     1       5.605   5.207  17.793  0.00  0.00    +0.000 A 
ATOM     30  C   UNL     1       5.522   6.365  17.017  0.00  0.00    +0.000 A 
ATOM     31  C   UNL     1       6.472   7.384  17.151  0.00  0.00    +0.000 A 
ATOM     32  C   UNL     1       7.508   7.291  18.078  0.00  0.00    +0.000 A 
ATOM     33  C   UNL     1       7.655   6.105  18.793  0.00  0.00    +0.000 A 
ATOM     34  C   UNL     1       6.716   5.070  18.645  0.00  0.00    +0.000 A 
BRANCH  32  35
ATOM     35  C   UNL     1       8.349   8.432  18.325  0.00  0.00    +0.000 C 
ATOM     36  C   UNL     1       8.976   9.425  18.594  0.00  0.00    +0.000 C 
BRANCH  36  37
ATOM     37  C   UNL     1       9.681  10.645  18.887  0.00  0.00    +0.000 A 
ATOM     38  C   UNL     1      10.246  11.425  17.872  0.00  0.00    +0.000 A 
ATOM     39  C   UNL     1      11.022  12.548  18.172  0.00  0.00    +0.000 A 
ATOM     40  C   UNL     1      11.207  12.922  19.498  0.00  0.00    +0.000 A 
ATOM     41  C   UNL     1      10.606  12.182  20.515  0.00  0.00    +0.000 A 
ATOM     42  C   UNL     1       9.847  11.046  20.211  0.00  0.00    +0.000 A 
ENDBRANCH  36  37
ENDBRANCH  32  35
ENDBRANCH  28  29
ENDBRANCH  23  28
ENDBRANCH   3  23
TORSDOF 13
ENDMDL
MODEL 6
REMARK VINA RESULT:      -7.6      1.160      1.481
REMARK  Name = 
REMARK  16 active torsions:
REMARK  status: ('A' for Active; 'I' for Inactive)
REMARK    1  A    between atoms: C_1  and  C_2
REMARK    2  A    between atoms: C_2  and  C_3
REMARK    3  A    between atoms: C_3  and  C_4
REMARK    4  A    between atoms: C_3  and  C_5
REMARK    5  A    between atoms: C_5  and  N_6
REMARK    6  A    between atoms: C_5  and  C_10
REMARK    7  A    between atoms: N_12  and  C_13
REMARK    8  A    between atoms: C_13  and  C_14
REMARK    9  A    between atoms: N_16  and  C_17
REMARK   10  A    between atoms: C_17  and  C_18
REMARK   11  A    between atoms: C_17  and  C_33
REMARK   12  A    between atoms: C_18  and  C_19
REMARK   13  A    between atoms: C_22  and  C_23
REMARK   14  A    between atoms: C_24  and  C_25
REMARK   15  A    between atoms: C_33  and  O_35
REMARK   16  A    between atoms: O_35  and  C_36
REMARK                            x       y       z     vdW  Elec       q    Type
REMARK                         _______ _______ _______ _____ _____    ______ ____
ROOT
ATOM      1  C   UNL     1       2.432   6.575  18.297  0.00  0.00    +0.000 C 
ATOM      2  O   UNL     1       1.741   6.182  17.365  0.00  0.00    +0.000 OA
ATOM      3  N   UNL     1       3.475   5.837  18.830  0.00  0.00    +0.000 N 
ATOM      4  H   UNL     1       3.800   6.068  19.763  0.00  0.00    +0.000 HD
ENDROOT
BRANCH   1   5
ATOM      5  C   UNL     1       2.272   7.949  18.924  0.00  0.00    +0.000 C 
BRANCH   5   8
ATOM      6  C   UNL     1       0.643   9.871  18.626  0.00  0.00    +0.000 C 
ATOM      7  O   UNL     1      -0.385  10.174  18.014  0.00  0.00    +0.000 OA
ATOM      8  N   UNL     1       1.214   8.687  18.273  0.00  0.00    +0.000 N 
ATOM      9  H   UNL     1       0.851   8.317  17.402  0.00  0.00    +0.000 HD
BRANCH   6  10
ATOM     10  C   UNL     1       1.240  10.712  19.783  0.00  0.00    +0.000 C 
BRANCH  10  11
ATOM     11  N   UNL     1       1.446  12.122  19.420  0.00  0.00    +0.000 NA
ATOM     12  C   UNL     1       2.091  12.592  18.430  0.00  0.00    +0.000 C 
ATOM     13  N   UNL     1       2.828  12.005  17.475  0.00  0.00    +0.000 N 
ATOM     14  N   UNL     1       2.136  13.924  18.268  0.00  0.00    +0.000 N 
ATOM     15  H   UNL     1       2.963  11.000  17.569  0.00  0.00    +0.000 HD
ATOM     16  H   UNL     1       2.726  12.315  16.522  0.00  0.00    +0.000 HD
ATOM     17  H   UNL     1       1.406  14.412  18.772  0.00  0.00    +0.000 HD
ATOM     18  H   UNL     1       2.361  14.273  17.354  0.00  0.00    +0.000 HD
ENDBRANCH  10  11
BRANCH  10  19
ATOM     19  C   UNL     1       0.469  10.661  21.123  0.00  0.00    +0.000 C 
ATOM     20  C   UNL     1      -0.325  11.931  21.430  0.00  0.00    +0.000 C 
BRANCH  19  22
ATOM     21  C   UNL     1       0.169   8.169  21.867  0.00  0.00    +0.000 C 
ATOM     22  C   UNL     1      -0.451   9.412  21.233  0.00  0.00    +0.000 C 
ENDBRANCH  19  22
ENDBRANCH  10  19
ENDBRANCH   6  10
ENDBRANCH   5   8
ENDBRANCH   1   5
BRANCH   3  23
ATOM     23  C   UNL     1       3.686   4.452  18.396  0.00  0.00    +0.000 C 
BRANCH  23  24
ATOM     24  C   UNL     1       3.603   3.597  19.661  0.00  0.00    +0.000 C 
ATOM     25  O   UNL     1       4.566   3.021  20.169  0.00  0.00    +0.000 OA
BRANCH  24  26
ATOM     26  O   UNL     1       2.328   3.558  20.138  0.00  0.00    +0.000 OA
ATOM     27  C   UNL     1       2.244   3.632  21.560  0.00  0.00    +0.000 C 
ENDBRANCH  24  26
ENDBRANCH  23  24
BRANCH  23  28
ATOM     28  C   UNL     1       5.060   4.236  17.736  0.00  0.00    +0.000 C 
BRANCH  28  29
ATOM     29  C   UNL     1       6.046   5.391  17.726  0.00  0.00    +0.000 A 
ATOM     30  C   UNL     1       6.013   6.425  16.788  0.00  0.00    +0.000 A 
ATOM     31  C   UNL     1       6.875   7.522  16.903  0.00  0.00    +0.000 A 
ATOM     32  C   UNL     1       7.769   7.631  17.967  0.00  0.00    +0.000 A 
ATOM     33  C   UNL     1       7.877   6.565  18.857  0.00  0.00    +0.000 A 
ATOM     34  C   UNL     1       7.028   5.453  18.732  0.00  0.00    +0.000 A 
BRANCH  32  35
ATOM     35  C   UNL     1       8.500   8.855  18.161  0.00  0.00    +0.000 C 
ATOM     36  C   UNL     1       9.019   9.930  18.327  0.00  0.00    +0.000 C 
BRANCH  36  37
ATOM     37  C   UNL     1       9.616  11.231  18.469  0.00  0.00    +0.000 A 
ATOM     38  C   UNL     1      10.764  11.429  19.242  0.00  0.00    +0.000 A 
ATOM     39  C   UNL     1      11.273  12.711  19.465  0.00  0.00    +0.000 A 
ATOM     40  C   UNL     1      10.653  13.809  18.879  0.00  0.00    +0.000 A 
ATOM     41  C   UNL     1       9.538  13.618  18.063  0.00  0.00    +0.000 A 
ATOM     42  C   UNL     1       9.020  12.335  17.860  0.00  0.00    +0.000 A 
ENDBRANCH  36  37
ENDBRANCH  32  35
ENDBRANCH  28  29
ENDBRANCH  23  28
ENDBRANCH   3  23
TORSDOF 13
ENDMDL
MODEL 7
REMARK VINA RESULT:      -7.6      1.587      1.978
REMARK  Name = 
REMARK  16 active torsions:
REMARK  status: ('A' for Active; 'I' for Inactive)
REMARK    1  A    between atoms: C_1  and  C_2
REMARK    2  A    between atoms: C_2  and  C_3
REMARK    3  A    between atoms: C_3  and  C_4
REMARK    4  A    between atoms: C_3  and  C_5
REMARK    5  A    between atoms: C_5  and  N_6
REMARK    6  A    between atoms: C_5  and  C_10
REMARK    7  A    between atoms: N_12  and  C_13
REMARK    8  A    between atoms: C_13  and  C_14
REMARK    9  A    between atoms: N_16  and  C_17
REMARK   10  A    between atoms: C_17  and  C_18
REMARK   11  A    between atoms: C_17  and  C_33
REMARK   12  A    between atoms: C_18  and  C_19
REMARK   13  A    between atoms: C_22  and  C_23
REMARK   14  A    between atoms: C_24  and  C_25
REMARK   15  A    between atoms: C_33  and  O_35
REMARK   16  A    between atoms: O_35  and  C_36
REMARK                            x       y       z     vdW  Elec       q    Type
REMARK                         _______ _______ _______ _____ _____    ______ ____
ROOT
ATOM      1  C   UNL     1       2.308   6.730  18.332  0.00  0.00    +0.000 C 
ATOM      2  O   UNL     1       1.773   6.355  17.296  0.00  0.00    +0.000 OA
ATOM      3  N   UNL     1       3.173   5.937  19.068  0.00  0.00    +0.000 N 
ATOM      4  H   UNL     1       3.337   6.179  20.039  0.00  0.00    +0.000 HD
ENDROOT
BRANCH   1   5
ATOM      5  C   UNL     1       2.145   8.135  18.886  0.00  0.00    +0.000 C 
BRANCH   5   8
ATOM      6  C   UNL     1       1.014   9.057  20.962  0.00  0.00    +0.000 C 
ATOM      7  O   UNL     1       0.890   8.833  22.169  0.00  0.00    +0.000 OA
ATOM      8  N   UNL     1       1.653   8.093  20.244  0.00  0.00    +0.000 N 
ATOM      9  H   UNL     1       1.743   7.219  20.750  0.00  0.00    +0.000 HD
BRANCH   6  10
ATOM     10  C   UNL     1       0.559  10.369  20.274  0.00  0.00    +0.000 C 
BRANCH  10  11
ATOM     11  N   UNL     1       1.389  10.726  19.113  0.00  0.00    +0.000 NA
ATOM     12  C   UNL     1       1.829  11.872  18.785  0.00  0.00    +0.000 C 
ATOM     13  N   UNL     1       1.638  13.094  19.307  0.00  0.00    +0.000 N 
ATOM     14  N   UNL     1       2.596  11.976  17.689  0.00  0.00    +0.000 N 
ATOM     15  H   UNL     1       0.972  13.152  20.076  0.00  0.00    +0.000 HD
ATOM     16  H   UNL     1       2.428  13.711  19.405  0.00  0.00    +0.000 HD
ATOM     17  H   UNL     1       2.999  11.093  17.399  0.00  0.00    +0.000 HD
ATOM     18  H   UNL     1       3.185  12.786  17.608  0.00  0.00    +0.000 HD
ENDBRANCH  10  11
BRANCH  10  19
ATOM     19  C   UNL     1      -0.927  10.428  19.847  0.00  0.00    +0.000 C 
ATOM     20  C   UNL     1      -1.646  11.706  20.278  0.00  0.00    +0.000 C 
BRANCH  19  22
ATOM     21  C   UNL     1      -1.927  11.246  17.571  0.00  0.00    +0.000 C 
ATOM     22  C   UNL     1      -1.117  10.192  18.322  0.00  0.00    +0.000 C 
ENDBRANCH  19  22
ENDBRANCH  10  19
ENDBRANCH   6  10
ENDBRANCH   5   8
ENDBRANCH   1   5
BRANCH   3  23
ATOM     23  C   UNL     1       3.350   4.525  18.712  0.00  0.00    +0.000 C 
BRANCH  23  24
ATOM     24  C   UNL     1       3.461   3.769  20.036  0.00  0.00    +0.000 C 
ATOM     25  O   UNL     1       4.238   2.834  20.236  0.00  0.00    +0.000 OA
BRANCH  24  26
ATOM     26  O   UNL     1       2.585   4.264  20.954  0.00  0.00    +0.000 OA
ATOM     27  C   UNL     1       1.714   3.279  21.508  0.00  0.00    +0.000 C 
ENDBRANCH  24  26
ENDBRANCH  23  24
BRANCH  23  28
ATOM     28  C   UNL     1       4.622   4.273  17.885  0.00  0.00    +0.000 C 
BRANCH  28  29
ATOM     29  C   UNL     1       5.705   5.338  17.881  0.00  0.00    +0.000 A 
ATOM     30  C   UNL     1       5.702   6.437  17.021  0.00  0.00    +0.000 A 
ATOM     31  C   UNL     1       6.665   7.446  17.146  0.00  0.00    +0.000 A 
ATOM     32  C   UNL     1       7.633   7.401  18.147  0.00  0.00    +0.000 A 
ATOM     33  C   UNL     1       7.704   6.267  18.953  0.00  0.00    +0.000 A 
ATOM     34  C   UNL     1       6.753   5.243  18.815  0.00  0.00    +0.000 A 
BRANCH  32  35
ATOM     35  C   UNL     1       8.481   8.541  18.370  0.00  0.00    +0.000 C 
ATOM     36  C   UNL     1       9.117   9.535  18.619  0.00  0.00    +0.000 C 
BRANCH  36  37
ATOM     37  C   UNL     1       9.830  10.755  18.888  0.00  0.00    +0.000 A 
ATOM     38  C   UNL     1      10.040  11.207  20.195  0.00  0.00    +0.000 A 
ATOM     39  C   UNL     1      10.636  12.446  20.445  0.00  0.00    +0.000 A 
ATOM     40  C   UNL     1      11.065  13.230  19.379  0.00  0.00    +0.000 A 
ATOM     41  C   UNL     1      10.909  12.765  18.073  0.00  0.00    +0.000 A 
ATOM     42  C   UNL     1      10.292  11.534  17.829  0.00  0.00    +0.000 A 
ENDBRANCH  36  37
ENDBRANCH  32  35
ENDBRANCH  28  29
ENDBRANCH  23  28
ENDBRANCH   3  23
TORSDOF 13
ENDMDL
MODEL 8
REMARK VINA RESULT:      -7.5      1.244      1.495
REMARK  Name = 
REMARK  16 active torsions:
REMARK  status: ('A' for Active; 'I' for Inactive)
REMARK    1  A    between atoms: C_1  and  C_2
REMARK    2  A    between atoms: C_2  and  C_3
REMARK    3  A    between atoms: C_3  and  C_4
REMARK    4  A    between atoms: C_3  and  C_5
REMARK    5  A    between atoms: C_5  and  N_6
REMARK    6  A    between atoms: C_5  and  C_10
REMARK    7  A    between atoms: N_12  and  C_13
REMARK    8  A    between atoms: C_13  and  C_14
REMARK    9  A    between atoms: N_16  and  C_17
REMARK   10  A    between atoms: C_17  and  C_18
REMARK   11  A    between atoms: C_17  and  C_33
REMARK   12  A    between atoms: C_18  and  C_19
REMARK   13  A    between atoms: C_22  and  C_23
REMARK   14  A    between atoms: C_24  and  C_25
REMARK   15  A    between atoms: C_33  and  O_35
REMARK   16  A    between atoms: O_35  and  C_36
REMARK                            x       y       z     vdW  Elec       q    Type
REMARK                         _______ _______ _______ _____ _____    ______ ____
ROOT
ATOM      1  C   UNL     1       3.035   5.715  19.300  0.00  0.00    +0.000 C 
ATOM      2  O   UNL     1       3.427   4.844  20.066  0.00  0.00    +0.000 OA
ATOM      3  N   UNL     1       2.944   5.533  17.930  0.00  0.00    +0.000 N 
ATOM      4  H   UNL     1       2.909   6.355  17.337  0.00  0.00    +0.000 HD
ENDROOT
BRANCH   1   5
ATOM      5  C   UNL     1       2.533   7.068  19.771  0.00  0.00    +0.000 C 
BRANCH   5   8
ATOM      6  C   UNL     1       1.254   8.979  18.698  0.00  0.00    +0.000 C 
ATOM      7  O   UNL     1       0.653   9.270  17.661  0.00  0.00    +0.000 OA
ATOM      8  N   UNL     1       1.924   7.794  18.680  0.00  0.00    +0.000 N 
ATOM      9  H   UNL     1       2.029   7.413  17.747  0.00  0.00    +0.000 HD
BRANCH   6  10
ATOM     10  C   UNL     1       1.215   9.834  19.990  0.00  0.00    +0.000 C 
BRANCH  10  11
ATOM     11  N   UNL     1       1.472  11.261  19.741  0.00  0.00    +0.000 NA
ATOM     12  C   UNL     1       0.793  12.069  19.031  0.00  0.00    +0.000 C 
ATOM     13  N   UNL     1      -0.282  11.894  18.248  0.00  0.00    +0.000 N 
ATOM     14  N   UNL     1       1.192  13.348  18.955  0.00  0.00    +0.000 N 
ATOM     15  H   UNL     1      -0.602  10.933  18.134  0.00  0.00    +0.000 HD
ATOM     16  H   UNL     1      -1.029  12.569  18.287  0.00  0.00    +0.000 HD
ATOM     17  H   UNL     1       1.816  13.616  19.705  0.00  0.00    +0.000 HD
ATOM     18  H   UNL     1       0.513  14.030  18.670  0.00  0.00    +0.000 HD
ENDBRANCH  10  11
BRANCH  10  19
ATOM     19  C   UNL     1      -0.070   9.712  20.843  0.00  0.00    +0.000 C 
ATOM     20  C   UNL     1      -0.335   8.301  21.367  0.00  0.00    +0.000 C 
BRANCH  19  22
ATOM     21  C   UNL     1      -1.336  11.639  22.083  0.00  0.00    +0.000 C 
ATOM     22  C   UNL     1      -0.107  10.736  22.013  0.00  0.00    +0.000 C 
ENDBRANCH  19  22
ENDBRANCH  10  19
ENDBRANCH   6  10
ENDBRANCH   5   8
ENDBRANCH   1   5
BRANCH   3  23
ATOM     23  C   UNL     1       3.486   4.315  17.317  0.00  0.00    +0.000 C 
BRANCH  23  24
ATOM     24  C   UNL     1       2.603   3.168  17.810  0.00  0.00    +0.000 C 
ATOM     25  O   UNL     1       3.035   2.081  18.197  0.00  0.00    +0.000 OA
BRANCH  24  26
ATOM     26  O   UNL     1       1.286   3.510  17.756  0.00  0.00    +0.000 OA
ATOM     27  C   UNL     1       0.486   2.876  18.753  0.00  0.00    +0.000 C 
ENDBRANCH  24  26
ENDBRANCH  23  24
BRANCH  23  28
ATOM     28  C   UNL     1       4.942   4.037  17.729  0.00  0.00    +0.000 C 
BRANCH  28  29
ATOM     29  C   UNL     1       5.925   5.195  17.735  0.00  0.00    +0.000 A 
ATOM     30  C   UNL     1       5.854   6.272  16.850  0.00  0.00    +0.000 A 
ATOM     31  C   UNL     1       6.717   7.366  16.983  0.00  0.00    +0.000 A 
ATOM     32  C   UNL     1       7.651   7.428  18.015  0.00  0.00    +0.000 A 
ATOM     33  C   UNL     1       7.795   6.322  18.849  0.00  0.00    +0.000 A 
ATOM     34  C   UNL     1       6.945   5.213  18.704  0.00  0.00    +0.000 A 
BRANCH  32  35
ATOM     35  C   UNL     1       8.386   8.644  18.238  0.00  0.00    +0.000 C 
ATOM     36  C   UNL     1       8.973   9.657  18.526  0.00  0.00    +0.000 C 
BRANCH  36  37
ATOM     37  C   UNL     1       9.619  10.892  18.885  0.00  0.00    +0.000 A 
ATOM     38  C   UNL     1      10.110  11.770  17.913  0.00  0.00    +0.000 A 
ATOM     39  C   UNL     1      10.832  12.912  18.269  0.00  0.00    +0.000 A 
ATOM     40  C   UNL     1      11.036  13.205  19.613  0.00  0.00    +0.000 A 
ATOM     41  C   UNL     1      10.506  12.364  20.592  0.00  0.00    +0.000 A 
ATOM     42  C   UNL     1       9.802  11.211  20.229  0.00  0.00    +0.000 A 
ENDBRANCH  36  37
ENDBRANCH  32  35
ENDBRANCH  28  29
ENDBRANCH  23  28
ENDBRANCH   3  23
TORSDOF 13
ENDMDL
MODEL 9
REMARK VINA RESULT:      -7.5      1.704      2.670
REMARK  Name = 
REMARK  16 active torsions:
REMARK  status: ('A' for Active; 'I' for Inactive)
REMARK    1  A    between atoms: C_1  and  C_2
REMARK    2  A    between atoms: C_2  and  C_3
REMARK    3  A    between atoms: C_3  and  C_4
REMARK    4  A    between atoms: C_3  and  C_5
REMARK    5  A    between atoms: C_5  and  N_6
REMARK    6  A    between atoms: C_5  and  C_10
REMARK    7  A    between atoms: N_12  and  C_13
REMARK    8  A    between atoms: C_13  and  C_14
REMARK    9  A    between atoms: N_16  and  C_17
REMARK   10  A    between atoms: C_17  and  C_18
REMARK   11  A    between atoms: C_17  and  C_33
REMARK   12  A    between atoms: C_18  and  C_19
REMARK   13  A    between atoms: C_22  and  C_23
REMARK   14  A    between atoms: C_24  and  C_25
REMARK   15  A    between atoms: C_33  and  O_35
REMARK   16  A    between atoms: O_35  and  C_36
REMARK                            x       y       z     vdW  Elec       q    Type
REMARK                         _______ _______ _______ _____ _____    ______ ____
ROOT
ATOM      1  C   UNL     1       2.127   6.370  19.191  0.00  0.00    +0.000 C 
ATOM      2  O   UNL     1       2.232   7.182  18.281  0.00  0.00    +0.000 OA
ATOM      3  N   UNL     1       2.783   5.150  19.196  0.00  0.00    +0.000 N 
ATOM      4  H   UNL     1       2.430   4.417  19.803  0.00  0.00    +0.000 HD
ENDROOT
BRANCH   1   5
ATOM      5  C   UNL     1       1.326   6.638  20.453  0.00  0.00    +0.000 C 
BRANCH   5   8
ATOM      6  C   UNL     1       1.450   9.043  21.253  0.00  0.00    +0.000 C 
ATOM      7  O   UNL     1       2.230   9.842  21.778  0.00  0.00    +0.000 OA
ATOM      8  N   UNL     1       1.883   7.754  21.182  0.00  0.00    +0.000 N 
ATOM      9  H   UNL     1       2.689   7.575  21.770  0.00  0.00    +0.000 HD
BRANCH   6  10
ATOM     10  C   UNL     1       0.090   9.445  20.628  0.00  0.00    +0.000 C 
BRANCH  10  11
ATOM     11  N   UNL     1      -0.784  10.160  21.570  0.00  0.00    +0.000 NA
ATOM     12  C   UNL     1      -0.781  10.106  22.840  0.00  0.00    +0.000 C 
ATOM     13  N   UNL     1      -0.074   9.365  23.708  0.00  0.00    +0.000 N 
ATOM     14  N   UNL     1      -1.656  10.864  23.518  0.00  0.00    +0.000 N 
ATOM     15  H   UNL     1       0.540   8.662  23.300  0.00  0.00    +0.000 HD
ATOM     16  H   UNL     1       0.302   9.806  24.532  0.00  0.00    +0.000 HD
ATOM     17  H   UNL     1      -2.029  11.629  22.969  0.00  0.00    +0.000 HD
ATOM     18  H   UNL     1      -1.453  11.060  24.482  0.00  0.00    +0.000 HD
ENDBRANCH  10  11
BRANCH  10  19
ATOM     19  C   UNL     1       0.165  10.262  19.317  0.00  0.00    +0.000 C 
ATOM     20  C   UNL     1      -0.002  11.769  19.514  0.00  0.00    +0.000 C 
BRANCH  19  22
ATOM     21  C   UNL     1       2.261  11.181  18.046  0.00  0.00    +0.000 C 
ATOM     22  C   UNL     1       1.457   9.966  18.503  0.00  0.00    +0.000 C 
ENDBRANCH  19  22
ENDBRANCH  10  19
ENDBRANCH   6  10
ENDBRANCH   5   8
ENDBRANCH   1   5
BRANCH   3  23
ATOM     23  C   UNL     1       3.513   4.708  18.003  0.00  0.00    +0.000 C 
BRANCH  23  24
ATOM     24  C   UNL     1       2.864   3.391  17.577  0.00  0.00    +0.000 C 
ATOM     25  O   UNL     1       1.677   3.273  17.270  0.00  0.00    +0.000 OA
BRANCH  24  26
ATOM     26  O   UNL     1       3.771   2.375  17.591  0.00  0.00    +0.000 OA
ATOM     27  C   UNL     1       3.436   1.316  18.487  0.00  0.00    +0.000 C 
ENDBRANCH  24  26
ENDBRANCH  23  24
BRANCH  23  28
ATOM     28  C   UNL     1       5.008   4.464  18.275  0.00  0.00    +0.000 C 
BRANCH  28  29
ATOM     29  C   UNL     1       5.973   5.622  18.099  0.00  0.00    +0.000 A 
ATOM     30  C   UNL     1       5.709   6.731  17.293  0.00  0.00    +0.000 A 
ATOM     31  C   UNL     1       6.587   7.821  17.266  0.00  0.00    +0.000 A 
ATOM     32  C   UNL     1       7.733   7.847  18.059  0.00  0.00    +0.000 A 
ATOM     33  C   UNL     1       8.056   6.711  18.797  0.00  0.00    +0.000 A 
ATOM     34  C   UNL     1       7.188   5.607  18.809  0.00  0.00    +0.000 A 
BRANCH  32  35
ATOM     35  C   UNL     1       8.507   9.055  18.153  0.00  0.00    +0.000 C 
ATOM     36  C   UNL     1       9.073  10.119  18.191  0.00  0.00    +0.000 C 
BRANCH  36  37
ATOM     37  C   UNL     1       9.746  11.391  18.174  0.00  0.00    +0.000 A 
ATOM     38  C   UNL     1       9.082  12.565  17.800  0.00  0.00    +0.000 A 
ATOM     39  C   UNL     1       9.769  13.775  17.680  0.00  0.00    +0.000 A 
ATOM     40  C   UNL     1      11.128  13.828  17.972  0.00  0.00    +0.000 A 
ATOM     41  C   UNL     1      11.788  12.675  18.396  0.00  0.00    +0.000 A 
ATOM     42  C   UNL     1      11.100  11.461  18.494  0.00  0.00    +0.000 A 
ENDBRANCH  36  37
ENDBRANCH  32  35
ENDBRANCH  28  29
ENDBRANCH  23  28
ENDBRANCH   3  23
TORSDOF 13
ENDMDL
