MODEL 1
REMARK VINA RESULT:      -8.7      0.000      0.000
REMARK  Name = 
REMARK  9 active torsions:
REMARK  status: ('A' for Active; 'I' for Inactive)
REMARK    1  A    between atoms: C_1  and  C_2
REMARK    2  A    between atoms: C_2  and  C_3
REMARK    3  A    between atoms: C_2  and  C_4
REMARK    4  A    between atoms: C_2  and  C_5
REMARK    5  A    between atoms: C_8  and  C_9
REMARK    6  A    between atoms: N_11  and  C_12
REMARK    7  A    between atoms: C_17  and  C_18
REMARK    8  A    between atoms: N_20  and  C_21
REMARK    9  A    between atoms: C_25  and  C_26
REMARK                            x       y       z     vdW  Elec       q    Type
REMARK                         _______ _______ _______ _____ _____    ______ ____
ROOT
ATOM      1  C   UNL     1       6.387   5.990  16.470  0.00  0.00    +0.000 A 
ATOM      2  C   UNL     1       7.003   5.233  15.458  0.00  0.00    +0.000 A 
ATOM      3  C   UNL     1       6.450   4.024  15.028  0.00  0.00    +0.000 A 
ATOM      4  C   UNL     1       5.299   3.536  15.631  0.00  0.00    +0.000 A 
ATOM      5  C   UNL     1       4.690   4.269  16.647  0.00  0.00    +0.000 A 
ATOM      6  C   UNL     1       5.212   5.509  17.066  0.00  0.00    +0.000 A 
ENDROOT
BRANCH   1   9
ATOM      7  C   UNL     1       7.748   7.474  17.880  0.00  0.00    +0.000 C 
ATOM      8  O   UNL     1       8.120   6.595  18.652  0.00  0.00    +0.000 OA
ATOM      9  N   UNL     1       6.912   7.259  16.795  0.00  0.00    +0.000 N 
ATOM     10  H   UNL     1       6.543   8.044  16.274  0.00  0.00    +0.000 HD
BRANCH   7  14
ATOM     11  C   UNL     1       9.206  11.483  18.573  0.00  0.00    +0.000 A 
ATOM     12  C   UNL     1       9.545  10.410  19.414  0.00  0.00    +0.000 A 
ATOM     13  C   UNL     1       9.049   9.122  19.185  0.00  0.00    +0.000 A 
ATOM     14  C   UNL     1       8.170   8.880  18.127  0.00  0.00    +0.000 A 
ATOM     15  C   UNL     1       7.721   9.957  17.364  0.00  0.00    +0.000 A 
ATOM     16  C   UNL     1       8.229  11.242  17.592  0.00  0.00    +0.000 A 
BRANCH  11  18
ATOM     17  C   UNL     1      10.825  13.078  17.450  0.00  0.00    +0.000 C 
ATOM     18  C   UNL     1       9.924  12.839  18.686  0.00  0.00    +0.000 C 
ATOM     19  C   UNL     1      10.795  12.895  19.952  0.00  0.00    +0.000 C 
ATOM     20  C   UNL     1       8.930  14.023  18.729  0.00  0.00    +0.000 C 
ENDBRANCH  11  18
ENDBRANCH   7  14
ENDBRANCH   1   9
BRANCH   6  21
ATOM     21  C   UNL     1       4.431   6.213  18.124  0.00  0.00    +0.000 C 
ATOM     22  O   UNL     1       4.812   6.051  19.282  0.00  0.00    +0.000 OA
ATOM     23  N   UNL     1       3.370   7.028  17.740  0.00  0.00    +0.000 N 
ATOM     24  H   UNL     1       3.308   7.277  16.757  0.00  0.00    +0.000 HD
BRANCH  23  25
ATOM     25  C   UNL     1       2.496   7.695  18.643  0.00  0.00    +0.000 A 
ATOM     26  C   UNL     1       2.193   7.186  19.912  0.00  0.00    +0.000 A 
ATOM     27  C   UNL     1       1.352   7.869  20.794  0.00  0.00    +0.000 A 
ATOM     28  C   UNL     1       0.788   9.082  20.416  0.00  0.00    +0.000 A 
ATOM     29  C   UNL     1       1.067   9.608  19.150  0.00  0.00    +0.000 A 
ATOM     30  C   UNL     1       1.901   8.903  18.256  0.00  0.00    +0.000 A 
BRANCH  29  31
ATOM     31  C   UNL     1       0.470  10.896  18.718  0.00  0.00    +0.000 C 
ATOM     32  N   UNL     1      -0.607  10.847  17.876  0.00  0.00    +0.000 N 
ATOM     33  O   UNL     1       0.910  11.970  19.121  0.00  0.00    +0.000 OA
ATOM     34  H   UNL     1      -1.148  10.005  17.730  0.00  0.00    +0.000 HD
ATOM     35  H   UNL     1      -1.053  11.729  17.659  0.00  0.00    +0.000 HD
ENDBRANCH  29  31
ENDBRANCH  23  25
ENDBRANCH   6  21
TORSDOF 6
ENDMDL
MODEL 2
REMARK VINA RESULT:      -8.5      2.075      6.827
REMARK  Name = 
REMARK  9 active torsions:
REMARK  status: ('A' for Active; 'I' for Inactive)
REMARK    1  A    between atoms: C_1  and  C_2
REMARK    2  A    between atoms: C_2  and  C_3
REMARK    3  A    between atoms: C_2  and  C_4
REMARK    4  A    between atoms: C_2  and  C_5
REMARK    5  A    between atoms: C_8  and  C_9
REMARK    6  A    between atoms: N_11  and  C_12
REMARK    7  A    between atoms: C_17  and  C_18
REMARK    8  A    between atoms: N_20  and  C_21
REMARK    9  A    between atoms: C_25  and  C_26
REMARK                            x       y       z     vdW  Elec       q    Type
REMARK                         _______ _______ _______ _____ _____    ______ ____
ROOT
ATOM      1  C   UNL     1       5.302   6.016  16.500  0.00  0.00    +0.000 A 
ATOM      2  C   UNL     1       4.799   5.005  15.663  0.00  0.00    +0.000 A 
ATOM      3  C   UNL     1       5.647   4.044  15.107  0.00  0.00    +0.000 A 
ATOM      4  C   UNL     1       7.013   4.105  15.347  0.00  0.00    +0.000 A 
ATOM      5  C   UNL     1       7.525   5.114  16.160  0.00  0.00    +0.000 A 
ATOM      6  C   UNL     1       6.679   6.067  16.761  0.00  0.00    +0.000 A 
ENDROOT
BRANCH   1   9
ATOM      7  C   UNL     1       3.491   6.483  18.095  0.00  0.00    +0.000 C 
ATOM      8  O   UNL     1       3.384   5.327  18.495  0.00  0.00    +0.000 OA
ATOM      9  N   UNL     1       4.399   6.897  17.133  0.00  0.00    +0.000 N 
ATOM     10  H   UNL     1       4.352   7.836  16.758  0.00  0.00    +0.000 HD
BRANCH   7  14
ATOM     11  C   UNL     1       0.968   9.541  19.815  0.00  0.00    +0.000 A 
ATOM     12  C   UNL     1       1.344   8.395  20.533  0.00  0.00    +0.000 A 
ATOM     13  C   UNL     1       2.148   7.405  19.954  0.00  0.00    +0.000 A 
ATOM     14  C   UNL     1       2.566   7.521  18.627  0.00  0.00    +0.000 A 
ATOM     15  C   UNL     1       2.092   8.586  17.861  0.00  0.00    +0.000 A 
ATOM     16  C   UNL     1       1.297   9.578  18.450  0.00  0.00    +0.000 A 
BRANCH  11  18
ATOM     17  C   UNL     1       1.207  11.970  20.505  0.00  0.00    +0.000 C 
ATOM     18  C   UNL     1       0.282  10.728  20.516  0.00  0.00    +0.000 C 
ATOM     19  C   UNL     1      -0.063  10.380  21.973  0.00  0.00    +0.000 C 
ATOM     20  C   UNL     1      -1.020  11.155  19.798  0.00  0.00    +0.000 C 
ENDBRANCH  11  18
ENDBRANCH   7  14
ENDBRANCH   1   9
BRANCH   6  21
ATOM     21  C   UNL     1       7.353   7.057  17.650  0.00  0.00    +0.000 C 
ATOM     22  O   UNL     1       7.632   6.671  18.784  0.00  0.00    +0.000 OA
ATOM     23  N   UNL     1       7.659   8.315  17.138  0.00  0.00    +0.000 N 
ATOM     24  H   UNL     1       7.606   8.431  16.131  0.00  0.00    +0.000 HD
BRANCH  23  25
ATOM     25  C   UNL     1       8.229   9.377  17.893  0.00  0.00    +0.000 A 
ATOM     26  C   UNL     1       8.938   9.160  19.082  0.00  0.00    +0.000 A 
ATOM     27  C   UNL     1       9.511  10.216  19.796  0.00  0.00    +0.000 A 
ATOM     28  C   UNL     1       9.379  11.519  19.333  0.00  0.00    +0.000 A 
ATOM     29  C   UNL     1       8.669  11.764  18.154  0.00  0.00    +0.000 A 
ATOM     30  C   UNL     1       8.073  10.697  17.448  0.00  0.00    +0.000 A 
BRANCH  29  31
ATOM     31  C   UNL     1       8.504  13.148  17.643  0.00  0.00    +0.000 C 
ATOM     32  N   UNL     1       9.636  13.881  17.417  0.00  0.00    +0.000 N 
ATOM     33  O   UNL     1       7.392  13.614  17.408  0.00  0.00    +0.000 OA
ATOM     34  H   UNL     1      10.554  13.462  17.352  0.00  0.00    +0.000 HD
ATOM     35  H   UNL     1       9.510  14.790  16.991  0.00  0.00    +0.000 HD
ENDBRANCH  29  31
ENDBRANCH  23  25
ENDBRANCH   6  21
TORSDOF 6
ENDMDL
MODEL 3
REMARK VINA RESULT:      -8.4      2.073      6.995
REMARK  Name = 
REMARK  9 active torsions:
REMARK  status: ('A' for Active; 'I' for Inactive)
REMARK    1  A    between atoms: C_1  and  C_2
REMARK    2  A    between atoms: C_2  and  C_3
REMARK    3  A    between atoms: C_2  and  C_4
REMARK    4  A    between atoms: C_2  and  C_5
REMARK    5  A    between atoms: C_8  and  C_9
REMARK    6  A    between atoms: N_11  and  C_12
REMARK    7  A    between atoms: C_17  and  C_18
REMARK    8  A    between atoms: N_20  and  C_21
REMARK    9  A    between atoms: C_25  and  C_26
REMARK                            x       y       z     vdW  Elec       q    Type
REMARK                         _______ _______ _______ _____ _____    ______ ____
ROOT
ATOM      1  C   UNL     1       5.334   6.010  16.727  0.00  0.00    +0.000 A 
ATOM      2  C   UNL     1       4.769   4.968  15.971  0.00  0.00    +0.000 A 
ATOM      3  C   UNL     1       5.563   3.933  15.470  0.00  0.00    +0.000 A 
ATOM      4  C   UNL     1       6.935   3.947  15.681  0.00  0.00    +0.000 A 
ATOM      5  C   UNL     1       7.508   4.986  16.413  0.00  0.00    +0.000 A 
ATOM      6  C   UNL     1       6.718   6.016  16.960  0.00  0.00    +0.000 A 
ENDROOT
BRANCH   1   9
ATOM      7  C   UNL     1       3.346   6.638  18.030  0.00  0.00    +0.000 C 
ATOM      8  O   UNL     1       2.968   5.487  18.232  0.00  0.00    +0.000 OA
ATOM      9  N   UNL     1       4.485   6.973  17.313  0.00  0.00    +0.000 N 
ATOM     10  H   UNL     1       4.672   7.939  17.076  0.00  0.00    +0.000 HD
BRANCH   7  14
ATOM     11  C   UNL     1       0.798   9.885  19.309  0.00  0.00    +0.000 A 
ATOM     12  C   UNL     1       1.433   9.885  18.057  0.00  0.00    +0.000 A 
ATOM     13  C   UNL     1       2.270   8.833  17.666  0.00  0.00    +0.000 A 
ATOM     14  C   UNL     1       2.521   7.769  18.535  0.00  0.00    +0.000 A 
ATOM     15  C   UNL     1       2.004   7.819  19.829  0.00  0.00    +0.000 A 
ATOM     16  C   UNL     1       1.159   8.869  20.210  0.00  0.00    +0.000 A 
BRANCH  11  18
ATOM     17  C   UNL     1      -1.574  10.639  18.823  0.00  0.00    +0.000 C 
ATOM     18  C   UNL     1      -0.293  10.918  19.647  0.00  0.00    +0.000 C 
ATOM     19  C   UNL     1       0.190  12.346  19.343  0.00  0.00    +0.000 C 
ATOM     20  C   UNL     1      -0.715  10.854  21.134  0.00  0.00    +0.000 C 
ENDBRANCH  11  18
ENDBRANCH   7  14
ENDBRANCH   1   9
BRANCH   6  21
ATOM     21  C   UNL     1       7.453   7.033  17.766  0.00  0.00    +0.000 C 
ATOM     22  O   UNL     1       7.912   6.649  18.841  0.00  0.00    +0.000 OA
ATOM     23  N   UNL     1       7.609   8.313  17.244  0.00  0.00    +0.000 N 
ATOM     24  H   UNL     1       7.408   8.439  16.256  0.00  0.00    +0.000 HD
BRANCH  23  25
ATOM     25  C   UNL     1       8.219   9.398  17.933  0.00  0.00    +0.000 A 
ATOM     26  C   UNL     1       9.010   9.215  19.075  0.00  0.00    +0.000 A 
ATOM     27  C   UNL     1       9.620  10.292  19.723  0.00  0.00    +0.000 A 
ATOM     28  C   UNL     1       9.443  11.583  19.242  0.00  0.00    +0.000 A 
ATOM     29  C   UNL     1       8.650  11.794  18.109  0.00  0.00    +0.000 A 
ATOM     30  C   UNL     1       8.019  10.705  17.471  0.00  0.00    +0.000 A 
BRANCH  29  31
ATOM     31  C   UNL     1       8.436  13.164  17.580  0.00  0.00    +0.000 C 
ATOM     32  N   UNL     1       9.539  13.943  17.366  0.00  0.00    +0.000 N 
ATOM     33  O   UNL     1       7.309  13.579  17.320  0.00  0.00    +0.000 OA
ATOM     34  H   UNL     1      10.476  13.563  17.323  0.00  0.00    +0.000 HD
ATOM     35  H   UNL     1       9.383  14.841  16.928  0.00  0.00    +0.000 HD
ENDBRANCH  29  31
ENDBRANCH  23  25
ENDBRANCH   6  21
TORSDOF 6
ENDMDL
MODEL 4
REMARK VINA RESULT:      -8.4      2.088      7.017
REMARK  Name = 
REMARK  9 active torsions:
REMARK  status: ('A' for Active; 'I' for Inactive)
REMARK    1  A    between atoms: C_1  and  C_2
REMARK    2  A    between atoms: C_2  and  C_3
REMARK    3  A    between atoms: C_2  and  C_4
REMARK    4  A    between atoms: C_2  and  C_5
REMARK    5  A    between atoms: C_8  and  C_9
REMARK    6  A    between atoms: N_11  and  C_12
REMARK    7  A    between atoms: C_17  and  C_18
REMARK    8  A    between atoms: N_20  and  C_21
REMARK    9  A    between atoms: C_25  and  C_26
REMARK                            x       y       z     vdW  Elec       q    Type
REMARK                         _______ _______ _______ _____ _____    ______ ____
ROOT
ATOM      1  C   UNL     1       5.364   6.111  16.737  0.00  0.00    +0.000 A 
ATOM      2  C   UNL     1       4.785   5.106  15.943  0.00  0.00    +0.000 A 
ATOM      3  C   UNL     1       5.572   4.107  15.362  0.00  0.00    +0.000 A 
ATOM      4  C   UNL     1       6.950   4.124  15.534  0.00  0.00    +0.000 A 
ATOM      5  C   UNL     1       7.535   5.127  16.303  0.00  0.00    +0.000 A 
ATOM      6  C   UNL     1       6.754   6.118  16.929  0.00  0.00    +0.000 A 
ENDROOT
BRANCH   1   9
ATOM      7  C   UNL     1       3.295   6.683  17.934  0.00  0.00    +0.000 C 
ATOM      8  O   UNL     1       2.819   5.552  17.896  0.00  0.00    +0.000 OA
ATOM      9  N   UNL     1       4.525   7.033  17.399  0.00  0.00    +0.000 N 
ATOM     10  H   UNL     1       4.803   8.005  17.353  0.00  0.00    +0.000 HD
BRANCH   7  14
ATOM     11  C   UNL     1       0.825   9.846  19.538  0.00  0.00    +0.000 A 
ATOM     12  C   UNL     1       1.396   9.923  18.257  0.00  0.00    +0.000 A 
ATOM     13  C   UNL     1       2.209   8.897  17.761  0.00  0.00    +0.000 A 
ATOM     14  C   UNL     1       2.501   7.782  18.549  0.00  0.00    +0.000 A 
ATOM     15  C   UNL     1       2.050   7.753  19.869  0.00  0.00    +0.000 A 
ATOM     16  C   UNL     1       1.229   8.777  20.356  0.00  0.00    +0.000 A 
BRANCH  11  18
ATOM     17  C   UNL     1       0.286  12.304  19.851  0.00  0.00    +0.000 C 
ATOM     18  C   UNL     1      -0.244  10.856  19.993  0.00  0.00    +0.000 C 
ATOM     19  C   UNL     1      -0.638  10.614  21.460  0.00  0.00    +0.000 C 
ATOM     20  C   UNL     1      -1.524  10.779  19.128  0.00  0.00    +0.000 C 
ENDBRANCH  11  18
ENDBRANCH   7  14
ENDBRANCH   1   9
BRANCH   6  21
ATOM     21  C   UNL     1       7.505   7.097  17.767  0.00  0.00    +0.000 C 
ATOM     22  O   UNL     1       7.960   6.671  18.827  0.00  0.00    +0.000 OA
ATOM     23  N   UNL     1       7.678   8.392  17.287  0.00  0.00    +0.000 N 
ATOM     24  H   UNL     1       7.477   8.554  16.305  0.00  0.00    +0.000 HD
BRANCH  23  25
ATOM     25  C   UNL     1       8.304   9.444  18.012  0.00  0.00    +0.000 A 
ATOM     26  C   UNL     1       9.008   9.224  19.203  0.00  0.00    +0.000 A 
ATOM     27  C   UNL     1       9.637  10.268  19.886  0.00  0.00    +0.000 A 
ATOM     28  C   UNL     1       9.566  11.564  19.389  0.00  0.00    +0.000 A 
ATOM     29  C   UNL     1       8.862  11.813  18.207  0.00  0.00    +0.000 A 
ATOM     30  C   UNL     1       8.211  10.758  17.533  0.00  0.00    +0.000 A 
BRANCH  29  31
ATOM     31  C   UNL     1       8.762  13.190  17.661  0.00  0.00    +0.000 C 
ATOM     32  N   UNL     1       7.544  13.605  17.200  0.00  0.00    +0.000 N 
ATOM     33  O   UNL     1       9.734  13.941  17.645  0.00  0.00    +0.000 OA
ATOM     34  H   UNL     1       6.683  13.125  17.425  0.00  0.00    +0.000 HD
ATOM     35  H   UNL     1       7.474  14.571  16.910  0.00  0.00    +0.000 HD
ENDBRANCH  29  31
ENDBRANCH  23  25
ENDBRANCH   6  21
TORSDOF 6
ENDMDL
MODEL 5
REMARK VINA RESULT:      -8.3      0.790      1.078
REMARK  Name = 
REMARK  9 active torsions:
REMARK  status: ('A' for Active; 'I' for Inactive)
REMARK    1  A    between atoms: C_1  and  C_2
REMARK    2  A    between atoms: C_2  and  C_3
REMARK    3  A    between atoms: C_2  and  C_4
REMARK    4  A    between atoms: C_2  and  C_5
REMARK    5  A    between atoms: C_8  and  C_9
REMARK    6  A    between atoms: N_11  and  C_12
REMARK    7  A    between atoms: C_17  and  C_18
REMARK    8  A    between atoms: N_20  and  C_21
REMARK    9  A    between atoms: C_25  and  C_26
REMARK                            x       y       z     vdW  Elec       q    Type
REMARK                         _______ _______ _______ _____ _____    ______ ____
ROOT
ATOM      1  C   UNL     1       6.339   6.310  16.760  0.00  0.00    +0.000 A 
ATOM      2  C   UNL     1       7.126   5.300  16.179  0.00  0.00    +0.000 A 
ATOM      3  C   UNL     1       6.568   4.068  15.828  0.00  0.00    +0.000 A 
ATOM      4  C   UNL     1       5.229   3.814  16.091  0.00  0.00    +0.000 A 
ATOM      5  C   UNL     1       4.444   4.801  16.684  0.00  0.00    +0.000 A 
ATOM      6  C   UNL     1       4.980   6.063  17.007  0.00  0.00    +0.000 A 
ENDROOT
BRANCH   1   9
ATOM      7  C   UNL     1       7.828   7.818  18.006  0.00  0.00    +0.000 C 
ATOM      8  O   UNL     1       8.236   6.964  18.787  0.00  0.00    +0.000 OA
ATOM      9  N   UNL     1       6.911   7.579  16.993  0.00  0.00    +0.000 N 
ATOM     10  H   UNL     1       6.522   8.350  16.466  0.00  0.00    +0.000 HD
BRANCH   7  14
ATOM     11  C   UNL     1       9.411  11.818  18.417  0.00  0.00    +0.000 A 
ATOM     12  C   UNL     1       9.808  10.769  19.261  0.00  0.00    +0.000 A 
ATOM     13  C   UNL     1       9.271   9.484  19.125  0.00  0.00    +0.000 A 
ATOM     14  C   UNL     1       8.294   9.223  18.162  0.00  0.00    +0.000 A 
ATOM     15  C   UNL     1       7.795  10.283  17.406  0.00  0.00    +0.000 A 
ATOM     16  C   UNL     1       8.344  11.564  17.539  0.00  0.00    +0.000 A 
BRANCH  11  18
ATOM     17  C   UNL     1       9.166  14.335  18.224  0.00  0.00    +0.000 C 
ATOM     18  C   UNL     1      10.160  13.163  18.414  0.00  0.00    +0.000 C 
ATOM     19  C   UNL     1      11.203  13.209  17.285  0.00  0.00    +0.000 C 
ATOM     20  C   UNL     1      10.886  13.428  19.755  0.00  0.00    +0.000 C 
ENDBRANCH  11  18
ENDBRANCH   7  14
ENDBRANCH   1   9
BRANCH   6  21
ATOM     21  C   UNL     1       4.017   7.044  17.586  0.00  0.00    +0.000 C 
ATOM     22  O   UNL     1       4.002   8.162  17.073  0.00  0.00    +0.000 OA
ATOM     23  N   UNL     1       3.180   6.628  18.618  0.00  0.00    +0.000 N 
ATOM     24  H   UNL     1       3.111   5.628  18.785  0.00  0.00    +0.000 HD
BRANCH  23  25
ATOM     25  C   UNL     1       2.271   7.475  19.311  0.00  0.00    +0.000 A 
ATOM     26  C   UNL     1       1.848   7.213  20.621  0.00  0.00    +0.000 A 
ATOM     27  C   UNL     1       0.974   8.070  21.293  0.00  0.00    +0.000 A 
ATOM     28  C   UNL     1       0.497   9.212  20.660  0.00  0.00    +0.000 A 
ATOM     29  C   UNL     1       0.896   9.491  19.349  0.00  0.00    +0.000 A 
ATOM     30  C   UNL     1       1.763   8.611  18.667  0.00  0.00    +0.000 A 
BRANCH  29  31
ATOM     31  C   UNL     1       0.394  10.698  18.646  0.00  0.00    +0.000 C 
ATOM     32  N   UNL     1      -0.659  10.542  17.788  0.00  0.00    +0.000 N 
ATOM     33  O   UNL     1       0.889  11.805  18.845  0.00  0.00    +0.000 OA
ATOM     34  H   UNL     1      -1.248   9.720  17.790  0.00  0.00    +0.000 HD
ATOM     35  H   UNL     1      -1.043  11.386  17.382  0.00  0.00    +0.000 HD
ENDBRANCH  29  31
ENDBRANCH  23  25
ENDBRANCH   6  21
TORSDOF 6
ENDMDL
MODEL 6
REMARK VINA RESULT:      -8.2      4.452      7.722
REMARK  Name = 
REMARK  9 active torsions:
REMARK  status: ('A' for Active; 'I' for Inactive)
REMARK    1  A    between atoms: C_1  and  C_2
REMARK    2  A    between atoms: C_2  and  C_3
REMARK    3  A    between atoms: C_2  and  C_4
REMARK    4  A    between atoms: C_2  and  C_5
REMARK    5  A    between atoms: C_8  and  C_9
REMARK    6  A    between atoms: N_11  and  C_12
REMARK    7  A    between atoms: C_17  and  C_18
REMARK    8  A    between atoms: N_20  and  C_21
REMARK    9  A    between atoms: C_25  and  C_26
REMARK                            x       y       z     vdW  Elec       q    Type
REMARK                         _______ _______ _______ _____ _____    ______ ____
ROOT
ATOM      1  C   UNL     1       1.863   4.831  19.424  0.00  0.00    +0.000 A 
ATOM      2  C   UNL     1       1.102   4.213  20.431  0.00  0.00    +0.000 A 
ATOM      3  C   UNL     1       1.315   2.875  20.774  0.00  0.00    +0.000 A 
ATOM      4  C   UNL     1       2.261   2.126  20.087  0.00  0.00    +0.000 A 
ATOM      5  C   UNL     1       3.008   2.724  19.074  0.00  0.00    +0.000 A 
ATOM      6  C   UNL     1       2.834   4.082  18.742  0.00  0.00    +0.000 A 
ENDROOT
BRANCH   1   9
ATOM      7  C   UNL     1       1.717   7.159  20.199  0.00  0.00    +0.000 C 
ATOM      8  O   UNL     1       1.884   6.899  21.387  0.00  0.00    +0.000 OA
ATOM      9  N   UNL     1       1.698   6.212  19.186  0.00  0.00    +0.000 N 
ATOM     10  H   UNL     1       1.432   6.477  18.247  0.00  0.00    +0.000 HD
BRANCH   7  14
ATOM     11  C   UNL     1       1.138  11.327  19.215  0.00  0.00    +0.000 A 
ATOM     12  C   UNL     1       0.735  10.789  20.448  0.00  0.00    +0.000 A 
ATOM     13  C   UNL     1       0.914   9.432  20.743  0.00  0.00    +0.000 A 
ATOM     14  C   UNL     1       1.469   8.570  19.795  0.00  0.00    +0.000 A 
ATOM     15  C   UNL     1       1.752   9.061  18.521  0.00  0.00    +0.000 A 
ATOM     16  C   UNL     1       1.581  10.421  18.236  0.00  0.00    +0.000 A 
BRANCH  11  18
ATOM     17  C   UNL     1      -0.190  13.311  18.361  0.00  0.00    +0.000 C 
ATOM     18  C   UNL     1       1.152  12.848  18.978  0.00  0.00    +0.000 C 
ATOM     19  C   UNL     1       2.297  13.245  18.031  0.00  0.00    +0.000 C 
ATOM     20  C   UNL     1       1.317  13.641  20.297  0.00  0.00    +0.000 C 
ENDBRANCH  11  18
ENDBRANCH   7  14
ENDBRANCH   1   9
BRANCH   6  21
ATOM     21  C   UNL     1       3.736   4.605  17.676  0.00  0.00    +0.000 C 
ATOM     22  O   UNL     1       3.650   5.808  17.431  0.00  0.00    +0.000 OA
ATOM     23  N   UNL     1       4.632   3.730  17.070  0.00  0.00    +0.000 N 
ATOM     24  H   UNL     1       4.783   2.833  17.523  0.00  0.00    +0.000 HD
BRANCH  23  25
ATOM     25  C   UNL     1       5.494   4.074  15.992  0.00  0.00    +0.000 A 
ATOM     26  C   UNL     1       6.597   4.923  16.151  0.00  0.00    +0.000 A 
ATOM     27  C   UNL     1       7.446   5.229  15.084  0.00  0.00    +0.000 A 
ATOM     28  C   UNL     1       7.201   4.691  13.827  0.00  0.00    +0.000 A 
ATOM     29  C   UNL     1       6.102   3.848  13.639  0.00  0.00    +0.000 A 
ATOM     30  C   UNL     1       5.235   3.559  14.715  0.00  0.00    +0.000 A 
BRANCH  29  31
ATOM     31  C   UNL     1       5.812   3.268  12.303  0.00  0.00    +0.000 C 
ATOM     32  N   UNL     1       6.755   2.448  11.747  0.00  0.00    +0.000 N 
ATOM     33  O   UNL     1       4.752   3.497  11.725  0.00  0.00    +0.000 OA
ATOM     34  H   UNL     1       7.507   2.038  12.285  0.00  0.00    +0.000 HD
ATOM     35  H   UNL     1       6.507   1.996  10.877  0.00  0.00    +0.000 HD
ENDBRANCH  29  31
ENDBRANCH  23  25
ENDBRANCH   6  21
TORSDOF 6
ENDMDL
MODEL 7
REMARK VINA RESULT:      -8.1      0.718      1.137
REMARK  Name = 
REMARK  9 active torsions:
REMARK  status: ('A' for Active; 'I' for Inactive)
REMARK    1  A    between atoms: C_1  and  C_2
REMARK    2  A    between atoms: C_2  and  C_3
REMARK    3  A    between atoms: C_2  and  C_4
REMARK    4  A    between atoms: C_2  and  C_5
REMARK    5  A    between atoms: C_8  and  C_9
REMARK    6  A    between atoms: N_11  and  C_12
REMARK    7  A    between atoms: C_17  and  C_18
REMARK    8  A    between atoms: N_20  and  C_21
REMARK    9  A    between atoms: C_25  and  C_26
REMARK                            x       y       z     vdW  Elec       q    Type
REMARK                         _______ _______ _______ _____ _____    ______ ____
ROOT
ATOM      1  C   UNL     1       6.384   6.008  16.506  0.00  0.00    +0.000 A 
ATOM      2  C   UNL     1       6.990   5.232  15.502  0.00  0.00    +0.000 A 
ATOM      3  C   UNL     1       6.397   4.050  15.052  0.00  0.00    +0.000 A 
ATOM      4  C   UNL     1       5.214   3.606  15.627  0.00  0.00    +0.000 A 
ATOM      5  C   UNL     1       4.615   4.357  16.636  0.00  0.00    +0.000 A 
ATOM      6  C   UNL     1       5.178   5.572  17.074  0.00  0.00    +0.000 A 
ENDROOT
BRANCH   1   9
ATOM      7  C   UNL     1       7.796   7.419  17.940  0.00  0.00    +0.000 C 
ATOM      8  O   UNL     1       8.135   6.516  18.700  0.00  0.00    +0.000 OA
ATOM      9  N   UNL     1       6.954   7.252  16.852  0.00  0.00    +0.000 N 
ATOM     10  H   UNL     1       6.614   8.057  16.342  0.00  0.00    +0.000 HD
BRANCH   7  14
ATOM     11  C   UNL     1       8.930  11.514  18.732  0.00  0.00    +0.000 A 
ATOM     12  C   UNL     1       8.190  11.152  17.595  0.00  0.00    +0.000 A 
ATOM     13  C   UNL     1       7.847   9.818  17.345  0.00  0.00    +0.000 A 
ATOM     14  C   UNL     1       8.268   8.805  18.209  0.00  0.00    +0.000 A 
ATOM     15  C   UNL     1       9.114   9.132  19.269  0.00  0.00    +0.000 A 
ATOM     16  C   UNL     1       9.444  10.470  19.519  0.00  0.00    +0.000 A 
BRANCH  11  18
ATOM     17  C   UNL     1      10.522  13.487  18.727  0.00  0.00    +0.000 C 
ATOM     18  C   UNL     1       9.111  12.991  19.125  0.00  0.00    +0.000 C 
ATOM     19  C   UNL     1       8.928  13.181  20.640  0.00  0.00    +0.000 C 
ATOM     20  C   UNL     1       8.107  13.915  18.396  0.00  0.00    +0.000 C 
ENDBRANCH  11  18
ENDBRANCH   7  14
ENDBRANCH   1   9
BRANCH   6  21
ATOM     21  C   UNL     1       4.404   6.301  18.121  0.00  0.00    +0.000 C 
ATOM     22  O   UNL     1       4.794   6.167  19.280  0.00  0.00    +0.000 OA
ATOM     23  N   UNL     1       3.340   7.106  17.725  0.00  0.00    +0.000 N 
ATOM     24  H   UNL     1       3.271   7.331  16.737  0.00  0.00    +0.000 HD
BRANCH  23  25
ATOM     25  C   UNL     1       2.472   7.794  18.618  0.00  0.00    +0.000 A 
ATOM     26  C   UNL     1       2.171   7.311  19.898  0.00  0.00    +0.000 A 
ATOM     27  C   UNL     1       1.335   8.015  20.769  0.00  0.00    +0.000 A 
ATOM     28  C   UNL     1       0.777   9.223  20.369  0.00  0.00    +0.000 A 
ATOM     29  C   UNL     1       1.055   9.724  19.094  0.00  0.00    +0.000 A 
ATOM     30  C   UNL     1       1.882   8.998  18.210  0.00  0.00    +0.000 A 
BRANCH  29  31
ATOM     31  C   UNL     1       0.462  11.007  18.639  0.00  0.00    +0.000 C 
ATOM     32  N   UNL     1       1.318  12.021  18.310  0.00  0.00    +0.000 N 
ATOM     33  O   UNL     1      -0.754  11.147  18.537  0.00  0.00    +0.000 OA
ATOM     34  H   UNL     1       2.303  11.870  18.136  0.00  0.00    +0.000 HD
ATOM     35  H   UNL     1       0.902  12.858  17.923  0.00  0.00    +0.000 HD
ENDBRANCH  29  31
ENDBRANCH  23  25
ENDBRANCH   6  21
TORSDOF 6
ENDMDL
MODEL 8
REMARK VINA RESULT:      -8.1      5.365      9.198
REMARK  Name = 
REMARK  9 active torsions:
REMARK  status: ('A' for Active; 'I' for Inactive)
REMARK    1  A    between atoms: C_1  and  C_2
REMARK    2  A    between atoms: C_2  and  C_3
REMARK    3  A    between atoms: C_2  and  C_4
REMARK    4  A    between atoms: C_2  and  C_5
REMARK    5  A    between atoms: C_8  and  C_9
REMARK    6  A    between atoms: N_11  and  C_12
REMARK    7  A    between atoms: C_17  and  C_18
REMARK    8  A    between atoms: N_20  and  C_21
REMARK    9  A    between atoms: C_25  and  C_26
REMARK                            x       y       z     vdW  Elec       q    Type
REMARK                         _______ _______ _______ _____ _____    ______ ____
ROOT
ATOM      1  C   UNL     1       1.080  12.527  18.578  0.00  0.00    +0.000 A 
ATOM      2  C   UNL     1       2.174  13.402  18.696  0.00  0.00    +0.000 A 
ATOM      3  C   UNL     1       1.982  14.781  18.814  0.00  0.00    +0.000 A 
ATOM      4  C   UNL     1       0.698  15.307  18.775  0.00  0.00    +0.000 A 
ATOM      5  C   UNL     1      -0.393  14.451  18.639  0.00  0.00    +0.000 A 
ATOM      6  C   UNL     1      -0.220  13.055  18.558  0.00  0.00    +0.000 A 
ENDROOT
BRANCH   1   9
ATOM      7  C   UNL     1       1.286  10.366  19.730  0.00  0.00    +0.000 C 
ATOM      8  O   UNL     1       1.060  10.808  20.853  0.00  0.00    +0.000 OA
ATOM      9  N   UNL     1       1.309  11.135  18.577  0.00  0.00    +0.000 N 
ATOM     10  H   UNL     1       1.624  10.733  17.703  0.00  0.00    +0.000 HD
BRANCH   7  14
ATOM     11  C   UNL     1       1.987   6.119  19.347  0.00  0.00    +0.000 A 
ATOM     12  C   UNL     1       1.648   6.711  20.575  0.00  0.00    +0.000 A 
ATOM     13  C   UNL     1       1.443   8.091  20.684  0.00  0.00    +0.000 A 
ATOM     14  C   UNL     1       1.606   8.921  19.573  0.00  0.00    +0.000 A 
ATOM     15  C   UNL     1       2.070   8.366  18.380  0.00  0.00    +0.000 A 
ATOM     16  C   UNL     1       2.263   6.983  18.275  0.00  0.00    +0.000 A 
BRANCH  11  18
ATOM     17  C   UNL     1       1.610   4.207  17.725  0.00  0.00    +0.000 C 
ATOM     18  C   UNL     1       1.989   4.589  19.176  0.00  0.00    +0.000 C 
ATOM     19  C   UNL     1       0.989   3.928  20.140  0.00  0.00    +0.000 C 
ATOM     20  C   UNL     1       3.386   3.976  19.433  0.00  0.00    +0.000 C 
ENDBRANCH  11  18
ENDBRANCH   7  14
ENDBRANCH   1   9
BRANCH   6  21
ATOM     21  C   UNL     1      -1.476  12.254  18.471  0.00  0.00    +0.000 C 
ATOM     22  O   UNL     1      -1.384  11.155  17.927  0.00  0.00    +0.000 OA
ATOM     23  N   UNL     1      -2.637  12.770  19.038  0.00  0.00    +0.000 N 
ATOM     24  H   UNL     1      -2.535  13.560  19.668  0.00  0.00    +0.000 HD
BRANCH  23  25
ATOM     25  C   UNL     1      -3.916  12.151  18.962  0.00  0.00    +0.000 A 
ATOM     26  C   UNL     1      -4.331  11.415  17.845  0.00  0.00    +0.000 A 
ATOM     27  C   UNL     1      -5.582  10.795  17.801  0.00  0.00    +0.000 A 
ATOM     28  C   UNL     1      -6.451  10.906  18.880  0.00  0.00    +0.000 A 
ATOM     29  C   UNL     1      -6.064  11.643  20.004  0.00  0.00    +0.000 A 
ATOM     30  C   UNL     1      -4.808  12.285  20.034  0.00  0.00    +0.000 A 
BRANCH  29  31
ATOM     31  C   UNL     1      -6.978  11.786  21.165  0.00  0.00    +0.000 C 
ATOM     32  N   UNL     1      -7.727  10.700  21.523  0.00  0.00    +0.000 N 
ATOM     33  O   UNL     1      -7.042  12.836  21.801  0.00  0.00    +0.000 OA
ATOM     34  H   UNL     1      -7.522   9.764  21.198  0.00  0.00    +0.000 HD
ATOM     35  H   UNL     1      -8.281  10.788  22.365  0.00  0.00    +0.000 HD
ENDBRANCH  29  31
ENDBRANCH  23  25
ENDBRANCH   6  21
TORSDOF 6
ENDMDL
MODEL 9
REMARK VINA RESULT:      -7.9      5.247      9.109
REMARK  Name = 
REMARK  9 active torsions:
REMARK  status: ('A' for Active; 'I' for Inactive)
REMARK    1  A    between atoms: C_1  and  C_2
REMARK    2  A    between atoms: C_2  and  C_3
REMARK    3  A    between atoms: C_2  and  C_4
REMARK    4  A    between atoms: C_2  and  C_5
REMARK    5  A    between atoms: C_8  and  C_9
REMARK    6  A    between atoms: N_11  and  C_12
REMARK    7  A    between atoms: C_17  and  C_18
REMARK    8  A    between atoms: N_20  and  C_21
REMARK    9  A    between atoms: C_25  and  C_26
REMARK                            x       y       z     vdW  Elec       q    Type
REMARK                         _______ _______ _______ _____ _____    ______ ____
ROOT
ATOM      1  C   UNL     1       1.067  12.121  19.230  0.00  0.00    +0.000 A 
ATOM      2  C   UNL     1       2.206  12.944  19.232  0.00  0.00    +0.000 A 
ATOM      3  C   UNL     1       2.091  14.331  19.112  0.00  0.00    +0.000 A 
ATOM      4  C   UNL     1       0.839  14.910  18.948  0.00  0.00    +0.000 A 
ATOM      5  C   UNL     1      -0.295  14.102  18.927  0.00  0.00    +0.000 A 
ATOM      6  C   UNL     1      -0.200  12.705  19.086  0.00  0.00    +0.000 A 
ENDROOT
BRANCH   1   9
ATOM      7  C   UNL     1       1.822   9.878  18.566  0.00  0.00    +0.000 C 
ATOM      8  O   UNL     1       2.291  10.226  17.485  0.00  0.00    +0.000 OA
ATOM      9  N   UNL     1       1.216  10.738  19.469  0.00  0.00    +0.000 N 
ATOM     10  H   UNL     1       0.740  10.369  20.282  0.00  0.00    +0.000 HD
BRANCH   7  14
ATOM     11  C   UNL     1       2.137   5.685  19.564  0.00  0.00    +0.000 A 
ATOM     12  C   UNL     1       2.310   6.154  18.251  0.00  0.00    +0.000 A 
ATOM     13  C   UNL     1       2.187   7.514  17.943  0.00  0.00    +0.000 A 
ATOM     14  C   UNL     1       1.850   8.436  18.936  0.00  0.00    +0.000 A 
ATOM     15  C   UNL     1       1.546   7.970  20.214  0.00  0.00    +0.000 A 
ATOM     16  C   UNL     1       1.682   6.609  20.519  0.00  0.00    +0.000 A 
BRANCH  11  18
ATOM     17  C   UNL     1       3.985   3.950  19.639  0.00  0.00    +0.000 C 
ATOM     18  C   UNL     1       2.494   4.236  19.943  0.00  0.00    +0.000 C 
ATOM     19  C   UNL     1       1.627   3.235  19.163  0.00  0.00    +0.000 C 
ATOM     20  C   UNL     1       2.304   3.967  21.455  0.00  0.00    +0.000 C 
ENDBRANCH  11  18
ENDBRANCH   7  14
ENDBRANCH   1   9
BRANCH   6  21
ATOM     21  C   UNL     1      -1.497  11.968  19.098  0.00  0.00    +0.000 C 
ATOM     22  O   UNL     1      -1.427  10.741  19.128  0.00  0.00    +0.000 OA
ATOM     23  N   UNL     1      -2.681  12.701  19.120  0.00  0.00    +0.000 N 
ATOM     24  H   UNL     1      -2.611  13.689  19.342  0.00  0.00    +0.000 HD
BRANCH  23  25
ATOM     25  C   UNL     1      -3.983  12.132  19.056  0.00  0.00    +0.000 A 
ATOM     26  C   UNL     1      -4.407  11.338  17.982  0.00  0.00    +0.000 A 
ATOM     27  C   UNL     1      -5.683  10.769  17.951  0.00  0.00    +0.000 A 
ATOM     28  C   UNL     1      -6.567  10.990  18.999  0.00  0.00    +0.000 A 
ATOM     29  C   UNL     1      -6.172  11.786  20.079  0.00  0.00    +0.000 A 
ATOM     30  C   UNL     1      -4.891  12.376  20.096  0.00  0.00    +0.000 A 
BRANCH  29  31
ATOM     31  C   UNL     1      -7.102  12.046  21.207  0.00  0.00    +0.000 C 
ATOM     32  N   UNL     1      -7.563  10.969  21.913  0.00  0.00    +0.000 N 
ATOM     33  O   UNL     1      -7.428  13.190  21.513  0.00  0.00    +0.000 OA
ATOM     34  H   UNL     1      -7.130  10.057  21.861  0.00  0.00    +0.000 HD
ATOM     35  H   UNL     1      -8.127  11.169  22.728  0.00  0.00    +0.000 HD
ENDBRANCH  29  31
ENDBRANCH  23  25
ENDBRANCH   6  21
TORSDOF 6
ENDMDL
