MODEL 1
REMARK VINA RESULT:      -7.8      0.000      0.000
REMARK  Name = 
REMARK  5 active torsions:
REMARK  status: ('A' for Active; 'I' for Inactive)
REMARK    1  A    between atoms: O_1  and  C_2
REMARK    2  A    between atoms: C_2  and  C_3
REMARK    3  A    between atoms: C_3  and  N_4
REMARK    4  A    between atoms: C_7  and  C_8
REMARK    5  A    between atoms: C_12  and  C_13
REMARK                            x       y       z     vdW  Elec       q    Type
REMARK                         _______ _______ _______ _____ _____    ______ ____
ROOT
ATOM      1  C   UNL     1       4.543   5.463  17.746  0.00  0.00    +0.000 A 
ATOM      2  C   UNL     1       5.458   5.119  18.738  0.00  0.00    +0.000 A 
ATOM      3  N   UNL     1       6.694   4.642  18.474  0.00  0.00    +0.000 NA
ATOM      4  C   UNL     1       6.986   4.505  17.158  0.00  0.00    +0.000 A 
ATOM      5  C   UNL     1       6.099   4.830  16.134  0.00  0.00    +0.000 A 
ATOM      6  N   UNL     1       4.862   5.304  16.432  0.00  0.00    +0.000 NA
ENDROOT
BRANCH   5   7
ATOM      7  C   UNL     1       6.418   4.649  14.705  0.00  0.00    +0.000 A 
ATOM      8  C   UNL     1       7.514   5.293  14.100  0.00  0.00    +0.000 A 
ATOM      9  C   UNL     1       7.852   5.068  12.763  0.00  0.00    +0.000 A 
ATOM     10  C   UNL     1       7.090   4.193  11.993  0.00  0.00    +0.000 A 
ATOM     11  C   UNL     1       5.984   3.568  12.559  0.00  0.00    +0.000 A 
ATOM     12 CL   UNL     1       5.035   2.488  11.606  0.00  0.00    +0.000 Cl
ATOM     13  C   UNL     1       5.644   3.793  13.896  0.00  0.00    +0.000 A 
ENDBRANCH   5   7
BRANCH   1  17
ATOM     14  N   UNL     1       1.700   3.834  19.600  0.00  0.00    +0.000 NA
ATOM     15  C   UNL     1       2.740   4.648  20.253  0.00  0.00    +0.000 C 
ATOM     16  C   UNL     1       2.904   6.033  19.626  0.00  0.00    +0.000 C 
ATOM     17  C   UNL     1       3.154   5.960  18.114  0.00  0.00    +0.000 C 
ATOM     18  C   UNL     1       2.016   5.136  17.492  0.00  0.00    +0.000 C 
ATOM     19  C   UNL     1       1.876   3.758  18.143  0.00  0.00    +0.000 C 
BRANCH  14  20
ATOM     20  C   UNL     1       1.688   2.463  20.163  0.00  0.00    +0.000 C 
BRANCH  20  21
ATOM     21  C   UNL     1       2.271   2.372  21.579  0.00  0.00    +0.000 C 
BRANCH  21  22
ATOM     22  O   UNL     1       1.224   2.372  22.545  0.00  0.00    +0.000 OA
ATOM     23  H   UNL     1       0.401   2.541  22.055  0.00  0.00    +0.000 HD
ENDBRANCH  21  22
ENDBRANCH  20  21
ENDBRANCH  14  20
ENDBRANCH   1  17
TORSDOF 5
ENDMDL
MODEL 2
REMARK VINA RESULT:      -7.7      1.257      1.368
REMARK  Name = 
REMARK  5 active torsions:
REMARK  status: ('A' for Active; 'I' for Inactive)
REMARK    1  A    between atoms: O_1  and  C_2
REMARK    2  A    between atoms: C_2  and  C_3
REMARK    3  A    between atoms: C_3  and  N_4
REMARK    4  A    between atoms: C_7  and  C_8
REMARK    5  A    between atoms: C_12  and  C_13
REMARK                            x       y       z     vdW  Elec       q    Type
REMARK                         _______ _______ _______ _____ _____    ______ ____
ROOT
ATOM      1  C   UNL     1       5.128   5.578  17.910  0.00  0.00    +0.000 A 
ATOM      2  C   UNL     1       6.123   5.219  18.816  0.00  0.00    +0.000 A 
ATOM      3  N   UNL     1       7.324   4.729  18.443  0.00  0.00    +0.000 NA
ATOM      4  C   UNL     1       7.498   4.593  17.107  0.00  0.00    +0.000 A 
ATOM      5  C   UNL     1       6.528   4.932  16.165  0.00  0.00    +0.000 A 
ATOM      6  N   UNL     1       5.328   5.419  16.572  0.00  0.00    +0.000 NA
ENDROOT
BRANCH   5   7
ATOM      7  C   UNL     1       6.717   4.752  14.713  0.00  0.00    +0.000 A 
ATOM      8  C   UNL     1       7.695   5.466  13.996  0.00  0.00    +0.000 A 
ATOM      9  C   UNL     1       7.916   5.246  12.635  0.00  0.00    +0.000 A 
ATOM     10  C   UNL     1       7.151   4.303  11.952  0.00  0.00    +0.000 A 
ATOM     11  C   UNL     1       6.158   3.606  12.631  0.00  0.00    +0.000 A 
ATOM     12 CL   UNL     1       5.205   2.441  11.787  0.00  0.00    +0.000 Cl
ATOM     13  C   UNL     1       5.935   3.826  13.993  0.00  0.00    +0.000 A 
ENDBRANCH   5   7
BRANCH   1  17
ATOM     14  N   UNL     1       2.076   3.791  19.201  0.00  0.00    +0.000 NA
ATOM     15  C   UNL     1       3.168   4.270  20.066  0.00  0.00    +0.000 C 
ATOM     16  C   UNL     1       3.490   5.751  19.867  0.00  0.00    +0.000 C 
ATOM     17  C   UNL     1       3.783   6.091  18.401  0.00  0.00    +0.000 C 
ATOM     18  C   UNL     1       2.591   5.604  17.562  0.00  0.00    +0.000 C 
ATOM     19  C   UNL     1       2.294   4.119  17.784  0.00  0.00    +0.000 C 
BRANCH  14  20
ATOM     20  C   UNL     1       1.910   2.325  19.343  0.00  0.00    +0.000 C 
BRANCH  20  21
ATOM     21  C   UNL     1       2.645   1.513  18.270  0.00  0.00    +0.000 C 
BRANCH  21  22
ATOM     22  O   UNL     1       3.960   1.187  18.712  0.00  0.00    +0.000 OA
ATOM     23  H   UNL     1       4.569   1.570  18.059  0.00  0.00    +0.000 HD
ENDBRANCH  21  22
ENDBRANCH  20  21
ENDBRANCH  14  20
ENDBRANCH   1  17
TORSDOF 5
ENDMDL
MODEL 3
REMARK VINA RESULT:      -7.6      2.227      3.105
REMARK  Name = 
REMARK  5 active torsions:
REMARK  status: ('A' for Active; 'I' for Inactive)
REMARK    1  A    between atoms: O_1  and  C_2
REMARK    2  A    between atoms: C_2  and  C_3
REMARK    3  A    between atoms: C_3  and  N_4
REMARK    4  A    between atoms: C_7  and  C_8
REMARK    5  A    between atoms: C_12  and  C_13
REMARK                            x       y       z     vdW  Elec       q    Type
REMARK                         _______ _______ _______ _____ _____    ______ ____
ROOT
ATOM      1  C   UNL     1       4.954   4.160  17.960  0.00  0.00    +0.000 A 
ATOM      2  C   UNL     1       6.017   4.377  18.832  0.00  0.00    +0.000 A 
ATOM      3  N   UNL     1       7.277   4.631  18.417  0.00  0.00    +0.000 NA
ATOM      4  C   UNL     1       7.445   4.648  17.073  0.00  0.00    +0.000 A 
ATOM      5  C   UNL     1       6.412   4.429  16.165  0.00  0.00    +0.000 A 
ATOM      6  N   UNL     1       5.157   4.173  16.613  0.00  0.00    +0.000 NA
ENDROOT
BRANCH   5   7
ATOM      7  C   UNL     1       6.613   4.421  14.703  0.00  0.00    +0.000 A 
ATOM      8  C   UNL     1       7.575   5.238  14.079  0.00  0.00    +0.000 A 
ATOM      9  C   UNL     1       7.808   5.180  12.704  0.00  0.00    +0.000 A 
ATOM     10  C   UNL     1       7.073   4.301  11.912  0.00  0.00    +0.000 A 
ATOM     11  C   UNL     1       6.096   3.504  12.500  0.00  0.00    +0.000 A 
ATOM     12 CL   UNL     1       5.181   2.418  11.521  0.00  0.00    +0.000 Cl
ATOM     13  C   UNL     1       5.861   3.562  13.876  0.00  0.00    +0.000 A 
ENDBRANCH   5   7
BRANCH   1  17
ATOM     14  N   UNL     1       2.117   6.378  19.059  0.00  0.00    +0.000 NA
ATOM     15  C   UNL     1       2.276   5.878  17.682  0.00  0.00    +0.000 C 
ATOM     16  C   UNL     1       2.428   4.359  17.606  0.00  0.00    +0.000 C 
ATOM     17  C   UNL     1       3.566   3.843  18.495  0.00  0.00    +0.000 C 
ATOM     18  C   UNL     1       3.317   4.364  19.919  0.00  0.00    +0.000 C 
ATOM     19  C   UNL     1       3.168   5.886  19.962  0.00  0.00    +0.000 C 
BRANCH  14  20
ATOM     20  C   UNL     1       2.114   7.860  19.073  0.00  0.00    +0.000 C 
BRANCH  20  21
ATOM     21  C   UNL     1       2.626   8.491  17.773  0.00  0.00    +0.000 C 
BRANCH  21  22
ATOM     22  O   UNL     1       1.874   9.661  17.462  0.00  0.00    +0.000 OA
ATOM     23  H   UNL     1       2.388  10.413  17.802  0.00  0.00    +0.000 HD
ENDBRANCH  21  22
ENDBRANCH  20  21
ENDBRANCH  14  20
ENDBRANCH   1  17
TORSDOF 5
ENDMDL
MODEL 4
REMARK VINA RESULT:      -7.6      1.713      2.555
REMARK  Name = 
REMARK  5 active torsions:
REMARK  status: ('A' for Active; 'I' for Inactive)
REMARK    1  A    between atoms: O_1  and  C_2
REMARK    2  A    between atoms: C_2  and  C_3
REMARK    3  A    between atoms: C_3  and  N_4
REMARK    4  A    between atoms: C_7  and  C_8
REMARK    5  A    between atoms: C_12  and  C_13
REMARK                            x       y       z     vdW  Elec       q    Type
REMARK                         _______ _______ _______ _____ _____    ______ ____
ROOT
ATOM      1  C   UNL     1       4.830   4.042  17.859  0.00  0.00    +0.000 A 
ATOM      2  C   UNL     1       5.865   4.303  18.753  0.00  0.00    +0.000 A 
ATOM      3  N   UNL     1       7.122   4.607  18.363  0.00  0.00    +0.000 NA
ATOM      4  C   UNL     1       7.318   4.628  17.023  0.00  0.00    +0.000 A 
ATOM      5  C   UNL     1       6.313   4.365  16.094  0.00  0.00    +0.000 A 
ATOM      6  N   UNL     1       5.060   4.060  16.516  0.00  0.00    +0.000 NA
ENDROOT
BRANCH   5   7
ATOM      7  C   UNL     1       6.545   4.362  14.636  0.00  0.00    +0.000 A 
ATOM      8  C   UNL     1       7.503   5.200  14.034  0.00  0.00    +0.000 A 
ATOM      9  C   UNL     1       7.766   5.148  12.663  0.00  0.00    +0.000 A 
ATOM     10  C   UNL     1       7.066   4.254  11.856  0.00  0.00    +0.000 A 
ATOM     11  C   UNL     1       6.094   3.437  12.422  0.00  0.00    +0.000 A 
ATOM     12 CL   UNL     1       5.222   2.333  11.425  0.00  0.00    +0.000 Cl
ATOM     13  C   UNL     1       5.828   3.489  13.793  0.00  0.00    +0.000 A 
ENDBRANCH   5   7
BRANCH   1  17
ATOM     14  N   UNL     1       2.105   6.091  19.456  0.00  0.00    +0.000 NA
ATOM     15  C   UNL     1       2.211   5.864  18.004  0.00  0.00    +0.000 C 
ATOM     16  C   UNL     1       2.305   4.385  17.629  0.00  0.00    +0.000 C 
ATOM     17  C   UNL     1       3.445   3.670  18.366  0.00  0.00    +0.000 C 
ATOM     18  C   UNL     1       3.251   3.911  19.871  0.00  0.00    +0.000 C 
ATOM     19  C   UNL     1       3.159   5.400  20.212  0.00  0.00    +0.000 C 
BRANCH  14  20
ATOM     20  C   UNL     1       2.157   7.541  19.757  0.00  0.00    +0.000 C 
BRANCH  20  21
ATOM     21  C   UNL     1       1.188   7.977  20.862  0.00  0.00    +0.000 C 
BRANCH  21  22
ATOM     22  O   UNL     1       1.911   8.385  22.021  0.00  0.00    +0.000 OA
ATOM     23  H   UNL     1       1.944   7.609  22.606  0.00  0.00    +0.000 HD
ENDBRANCH  21  22
ENDBRANCH  20  21
ENDBRANCH  14  20
ENDBRANCH   1  17
TORSDOF 5
ENDMDL
MODEL 5
REMARK VINA RESULT:      -7.4      1.443      1.770
REMARK  Name = 
REMARK  5 active torsions:
REMARK  status: ('A' for Active; 'I' for Inactive)
REMARK    1  A    between atoms: O_1  and  C_2
REMARK    2  A    between atoms: C_2  and  C_3
REMARK    3  A    between atoms: C_3  and  N_4
REMARK    4  A    between atoms: C_7  and  C_8
REMARK    5  A    between atoms: C_12  and  C_13
REMARK                            x       y       z     vdW  Elec       q    Type
REMARK                         _______ _______ _______ _____ _____    ______ ____
ROOT
ATOM      1  C   UNL     1       4.040   5.513  18.044  0.00  0.00    +0.000 A 
ATOM      2  C   UNL     1       4.871   5.220  19.122  0.00  0.00    +0.000 A 
ATOM      3  N   UNL     1       6.128   4.745  18.982  0.00  0.00    +0.000 NA
ATOM      4  C   UNL     1       6.529   4.555  17.703  0.00  0.00    +0.000 A 
ATOM      5  C   UNL     1       5.729   4.827  16.595  0.00  0.00    +0.000 A 
ATOM      6  N   UNL     1       4.469   5.301  16.769  0.00  0.00    +0.000 NA
ENDROOT
BRANCH   5   7
ATOM      7  C   UNL     1       6.167   4.588  15.207  0.00  0.00    +0.000 A 
ATOM      8  C   UNL     1       5.494   3.687  14.359  0.00  0.00    +0.000 A 
ATOM      9  C   UNL     1       5.870   3.512  13.026  0.00  0.00    +0.000 A 
ATOM     10  C   UNL     1       6.942   4.235  12.507  0.00  0.00    +0.000 A 
ATOM     11  C   UNL     1       7.641   5.109  13.332  0.00  0.00    +0.000 A 
ATOM     12 CL   UNL     1       8.972   6.003  12.694  0.00  0.00    +0.000 Cl
ATOM     13  C   UNL     1       7.267   5.284  14.667  0.00  0.00    +0.000 A 
ENDBRANCH   5   7
BRANCH   1  17
ATOM     14  N   UNL     1       1.201   4.155  20.111  0.00  0.00    +0.000 NA
ATOM     15  C   UNL     1       2.188   5.125  20.617  0.00  0.00    +0.000 C 
ATOM     16  C   UNL     1       2.320   6.366  19.735  0.00  0.00    +0.000 C 
ATOM     17  C   UNL     1       2.622   6.012  18.274  0.00  0.00    +0.000 C 
ATOM     18  C   UNL     1       1.536   5.035  17.797  0.00  0.00    +0.000 C 
ATOM     19  C   UNL     1       1.427   3.805  18.701  0.00  0.00    +0.000 C 
BRANCH  14  20
ATOM     20  C   UNL     1       1.223   2.921  20.931  0.00  0.00    +0.000 C 
BRANCH  20  21
ATOM     21  C   UNL     1       2.524   2.725  21.718  0.00  0.00    +0.000 C 
BRANCH  21  22
ATOM     22  O   UNL     1       3.552   2.236  20.860  0.00  0.00    +0.000 OA
ATOM     23  H   UNL     1       4.357   2.185  21.402  0.00  0.00    +0.000 HD
ENDBRANCH  21  22
ENDBRANCH  20  21
ENDBRANCH  14  20
ENDBRANCH   1  17
TORSDOF 5
ENDMDL
MODEL 6
REMARK VINA RESULT:      -7.3      1.142      1.162
REMARK  Name = 
REMARK  5 active torsions:
REMARK  status: ('A' for Active; 'I' for Inactive)
REMARK    1  A    between atoms: O_1  and  C_2
REMARK    2  A    between atoms: C_2  and  C_3
REMARK    3  A    between atoms: C_3  and  N_4
REMARK    4  A    between atoms: C_7  and  C_8
REMARK    5  A    between atoms: C_12  and  C_13
REMARK                            x       y       z     vdW  Elec       q    Type
REMARK                         _______ _______ _______ _____ _____    ______ ____
ROOT
ATOM      1  C   UNL     1       4.587   5.504  17.483  0.00  0.00    +0.000 A 
ATOM      2  C   UNL     1       5.583   5.564  18.453  0.00  0.00    +0.000 A 
ATOM      3  N   UNL     1       6.897   5.412  18.178  0.00  0.00    +0.000 NA
ATOM      4  C   UNL     1       7.186   5.178  16.875  0.00  0.00    +0.000 A 
ATOM      5  C   UNL     1       6.220   5.101  15.874  0.00  0.00    +0.000 A 
ATOM      6  N   UNL     1       4.908   5.256  16.183  0.00  0.00    +0.000 NA
ENDROOT
BRANCH   5   7
ATOM      7  C   UNL     1       6.544   4.816  14.462  0.00  0.00    +0.000 A 
ATOM      8  C   UNL     1       7.575   5.495  13.784  0.00  0.00    +0.000 A 
ATOM      9  C   UNL     1       7.923   5.177  12.470  0.00  0.00    +0.000 A 
ATOM     10  C   UNL     1       7.236   4.170  11.795  0.00  0.00    +0.000 A 
ATOM     11  C   UNL     1       6.194   3.506  12.433  0.00  0.00    +0.000 A 
ATOM     12 CL   UNL     1       5.339   2.262  11.598  0.00  0.00    +0.000 Cl
ATOM     13  C   UNL     1       5.844   3.824  13.748  0.00  0.00    +0.000 A 
ENDBRANCH   5   7
BRANCH   1  17
ATOM     14  N   UNL     1       2.453   3.673  19.987  0.00  0.00    +0.000 NA
ATOM     15  C   UNL     1       3.202   4.902  20.297  0.00  0.00    +0.000 C 
ATOM     16  C   UNL     1       2.905   6.050  19.332  0.00  0.00    +0.000 C 
ATOM     17  C   UNL     1       3.122   5.649  17.868  0.00  0.00    +0.000 C 
ATOM     18  C   UNL     1       2.284   4.390  17.600  0.00  0.00    +0.000 C 
ATOM     19  C   UNL     1       2.603   3.261  18.583  0.00  0.00    +0.000 C 
BRANCH  14  20
ATOM     20  C   UNL     1       2.888   2.565  20.870  0.00  0.00    +0.000 C 
BRANCH  20  21
ATOM     21  C   UNL     1       4.111   1.802  20.347  0.00  0.00    +0.000 C 
BRANCH  21  22
ATOM     22  O   UNL     1       5.133   1.766  21.340  0.00  0.00    +0.000 OA
ATOM     23  H   UNL     1       4.899   1.042  21.945  0.00  0.00    +0.000 HD
ENDBRANCH  21  22
ENDBRANCH  20  21
ENDBRANCH  14  20
ENDBRANCH   1  17
TORSDOF 5
ENDMDL
MODEL 7
REMARK VINA RESULT:      -7.3      4.497      7.570
REMARK  Name = 
REMARK  5 active torsions:
REMARK  status: ('A' for Active; 'I' for Inactive)
REMARK    1  A    between atoms: O_1  and  C_2
REMARK    2  A    between atoms: C_2  and  C_3
REMARK    3  A    between atoms: C_3  and  N_4
REMARK    4  A    between atoms: C_7  and  C_8
REMARK    5  A    between atoms: C_12  and  C_13
REMARK                            x       y       z     vdW  Elec       q    Type
REMARK                         _______ _______ _______ _____ _____    ______ ____
ROOT
ATOM      1  C   UNL     1       4.001   4.934  17.822  0.00  0.00    +0.000 A 
ATOM      2  C   UNL     1       3.747   3.815  18.610  0.00  0.00    +0.000 A 
ATOM      3  N   UNL     1       2.926   3.834  19.682  0.00  0.00    +0.000 NA
ATOM      4  C   UNL     1       2.367   5.037  19.955  0.00  0.00    +0.000 A 
ATOM      5  C   UNL     1       2.600   6.184  19.199  0.00  0.00    +0.000 A 
ATOM      6  N   UNL     1       3.433   6.134  18.128  0.00  0.00    +0.000 NA
ENDROOT
BRANCH   5   7
ATOM      7  C   UNL     1       2.009   7.497  19.523  0.00  0.00    +0.000 A 
ATOM      8  C   UNL     1       1.873   8.511  18.555  0.00  0.00    +0.000 A 
ATOM      9  C   UNL     1       1.254   9.728  18.848  0.00  0.00    +0.000 A 
ATOM     10  C   UNL     1       0.759   9.963  20.129  0.00  0.00    +0.000 A 
ATOM     11  C   UNL     1       0.908   8.989  21.110  0.00  0.00    +0.000 A 
ATOM     12 CL   UNL     1       0.300   9.280  22.698  0.00  0.00    +0.000 Cl
ATOM     13  C   UNL     1       1.528   7.772  20.819  0.00  0.00    +0.000 A 
ENDBRANCH   5   7
BRANCH   1  17
ATOM     14  N   UNL     1       7.406   6.438  17.255  0.00  0.00    +0.000 NA
ATOM     15  C   UNL     1       7.190   5.110  17.853  0.00  0.00    +0.000 C 
ATOM     16  C   UNL     1       6.309   4.199  16.998  0.00  0.00    +0.000 C 
ATOM     17  C   UNL     1       4.966   4.851  16.649  0.00  0.00    +0.000 C 
ATOM     18  C   UNL     1       5.263   6.209  15.994  0.00  0.00    +0.000 C 
ATOM     19  C   UNL     1       6.148   7.095  16.873  0.00  0.00    +0.000 C 
BRANCH  14  20
ATOM     20  C   UNL     1       8.148   7.312  18.194  0.00  0.00    +0.000 C 
BRANCH  20  21
ATOM     21  C   UNL     1       8.046   8.805  17.860  0.00  0.00    +0.000 C 
BRANCH  21  22
ATOM     22  O   UNL     1       8.811   9.572  18.786  0.00  0.00    +0.000 OA
ATOM     23  H   UNL     1       8.481  10.484  18.722  0.00  0.00    +0.000 HD
ENDBRANCH  21  22
ENDBRANCH  20  21
ENDBRANCH  14  20
ENDBRANCH   1  17
TORSDOF 5
ENDMDL
MODEL 8
REMARK VINA RESULT:      -7.3      1.716      2.009
REMARK  Name = 
REMARK  5 active torsions:
REMARK  status: ('A' for Active; 'I' for Inactive)
REMARK    1  A    between atoms: O_1  and  C_2
REMARK    2  A    between atoms: C_2  and  C_3
REMARK    3  A    between atoms: C_3  and  N_4
REMARK    4  A    between atoms: C_7  and  C_8
REMARK    5  A    between atoms: C_12  and  C_13
REMARK                            x       y       z     vdW  Elec       q    Type
REMARK                         _______ _______ _______ _____ _____    ______ ____
ROOT
ATOM      1  C   UNL     1       4.640   5.640  18.419  0.00  0.00    +0.000 A 
ATOM      2  C   UNL     1       5.576   5.280  19.385  0.00  0.00    +0.000 A 
ATOM      3  N   UNL     1       6.773   4.727  19.089  0.00  0.00    +0.000 NA
ATOM      4  C   UNL     1       7.002   4.530  17.769  0.00  0.00    +0.000 A 
ATOM      5  C   UNL     1       6.092   4.867  16.770  0.00  0.00    +0.000 A 
ATOM      6  N   UNL     1       4.896   5.418  17.099  0.00  0.00    +0.000 NA
ENDROOT
BRANCH   5   7
ATOM      7  C   UNL     1       6.340   4.620  15.336  0.00  0.00    +0.000 A 
ATOM      8  C   UNL     1       5.562   3.714  14.592  0.00  0.00    +0.000 A 
ATOM      9  C   UNL     1       5.757   3.532  13.221  0.00  0.00    +0.000 A 
ATOM     10  C   UNL     1       6.749   4.252  12.560  0.00  0.00    +0.000 A 
ATOM     11  C   UNL     1       7.551   5.131  13.279  0.00  0.00    +0.000 A 
ATOM     12 CL   UNL     1       8.784   6.020  12.464  0.00  0.00    +0.000 Cl
ATOM     13  C   UNL     1       7.358   5.314  14.651  0.00  0.00    +0.000 A 
ENDBRANCH   5   7
BRANCH   1  17
ATOM     14  N   UNL     1       1.293   4.040  19.058  0.00  0.00    +0.000 NA
ATOM     15  C   UNL     1       2.302   4.267  20.107  0.00  0.00    +0.000 C 
ATOM     16  C   UNL     1       2.783   5.717  20.176  0.00  0.00    +0.000 C 
ATOM     17  C   UNL     1       3.296   6.225  18.823  0.00  0.00    +0.000 C 
ATOM     18  C   UNL     1       2.184   5.997  17.788  0.00  0.00    +0.000 C 
ATOM     19  C   UNL     1       1.724   4.538  17.744  0.00  0.00    +0.000 C 
BRANCH  14  20
ATOM     20  C   UNL     1       0.974   2.596  18.954  0.00  0.00    +0.000 C 
BRANCH  20  21
ATOM     21  C   UNL     1       2.126   1.677  19.376  0.00  0.00    +0.000 C 
BRANCH  21  22
ATOM     22  O   UNL     1       2.921   1.330  18.245  0.00  0.00    +0.000 OA
ATOM     23  H   UNL     1       3.237   2.168  17.868  0.00  0.00    +0.000 HD
ENDBRANCH  21  22
ENDBRANCH  20  21
ENDBRANCH  14  20
ENDBRANCH   1  17
TORSDOF 5
ENDMDL
MODEL 9
REMARK VINA RESULT:      -7.2      3.677      6.925
REMARK  Name = 
REMARK  5 active torsions:
REMARK  status: ('A' for Active; 'I' for Inactive)
REMARK    1  A    between atoms: O_1  and  C_2
REMARK    2  A    between atoms: C_2  and  C_3
REMARK    3  A    between atoms: C_3  and  N_4
REMARK    4  A    between atoms: C_7  and  C_8
REMARK    5  A    between atoms: C_12  and  C_13
REMARK                            x       y       z     vdW  Elec       q    Type
REMARK                         _______ _______ _______ _____ _____    ______ ____
ROOT
ATOM      1  C   UNL     1       3.973   4.548  16.920  0.00  0.00    +0.000 A 
ATOM      2  C   UNL     1       3.494   3.277  17.229  0.00  0.00    +0.000 A 
ATOM      3  N   UNL     1       2.527   3.053  18.145  0.00  0.00    +0.000 NA
ATOM      4  C   UNL     1       2.054   4.161  18.763  0.00  0.00    +0.000 A 
ATOM      5  C   UNL     1       2.510   5.449  18.490  0.00  0.00    +0.000 A 
ATOM      6  N   UNL     1       3.485   5.642  17.567  0.00  0.00    +0.000 NA
ENDROOT
BRANCH   5   7
ATOM      7  C   UNL     1       2.008   6.646  19.192  0.00  0.00    +0.000 A 
ATOM      8  C   UNL     1       1.579   6.598  20.532  0.00  0.00    +0.000 A 
ATOM      9  C   UNL     1       1.167   7.746  21.213  0.00  0.00    +0.000 A 
ATOM     10  C   UNL     1       1.167   8.977  20.562  0.00  0.00    +0.000 A 
ATOM     11  C   UNL     1       1.558   9.046  19.229  0.00  0.00    +0.000 A 
ATOM     12 CL   UNL     1       1.555  10.568  18.417  0.00  0.00    +0.000 Cl
ATOM     13  C   UNL     1       1.970   7.898  18.546  0.00  0.00    +0.000 A 
ENDBRANCH   5   7
BRANCH   1  17
ATOM     14  N   UNL     1       7.457   5.941  17.233  0.00  0.00    +0.000 NA
ATOM     15  C   UNL     1       7.129   4.516  17.408  0.00  0.00    +0.000 C 
ATOM     16  C   UNL     1       6.356   3.925  16.229  0.00  0.00    +0.000 C 
ATOM     17  C   UNL     1       5.090   4.727  15.903  0.00  0.00    +0.000 C 
ATOM     18  C   UNL     1       5.507   6.190  15.692  0.00  0.00    +0.000 C 
ATOM     19  C   UNL     1       6.280   6.752  16.888  0.00  0.00    +0.000 C 
BRANCH  14  20
ATOM     20  C   UNL     1       8.079   6.483  18.464  0.00  0.00    +0.000 C 
BRANCH  20  21
ATOM     21  C   UNL     1       7.642   5.764  19.745  0.00  0.00    +0.000 C 
BRANCH  21  22
ATOM     22  O   UNL     1       8.772   5.201  20.407  0.00  0.00    +0.000 OA
ATOM     23  H   UNL     1       8.493   5.029  21.322  0.00  0.00    +0.000 HD
ENDBRANCH  21  22
ENDBRANCH  20  21
ENDBRANCH  14  20
ENDBRANCH   1  17
TORSDOF 5
ENDMDL
