MODEL 1
REMARK VINA RESULT:      -7.8      0.000      0.000
REMARK  Name = 
REMARK  6 active torsions:
REMARK  status: ('A' for Active; 'I' for Inactive)
REMARK    1  A    between atoms: C_1  and  C_2
REMARK    2  A    between atoms: C_2  and  O_3
REMARK    3  A    between atoms: O_3  and  C_4
REMARK    4  A    between atoms: C_8  and  C_9
REMARK    5  A    between atoms: C_9  and  C_11
REMARK    6  A    between atoms: C_12  and  C_13
REMARK                            x       y       z     vdW  Elec       q    Type
REMARK                         _______ _______ _______ _____ _____    ______ ____
ROOT
ATOM      1  C   UNL     1       7.358   7.823  17.416  0.00  0.00    +0.000 C 
ATOM      2  C   UNL     1       8.245   8.137  18.376  0.00  0.00    +0.000 C 
ENDROOT
BRANCH   2   3
ATOM      3  C   UNL     1       8.716   9.467  18.528  0.00  0.00    +0.000 A 
ATOM      4  C   UNL     1       8.683  10.606  17.744  0.00  0.00    +0.000 A 
ATOM      5  C   UNL     1       9.404  11.633  18.410  0.00  0.00    +0.000 A 
ATOM      6  C   UNL     1       9.716  12.968  18.093  0.00  0.00    +0.000 A 
ATOM      7  C   UNL     1      10.521  13.709  18.964  0.00  0.00    +0.000 A 
ATOM      8  C   UNL     1      11.007  13.137  20.137  0.00  0.00    +0.000 A 
ATOM      9  C   UNL     1      10.684  11.821  20.489  0.00  0.00    +0.000 A 
ATOM     10  C   UNL     1       9.874  11.094  19.605  0.00  0.00    +0.000 A 
ATOM     11  N   UNL     1       9.394   9.803  19.681  0.00  0.00    +0.000 N 
ATOM     12  H   UNL     1       9.554   9.186  20.465  0.00  0.00    +0.000 HD
ENDBRANCH   2   3
BRANCH   1  13
ATOM     13  C   UNL     1       6.920   6.412  17.238  0.00  0.00    +0.000 C 
ATOM     14  O   UNL     1       7.639   5.589  16.680  0.00  0.00    +0.000 OA
BRANCH  13  19
ATOM     15  C   UNL     1       4.143   4.522  19.066  0.00  0.00    +0.000 A 
ATOM     16  C   UNL     1       3.044   5.312  18.723  0.00  0.00    +0.000 A 
ATOM     17  C   UNL     1       3.208   6.446  17.926  0.00  0.00    +0.000 A 
ATOM     18  C   UNL     1       4.476   6.786  17.455  0.00  0.00    +0.000 A 
ATOM     19  C   UNL     1       5.588   5.994  17.774  0.00  0.00    +0.000 A 
ATOM     20  C   UNL     1       5.415   4.872  18.599  0.00  0.00    +0.000 A 
BRANCH  15  21
ATOM     21  O   UNL     1       3.853   3.442  19.857  0.00  0.00    +0.000 OA
BRANCH  21  23
ATOM     22  C   UNL     1       3.467   1.680  18.275  0.00  0.00    +0.000 C 
ATOM     23  C   UNL     1       2.861   2.538  19.370  0.00  0.00    +0.000 C 
ENDBRANCH  21  23
ENDBRANCH  15  21
ENDBRANCH  13  19
ENDBRANCH   1  13
TORSDOF 5
ENDMDL
MODEL 2
REMARK VINA RESULT:      -7.8      0.926      1.556
REMARK  Name = 
REMARK  6 active torsions:
REMARK  status: ('A' for Active; 'I' for Inactive)
REMARK    1  A    between atoms: C_1  and  C_2
REMARK    2  A    between atoms: C_2  and  O_3
REMARK    3  A    between atoms: O_3  and  C_4
REMARK    4  A    between atoms: C_8  and  C_9
REMARK    5  A    between atoms: C_9  and  C_11
REMARK    6  A    between atoms: C_12  and  C_13
REMARK                            x       y       z     vdW  Elec       q    Type
REMARK                         _______ _______ _______ _____ _____    ______ ____
ROOT
ATOM      1  C   UNL     1       7.841   7.605  18.011  0.00  0.00    +0.000 C 
ATOM      2  C   UNL     1       7.927   8.861  17.541  0.00  0.00    +0.000 C 
ENDROOT
BRANCH   2   3
ATOM      3  C   UNL     1       8.602   9.871  18.276  0.00  0.00    +0.000 A 
ATOM      4  C   UNL     1       9.276   9.910  19.482  0.00  0.00    +0.000 A 
ATOM      5  C   UNL     1       9.677  11.249  19.733  0.00  0.00    +0.000 A 
ATOM      6  C   UNL     1      10.362  11.881  20.787  0.00  0.00    +0.000 A 
ATOM      7  C   UNL     1      10.545  13.267  20.752  0.00  0.00    +0.000 A 
ATOM      8  C   UNL     1      10.061  14.018  19.683  0.00  0.00    +0.000 A 
ATOM      9  C   UNL     1       9.405  13.408  18.608  0.00  0.00    +0.000 A 
ATOM     10  C   UNL     1       9.231  12.017  18.659  0.00  0.00    +0.000 A 
ATOM     11  N   UNL     1       8.639  11.151  17.764  0.00  0.00    +0.000 N 
ATOM     12  H   UNL     1       8.256  11.435  16.873  0.00  0.00    +0.000 HD
ENDBRANCH   2   3
BRANCH   1  13
ATOM     13  C   UNL     1       7.080   6.576  17.253  0.00  0.00    +0.000 C 
ATOM     14  O   UNL     1       7.532   6.078  16.226  0.00  0.00    +0.000 OA
BRANCH  13  19
ATOM     15  C   UNL     1       4.329   4.635  19.067  0.00  0.00    +0.000 A 
ATOM     16  C   UNL     1       3.212   5.387  18.691  0.00  0.00    +0.000 A 
ATOM     17  C   UNL     1       3.357   6.511  17.877  0.00  0.00    +0.000 A 
ATOM     18  C   UNL     1       4.622   6.880  17.421  0.00  0.00    +0.000 A 
ATOM     19  C   UNL     1       5.751   6.128  17.774  0.00  0.00    +0.000 A 
ATOM     20  C   UNL     1       5.597   5.015  18.615  0.00  0.00    +0.000 A 
BRANCH  15  21
ATOM     21  O   UNL     1       4.057   3.561  19.872  0.00  0.00    +0.000 OA
BRANCH  21  23
ATOM     22  C   UNL     1       2.350   3.083  21.488  0.00  0.00    +0.000 C 
ATOM     23  C   UNL     1       2.684   3.196  20.013  0.00  0.00    +0.000 C 
ENDBRANCH  21  23
ENDBRANCH  15  21
ENDBRANCH  13  19
ENDBRANCH   1  13
TORSDOF 5
ENDMDL
MODEL 3
REMARK VINA RESULT:      -7.7      1.377      2.384
REMARK  Name = 
REMARK  6 active torsions:
REMARK  status: ('A' for Active; 'I' for Inactive)
REMARK    1  A    between atoms: C_1  and  C_2
REMARK    2  A    between atoms: C_2  and  O_3
REMARK    3  A    between atoms: O_3  and  C_4
REMARK    4  A    between atoms: C_8  and  C_9
REMARK    5  A    between atoms: C_9  and  C_11
REMARK    6  A    between atoms: C_12  and  C_13
REMARK                            x       y       z     vdW  Elec       q    Type
REMARK                         _______ _______ _______ _____ _____    ______ ____
ROOT
ATOM      1  C   UNL     1       7.314   7.165  17.318  0.00  0.00    +0.000 C 
ATOM      2  C   UNL     1       8.081   7.613  18.326  0.00  0.00    +0.000 C 
ENDROOT
BRANCH   2   3
ATOM      3  C   UNL     1       8.471   8.976  18.398  0.00  0.00    +0.000 A 
ATOM      4  C   UNL     1       8.278  10.086  17.597  0.00  0.00    +0.000 A 
ATOM      5  C   UNL     1       8.989  11.179  18.161  0.00  0.00    +0.000 A 
ATOM      6  C   UNL     1       9.173  12.522  17.783  0.00  0.00    +0.000 A 
ATOM      7  C   UNL     1      10.010  13.340  18.548  0.00  0.00    +0.000 A 
ATOM      8  C   UNL     1      10.653  12.838  19.676  0.00  0.00    +0.000 A 
ATOM      9  C   UNL     1      10.461  11.514  20.090  0.00  0.00    +0.000 A 
ATOM     10  C   UNL     1       9.617  10.708  19.312  0.00  0.00    +0.000 A 
ATOM     11  N   UNL     1       9.239   9.391  19.466  0.00  0.00    +0.000 N 
ATOM     12  H   UNL     1       9.522   8.809  20.243  0.00  0.00    +0.000 HD
ENDBRANCH   2   3
BRANCH   1  13
ATOM     13  C   UNL     1       6.963   5.722  17.231  0.00  0.00    +0.000 C 
ATOM     14  O   UNL     1       7.828   4.866  17.073  0.00  0.00    +0.000 OA
BRANCH  13  19
ATOM     15  C   UNL     1       3.224   5.714  18.036  0.00  0.00    +0.000 A 
ATOM     16  C   UNL     1       2.875   4.449  17.557  0.00  0.00    +0.000 A 
ATOM     17  C   UNL     1       3.835   3.624  16.970  0.00  0.00    +0.000 A 
ATOM     18  C   UNL     1       5.157   4.057  16.873  0.00  0.00    +0.000 A 
ATOM     19  C   UNL     1       5.530   5.316  17.364  0.00  0.00    +0.000 A 
ATOM     20  C   UNL     1       4.550   6.148  17.928  0.00  0.00    +0.000 A 
BRANCH  15  21
ATOM     21  O   UNL     1       2.193   6.429  18.583  0.00  0.00    +0.000 OA
BRANCH  21  23
ATOM     22  C   UNL     1       1.854   8.650  17.742  0.00  0.00    +0.000 C 
ATOM     23  C   UNL     1       2.442   7.808  18.858  0.00  0.00    +0.000 C 
ENDBRANCH  21  23
ENDBRANCH  15  21
ENDBRANCH  13  19
ENDBRANCH   1  13
TORSDOF 5
ENDMDL
MODEL 4
REMARK VINA RESULT:      -7.7      5.643      8.670
REMARK  Name = 
REMARK  6 active torsions:
REMARK  status: ('A' for Active; 'I' for Inactive)
REMARK    1  A    between atoms: C_1  and  C_2
REMARK    2  A    between atoms: C_2  and  O_3
REMARK    3  A    between atoms: O_3  and  C_4
REMARK    4  A    between atoms: C_8  and  C_9
REMARK    5  A    between atoms: C_9  and  C_11
REMARK    6  A    between atoms: C_12  and  C_13
REMARK                            x       y       z     vdW  Elec       q    Type
REMARK                         _______ _______ _______ _____ _____    ______ ____
ROOT
ATOM      1  C   UNL     1       5.523   5.100  16.352  0.00  0.00    +0.000 C 
ATOM      2  C   UNL     1       5.353   3.891  16.913  0.00  0.00    +0.000 C 
ENDROOT
BRANCH   2   3
ATOM      3  C   UNL     1       4.248   3.630  17.766  0.00  0.00    +0.000 A 
ATOM      4  C   UNL     1       2.880   3.804  17.665  0.00  0.00    +0.000 A 
ATOM      5  C   UNL     1       2.285   3.421  18.896  0.00  0.00    +0.000 A 
ATOM      6  C   UNL     1       0.962   3.402  19.376  0.00  0.00    +0.000 A 
ATOM      7  C   UNL     1       0.717   3.016  20.697  0.00  0.00    +0.000 A 
ATOM      8  C   UNL     1       1.769   2.648  21.533  0.00  0.00    +0.000 A 
ATOM      9  C   UNL     1       3.090   2.629  21.070  0.00  0.00    +0.000 A 
ATOM     10  C   UNL     1       3.316   3.017  19.741  0.00  0.00    +0.000 A 
ATOM     11  N   UNL     1       4.485   3.095  19.014  0.00  0.00    +0.000 N 
ATOM     12  H   UNL     1       5.392   2.826  19.372  0.00  0.00    +0.000 HD
ENDBRANCH   2   3
BRANCH   1  13
ATOM     13  C   UNL     1       6.718   5.370  15.507  0.00  0.00    +0.000 C 
ATOM     14  O   UNL     1       7.683   5.986  15.949  0.00  0.00    +0.000 OA
BRANCH  13  19
ATOM     15  C   UNL     1       5.832   3.542  12.267  0.00  0.00    +0.000 A 
ATOM     16  C   UNL     1       6.893   3.954  11.457  0.00  0.00    +0.000 A 
ATOM     17  C   UNL     1       7.867   4.822  11.953  0.00  0.00    +0.000 A 
ATOM     18  C   UNL     1       7.791   5.271  13.271  0.00  0.00    +0.000 A 
ATOM     19  C   UNL     1       6.743   4.854  14.104  0.00  0.00    +0.000 A 
ATOM     20  C   UNL     1       5.755   4.002  13.586  0.00  0.00    +0.000 A 
BRANCH  15  21
ATOM     21  O   UNL     1       4.940   2.696  11.663  0.00  0.00    +0.000 OA
BRANCH  21  23
ATOM     22  C   UNL     1       3.410   3.691  10.106  0.00  0.00    +0.000 C 
ATOM     23  C   UNL     1       3.602   3.171  11.519  0.00  0.00    +0.000 C 
ENDBRANCH  21  23
ENDBRANCH  15  21
ENDBRANCH  13  19
ENDBRANCH   1  13
TORSDOF 5
ENDMDL
MODEL 5
REMARK VINA RESULT:      -7.6      1.457      2.778
REMARK  Name = 
REMARK  6 active torsions:
REMARK  status: ('A' for Active; 'I' for Inactive)
REMARK    1  A    between atoms: C_1  and  C_2
REMARK    2  A    between atoms: C_2  and  O_3
REMARK    3  A    between atoms: O_3  and  C_4
REMARK    4  A    between atoms: C_8  and  C_9
REMARK    5  A    between atoms: C_9  and  C_11
REMARK    6  A    between atoms: C_12  and  C_13
REMARK                            x       y       z     vdW  Elec       q    Type
REMARK                         _______ _______ _______ _____ _____    ______ ____
ROOT
ATOM      1  C   UNL     1       7.967   7.644  18.011  0.00  0.00    +0.000 C 
ATOM      2  C   UNL     1       7.947   8.922  17.596  0.00  0.00    +0.000 C 
ENDROOT
BRANCH   2   3
ATOM      3  C   UNL     1       8.639   9.934  18.312  0.00  0.00    +0.000 A 
ATOM      4  C   UNL     1       9.328   9.979  19.511  0.00  0.00    +0.000 A 
ATOM      5  C   UNL     1       9.742  11.317  19.743  0.00  0.00    +0.000 A 
ATOM      6  C   UNL     1      10.444  11.954  20.783  0.00  0.00    +0.000 A 
ATOM      7  C   UNL     1      10.637  13.339  20.732  0.00  0.00    +0.000 A 
ATOM      8  C   UNL     1      10.146  14.083  19.662  0.00  0.00    +0.000 A 
ATOM      9  C   UNL     1       9.472  13.467  18.600  0.00  0.00    +0.000 A 
ATOM     10  C   UNL     1       9.289  12.078  18.667  0.00  0.00    +0.000 A 
ATOM     11  N   UNL     1       8.679  11.208  17.788  0.00  0.00    +0.000 N 
ATOM     12  H   UNL     1       8.288  11.487  16.899  0.00  0.00    +0.000 HD
ENDBRANCH   2   3
BRANCH   1  13
ATOM     13  C   UNL     1       7.189   6.609  17.278  0.00  0.00    +0.000 C 
ATOM     14  O   UNL     1       7.586   6.152  16.211  0.00  0.00    +0.000 OA
BRANCH  13  19
ATOM     15  C   UNL     1       3.517   6.239  18.281  0.00  0.00    +0.000 A 
ATOM     16  C   UNL     1       3.589   5.067  19.039  0.00  0.00    +0.000 A 
ATOM     17  C   UNL     1       4.806   4.403  19.204  0.00  0.00    +0.000 A 
ATOM     18  C   UNL     1       5.963   4.921  18.623  0.00  0.00    +0.000 A 
ATOM     19  C   UNL     1       5.914   6.105  17.875  0.00  0.00    +0.000 A 
ATOM     20  C   UNL     1       4.680   6.749  17.692  0.00  0.00    +0.000 A 
BRANCH  15  21
ATOM     21  O   UNL     1       2.267   6.790  18.189  0.00  0.00    +0.000 OA
BRANCH  21  23
ATOM     22  C   UNL     1       1.574   9.050  17.780  0.00  0.00    +0.000 C 
ATOM     23  C   UNL     1       2.078   8.060  18.813  0.00  0.00    +0.000 C 
ENDBRANCH  21  23
ENDBRANCH  15  21
ENDBRANCH  13  19
ENDBRANCH   1  13
TORSDOF 5
ENDMDL
MODEL 6
REMARK VINA RESULT:      -7.6      5.730      8.620
REMARK  Name = 
REMARK  6 active torsions:
REMARK  status: ('A' for Active; 'I' for Inactive)
REMARK    1  A    between atoms: C_1  and  C_2
REMARK    2  A    between atoms: C_2  and  O_3
REMARK    3  A    between atoms: O_3  and  C_4
REMARK    4  A    between atoms: C_8  and  C_9
REMARK    5  A    between atoms: C_9  and  C_11
REMARK    6  A    between atoms: C_12  and  C_13
REMARK                            x       y       z     vdW  Elec       q    Type
REMARK                         _______ _______ _______ _____ _____    ______ ____
ROOT
ATOM      1  C   UNL     1       5.438   4.676  16.239  0.00  0.00    +0.000 C 
ATOM      2  C   UNL     1       5.500   4.609  17.579  0.00  0.00    +0.000 C 
ENDROOT
BRANCH   2   3
ATOM      3  C   UNL     1       4.367   4.228  18.346  0.00  0.00    +0.000 A 
ATOM      4  C   UNL     1       3.020   4.538  18.309  0.00  0.00    +0.000 A 
ATOM      5  C   UNL     1       2.380   3.898  19.403  0.00  0.00    +0.000 A 
ATOM      6  C   UNL     1       1.054   3.867  19.875  0.00  0.00    +0.000 A 
ATOM      7  C   UNL     1       0.762   3.170  21.052  0.00  0.00    +0.000 A 
ATOM      8  C   UNL     1       1.768   2.509  21.751  0.00  0.00    +0.000 A 
ATOM      9  C   UNL     1       3.089   2.500  21.285  0.00  0.00    +0.000 A 
ATOM     10  C   UNL     1       3.363   3.202  20.102  0.00  0.00    +0.000 A 
ATOM     11  N   UNL     1       4.543   3.367  19.408  0.00  0.00    +0.000 N 
ATOM     12  H   UNL     1       5.419   2.938  19.673  0.00  0.00    +0.000 HD
ENDBRANCH   2   3
BRANCH   1  13
ATOM     13  C   UNL     1       6.620   5.131  15.459  0.00  0.00    +0.000 C 
ATOM     14  O   UNL     1       7.473   5.857  15.961  0.00  0.00    +0.000 OA
BRANCH  13  19
ATOM     15  C   UNL     1       6.293   3.157  12.200  0.00  0.00    +0.000 A 
ATOM     16  C   UNL     1       7.141   3.904  11.377  0.00  0.00    +0.000 A 
ATOM     17  C   UNL     1       7.791   5.036  11.871  0.00  0.00    +0.000 A 
ATOM     18  C   UNL     1       7.607   5.418  13.200  0.00  0.00    +0.000 A 
ATOM     19  C   UNL     1       6.775   4.670  14.045  0.00  0.00    +0.000 A 
ATOM     20  C   UNL     1       6.105   3.550  13.530  0.00  0.00    +0.000 A 
BRANCH  15  21
ATOM     21  O   UNL     1       5.710   2.075  11.597  0.00  0.00    +0.000 OA
BRANCH  21  23
ATOM     22  C   UNL     1       6.039  -0.275  11.244  0.00  0.00    +0.000 C 
ATOM     23  C   UNL     1       6.590   1.119  11.005  0.00  0.00    +0.000 C 
ENDBRANCH  21  23
ENDBRANCH  15  21
ENDBRANCH  13  19
ENDBRANCH   1  13
TORSDOF 5
ENDMDL
MODEL 7
REMARK VINA RESULT:      -7.5      5.178      7.002
REMARK  Name = 
REMARK  6 active torsions:
REMARK  status: ('A' for Active; 'I' for Inactive)
REMARK    1  A    between atoms: C_1  and  C_2
REMARK    2  A    between atoms: C_2  and  O_3
REMARK    3  A    between atoms: O_3  and  C_4
REMARK    4  A    between atoms: C_8  and  C_9
REMARK    5  A    between atoms: C_9  and  C_11
REMARK    6  A    between atoms: C_12  and  C_13
REMARK                            x       y       z     vdW  Elec       q    Type
REMARK                         _______ _______ _______ _____ _____    ______ ____
ROOT
ATOM      1  C   UNL     1       2.829   5.032  18.933  0.00  0.00    +0.000 C 
ATOM      2  C   UNL     1       3.022   6.286  18.493  0.00  0.00    +0.000 C 
ENDROOT
BRANCH   2   3
ATOM      3  C   UNL     1       2.284   7.373  19.032  0.00  0.00    +0.000 A 
ATOM      4  C   UNL     1       1.812   8.571  18.530  0.00  0.00    +0.000 A 
ATOM      5  C   UNL     1       1.199   9.294  19.588  0.00  0.00    +0.000 A 
ATOM      6  C   UNL     1       0.576  10.552  19.677  0.00  0.00    +0.000 A 
ATOM      7  C   UNL     1       0.121  11.005  20.920  0.00  0.00    +0.000 A 
ATOM      8  C   UNL     1       0.276  10.221  22.059  0.00  0.00    +0.000 A 
ATOM      9  C   UNL     1       0.865   8.952  21.990  0.00  0.00    +0.000 A 
ATOM     10  C   UNL     1       1.313   8.513  20.736  0.00  0.00    +0.000 A 
ATOM     11  N   UNL     1       1.918   7.332  20.360  0.00  0.00    +0.000 N 
ATOM     12  H   UNL     1       2.094   6.562  20.992  0.00  0.00    +0.000 HD
ENDBRANCH   2   3
BRANCH   1  13
ATOM     13  C   UNL     1       3.572   3.901  18.315  0.00  0.00    +0.000 C 
ATOM     14  O   UNL     1       3.099   2.770  18.286  0.00  0.00    +0.000 OA
BRANCH  13  19
ATOM     15  C   UNL     1       6.430   4.283  15.802  0.00  0.00    +0.000 A 
ATOM     16  C   UNL     1       7.455   4.689  16.660  0.00  0.00    +0.000 A 
ATOM     17  C   UNL     1       7.215   4.850  18.025  0.00  0.00    +0.000 A 
ATOM     18  C   UNL     1       5.946   4.590  18.542  0.00  0.00    +0.000 A 
ATOM     19  C   UNL     1       4.909   4.164  17.700  0.00  0.00    +0.000 A 
ATOM     20  C   UNL     1       5.156   4.032  16.325  0.00  0.00    +0.000 A 
BRANCH  15  21
ATOM     21  O   UNL     1       6.790   4.167  14.486  0.00  0.00    +0.000 OA
BRANCH  21  23
ATOM     22  C   UNL     1       6.334   3.407  12.258  0.00  0.00    +0.000 C 
ATOM     23  C   UNL     1       5.738   3.931  13.551  0.00  0.00    +0.000 C 
ENDBRANCH  21  23
ENDBRANCH  15  21
ENDBRANCH  13  19
ENDBRANCH   1  13
TORSDOF 5
ENDMDL
MODEL 8
REMARK VINA RESULT:      -7.4      3.921      6.824
REMARK  Name = 
REMARK  6 active torsions:
REMARK  status: ('A' for Active; 'I' for Inactive)
REMARK    1  A    between atoms: C_1  and  C_2
REMARK    2  A    between atoms: C_2  and  O_3
REMARK    3  A    between atoms: O_3  and  C_4
REMARK    4  A    between atoms: C_8  and  C_9
REMARK    5  A    between atoms: C_9  and  C_11
REMARK    6  A    between atoms: C_12  and  C_13
REMARK                            x       y       z     vdW  Elec       q    Type
REMARK                         _______ _______ _______ _____ _____    ______ ____
ROOT
ATOM      1  C   UNL     1       2.261   5.311  17.916  0.00  0.00    +0.000 C 
ATOM      2  C   UNL     1       2.912   6.414  18.321  0.00  0.00    +0.000 C 
ENDROOT
BRANCH   2   3
ATOM      3  C   UNL     1       2.205   7.599  18.656  0.00  0.00    +0.000 A 
ATOM      4  C   UNL     1       1.770   8.704  17.949  0.00  0.00    +0.000 A 
ATOM      5  C   UNL     1       1.176   9.618  18.860  0.00  0.00    +0.000 A 
ATOM      6  C   UNL     1       0.591  10.890  18.723  0.00  0.00    +0.000 A 
ATOM      7  C   UNL     1       0.147  11.567  19.863  0.00  0.00    +0.000 A 
ATOM      8  C   UNL     1       0.276  10.989  21.124  0.00  0.00    +0.000 A 
ATOM      9  C   UNL     1       0.827   9.712  21.282  0.00  0.00    +0.000 A 
ATOM     10  C   UNL     1       1.265   9.047  20.128  0.00  0.00    +0.000 A 
ATOM     11  N   UNL     1       1.835   7.802  19.969  0.00  0.00    +0.000 N 
ATOM     12  H   UNL     1       1.987   7.149  20.726  0.00  0.00    +0.000 HD
ENDBRANCH   2   3
BRANCH   1  13
ATOM     13  C   UNL     1       3.024   4.098  17.515  0.00  0.00    +0.000 C 
ATOM     14  O   UNL     1       2.496   2.991  17.499  0.00  0.00    +0.000 OA
BRANCH  13  19
ATOM     15  C   UNL     1       6.825   4.513  17.581  0.00  0.00    +0.000 A 
ATOM     16  C   UNL     1       7.094   4.516  16.210  0.00  0.00    +0.000 A 
ATOM     17  C   UNL     1       6.059   4.368  15.285  0.00  0.00    +0.000 A 
ATOM     18  C   UNL     1       4.744   4.233  15.731  0.00  0.00    +0.000 A 
ATOM     19  C   UNL     1       4.454   4.247  17.102  0.00  0.00    +0.000 A 
ATOM     20  C   UNL     1       5.505   4.368  18.023  0.00  0.00    +0.000 A 
BRANCH  15  21
ATOM     21  O   UNL     1       7.925   4.659  18.385  0.00  0.00    +0.000 OA
BRANCH  21  23
ATOM     22  C   UNL     1       8.014   7.054  18.485  0.00  0.00    +0.000 C 
ATOM     23  C   UNL     1       7.920   5.768  19.284  0.00  0.00    +0.000 C 
ENDBRANCH  21  23
ENDBRANCH  15  21
ENDBRANCH  13  19
ENDBRANCH   1  13
TORSDOF 5
ENDMDL
MODEL 9
REMARK VINA RESULT:      -7.4      5.378      7.179
REMARK  Name = 
REMARK  6 active torsions:
REMARK  status: ('A' for Active; 'I' for Inactive)
REMARK    1  A    between atoms: C_1  and  C_2
REMARK    2  A    between atoms: C_2  and  O_3
REMARK    3  A    between atoms: O_3  and  C_4
REMARK    4  A    between atoms: C_8  and  C_9
REMARK    5  A    between atoms: C_9  and  C_11
REMARK    6  A    between atoms: C_12  and  C_13
REMARK                            x       y       z     vdW  Elec       q    Type
REMARK                         _______ _______ _______ _____ _____    ______ ____
ROOT
ATOM      1  C   UNL     1       5.660   5.973  16.454  0.00  0.00    +0.000 C 
ATOM      2  C   UNL     1       4.719   5.566  17.322  0.00  0.00    +0.000 C 
ENDROOT
BRANCH   2   3
ATOM      3  C   UNL     1       3.759   6.474  17.840  0.00  0.00    +0.000 A 
ATOM      4  C   UNL     1       3.199   7.656  17.391  0.00  0.00    +0.000 A 
ATOM      5  C   UNL     1       2.336   8.159  18.401  0.00  0.00    +0.000 A 
ATOM      6  C   UNL     1       1.531   9.308  18.514  0.00  0.00    +0.000 A 
ATOM      7  C   UNL     1       0.834   9.542  19.703  0.00  0.00    +0.000 A 
ATOM      8  C   UNL     1       0.929   8.649  20.767  0.00  0.00    +0.000 A 
ATOM      9  C   UNL     1       1.699   7.483  20.668  0.00  0.00    +0.000 A 
ATOM     10  C   UNL     1       2.389   7.263  19.467  0.00  0.00    +0.000 A 
ATOM     11  N   UNL     1       3.208   6.224  19.078  0.00  0.00    +0.000 N 
ATOM     12  H   UNL     1       3.397   5.411  19.648  0.00  0.00    +0.000 HD
ENDBRANCH   2   3
BRANCH   1  13
ATOM     13  C   UNL     1       6.691   5.017  15.968  0.00  0.00    +0.000 C 
ATOM     14  O   UNL     1       7.451   4.450  16.747  0.00  0.00    +0.000 OA
BRANCH  13  19
ATOM     15  C   UNL     1       6.050   3.598  12.475  0.00  0.00    +0.000 A 
ATOM     16  C   UNL     1       7.035   4.277  11.752  0.00  0.00    +0.000 A 
ATOM     17  C   UNL     1       7.878   5.189  12.387  0.00  0.00    +0.000 A 
ATOM     18  C   UNL     1       7.749   5.416  13.758  0.00  0.00    +0.000 A 
ATOM     19  C   UNL     1       6.779   4.731  14.503  0.00  0.00    +0.000 A 
ATOM     20  C   UNL     1       5.919   3.836  13.847  0.00  0.00    +0.000 A 
BRANCH  15  21
ATOM     21  O   UNL     1       5.284   2.735  11.737  0.00  0.00    +0.000 OA
BRANCH  21  23
ATOM     22  C   UNL     1       3.708   3.792  10.270  0.00  0.00    +0.000 C 
ATOM     23  C   UNL     1       3.904   3.069  11.588  0.00  0.00    +0.000 C 
ENDBRANCH  21  23
ENDBRANCH  15  21
ENDBRANCH  13  19
ENDBRANCH   1  13
TORSDOF 5
ENDMDL
