MODEL 1
REMARK VINA RESULT:      -8.0      0.000      0.000
REMARK  Name = 
REMARK  0 active torsions:
REMARK  status: ('A' for Active; 'I' for Inactive)
REMARK                            x       y       z     vdW  Elec       q    Type
REMARK                         _______ _______ _______ _____ _____    ______ ____
ROOT
ATOM      1  C   UNL     1       7.794   6.891  18.075  0.00  0.00    +0.000 A 
ATOM      2  C   UNL     1       6.798   7.439  17.222  0.00  0.00    +0.000 A 
ATOM      3  C   UNL     1       5.503   6.908  17.115  0.00  0.00    +0.000 A 
ATOM      4  C   UNL     1       5.237   5.779  17.868  0.00  0.00    +0.000 A 
ATOM      5  C   UNL     1       6.302   5.208  18.704  0.00  0.00    +0.000 A 
ATOM      6  C   UNL     1       7.582   5.745  18.860  0.00  0.00    +0.000 A 
ATOM      7  N   UNL     1       5.889   4.132  19.381  0.00  0.00    +0.000 NA
ATOM      8  N   UNL     1       4.559   4.085  19.002  0.00  0.00    +0.000 N 
ATOM      9  C   UNL     1       3.412   3.554  19.640  0.00  0.00    +0.000 A 
ATOM     10  C   UNL     1       3.365   2.658  20.677  0.00  0.00    +0.000 A 
ATOM     11  C   UNL     1       2.127   2.543  21.298  0.00  0.00    +0.000 A 
ATOM     12  C   UNL     1       1.029   3.310  20.849  0.00  0.00    +0.000 A 
ATOM     13  C   UNL     1       1.133   4.188  19.750  0.00  0.00    +0.000 A 
ATOM     14  C   UNL     1       2.356   4.323  19.119  0.00  0.00    +0.000 A 
ATOM     15  N   UNL     1       2.734   5.214  18.154  0.00  0.00    +0.000 NA
ATOM     16  N   UNL     1       4.164   4.997  18.154  0.00  0.00    +0.000 N 
ENDROOT
TORSDOF 0
ENDMDL
MODEL 2
REMARK VINA RESULT:      -7.9      1.648      1.736
REMARK  Name = 
REMARK  0 active torsions:
REMARK  status: ('A' for Active; 'I' for Inactive)
REMARK                            x       y       z     vdW  Elec       q    Type
REMARK                         _______ _______ _______ _____ _____    ______ ____
ROOT
ATOM      1  C   UNL     1       7.203   5.575  16.379  0.00  0.00    +0.000 A 
ATOM      2  C   UNL     1       6.375   5.143  15.309  0.00  0.00    +0.000 A 
ATOM      3  C   UNL     1       5.235   4.345  15.494  0.00  0.00    +0.000 A 
ATOM      4  C   UNL     1       4.962   3.955  16.793  0.00  0.00    +0.000 A 
ATOM      5  C   UNL     1       5.865   4.377  17.872  0.00  0.00    +0.000 A 
ATOM      6  C   UNL     1       6.977   5.208  17.717  0.00  0.00    +0.000 A 
ATOM      7  N   UNL     1       5.461   3.937  19.068  0.00  0.00    +0.000 NA
ATOM      8  N   UNL     1       4.284   3.297  18.721  0.00  0.00    +0.000 N 
ATOM      9  C   UNL     1       3.106   3.020  19.457  0.00  0.00    +0.000 A 
ATOM     10  C   UNL     1       2.940   3.040  20.818  0.00  0.00    +0.000 A 
ATOM     11  C   UNL     1       1.619   3.024  21.249  0.00  0.00    +0.000 A 
ATOM     12  C   UNL     1       0.562   2.982  20.312  0.00  0.00    +0.000 A 
ATOM     13  C   UNL     1       0.801   2.925  18.923  0.00  0.00    +0.000 A 
ATOM     14  C   UNL     1       2.107   2.946  18.470  0.00  0.00    +0.000 A 
ATOM     15  N   UNL     1       2.573   3.059  17.190  0.00  0.00    +0.000 NA
ATOM     16  N   UNL     1       3.977   3.292  17.451  0.00  0.00    +0.000 N 
ENDROOT
TORSDOF 0
ENDMDL
MODEL 3
REMARK VINA RESULT:      -7.8      1.569      5.661
REMARK  Name = 
REMARK  0 active torsions:
REMARK  status: ('A' for Active; 'I' for Inactive)
REMARK                            x       y       z     vdW  Elec       q    Type
REMARK                         _______ _______ _______ _____ _____    ______ ____
ROOT
ATOM      1  C   UNL     1       0.585   2.892  20.170  0.00  0.00    +0.000 A 
ATOM      2  C   UNL     1       1.551   2.957  21.210  0.00  0.00    +0.000 A 
ATOM      3  C   UNL     1       2.926   3.112  20.972  0.00  0.00    +0.000 A 
ATOM      4  C   UNL     1       3.319   3.164  19.646  0.00  0.00    +0.000 A 
ATOM      5  C   UNL     1       2.301   3.045  18.593  0.00  0.00    +0.000 A 
ATOM      6  C   UNL     1       0.925   2.937  18.808  0.00  0.00    +0.000 A 
ATOM      7  N   UNL     1       2.831   3.130  17.369  0.00  0.00    +0.000 NA
ATOM      8  N   UNL     1       4.160   3.359  17.680  0.00  0.00    +0.000 N 
ATOM      9  C   UNL     1       5.200   4.004  16.968  0.00  0.00    +0.000 A 
ATOM     10  C   UNL     1       5.245   4.305  15.632  0.00  0.00    +0.000 A 
ATOM     11  C   UNL     1       6.242   5.199  15.263  0.00  0.00    +0.000 A 
ATOM     12  C   UNL     1       7.125   5.724  16.233  0.00  0.00    +0.000 A 
ATOM     13  C   UNL     1       7.051   5.344  17.590  0.00  0.00    +0.000 A 
ATOM     14  C   UNL     1       6.063   4.460  17.981  0.00  0.00    +0.000 A 
ATOM     15  N   UNL     1       5.700   4.076  19.242  0.00  0.00    +0.000 NA
ATOM     16  N   UNL     1       4.463   3.384  18.950  0.00  0.00    +0.000 N 
ENDROOT
TORSDOF 0
ENDMDL
MODEL 4
REMARK VINA RESULT:      -7.5      0.690      5.606
REMARK  Name = 
REMARK  0 active torsions:
REMARK  status: ('A' for Active; 'I' for Inactive)
REMARK                            x       y       z     vdW  Elec       q    Type
REMARK                         _______ _______ _______ _____ _____    ______ ____
ROOT
ATOM      1  C   UNL     1       0.921   3.206  19.497  0.00  0.00    +0.000 A 
ATOM      2  C   UNL     1       1.837   2.455  20.282  0.00  0.00    +0.000 A 
ATOM      3  C   UNL     1       3.230   2.576  20.161  0.00  0.00    +0.000 A 
ATOM      4  C   UNL     1       3.690   3.454  19.196  0.00  0.00    +0.000 A 
ATOM      5  C   UNL     1       2.718   4.180  18.367  0.00  0.00    +0.000 A 
ATOM      6  C   UNL     1       1.329   4.109  18.501  0.00  0.00    +0.000 A 
ATOM      7  N   UNL     1       3.312   4.999  17.494  0.00  0.00    +0.000 NA
ATOM      8  N   UNL     1       4.641   4.814  17.834  0.00  0.00    +0.000 N 
ATOM      9  C   UNL     1       5.777   5.650  17.699  0.00  0.00    +0.000 A 
ATOM     10  C   UNL     1       5.917   6.757  16.903  0.00  0.00    +0.000 A 
ATOM     11  C   UNL     1       7.020   7.552  17.191  0.00  0.00    +0.000 A 
ATOM     12  C   UNL     1       7.905   7.195  18.233  0.00  0.00    +0.000 A 
ATOM     13  C   UNL     1       7.726   6.020  18.992  0.00  0.00    +0.000 A 
ATOM     14  C   UNL     1       6.632   5.216  18.727  0.00  0.00    +0.000 A 
ATOM     15  N   UNL     1       6.170   4.133  19.422  0.00  0.00    +0.000 NA
ATOM     16  N   UNL     1       4.884   3.954  18.786  0.00  0.00    +0.000 N 
ENDROOT
TORSDOF 0
ENDMDL
MODEL 5
REMARK VINA RESULT:      -7.5      1.618      2.186
REMARK  Name = 
REMARK  0 active torsions:
REMARK  status: ('A' for Active; 'I' for Inactive)
REMARK                            x       y       z     vdW  Elec       q    Type
REMARK                         _______ _______ _______ _____ _____    ______ ____
ROOT
ATOM      1  C   UNL     1       7.036   4.842  15.574  0.00  0.00    +0.000 A 
ATOM      2  C   UNL     1       7.230   5.896  16.507  0.00  0.00    +0.000 A 
ATOM      3  C   UNL     1       6.286   6.235  17.489  0.00  0.00    +0.000 A 
ATOM      4  C   UNL     1       5.111   5.505  17.490  0.00  0.00    +0.000 A 
ATOM      5  C   UNL     1       4.920   4.454  16.481  0.00  0.00    +0.000 A 
ATOM      6  C   UNL     1       5.864   4.070  15.526  0.00  0.00    +0.000 A 
ATOM      7  N   UNL     1       3.747   3.828  16.621  0.00  0.00    +0.000 NA
ATOM      8  N   UNL     1       3.253   4.461  17.749  0.00  0.00    +0.000 N 
ATOM      9  C   UNL     1       2.335   4.040  18.743  0.00  0.00    +0.000 A 
ATOM     10  C   UNL     1       1.446   2.998  18.681  0.00  0.00    +0.000 A 
ATOM     11  C   UNL     1       0.888   2.629  19.899  0.00  0.00    +0.000 A 
ATOM     12  C   UNL     1       1.239   3.316  21.083  0.00  0.00    +0.000 A 
ATOM     13  C   UNL     1       2.133   4.407  21.073  0.00  0.00    +0.000 A 
ATOM     14  C   UNL     1       2.705   4.789  19.874  0.00  0.00    +0.000 A 
ATOM     15  N   UNL     1       3.702   5.696  19.645  0.00  0.00    +0.000 NA
ATOM     16  N   UNL     1       3.996   5.405  18.259  0.00  0.00    +0.000 N 
ENDROOT
TORSDOF 0
ENDMDL
MODEL 6
REMARK VINA RESULT:      -7.3      1.428      5.147
REMARK  Name = 
REMARK  0 active torsions:
REMARK  status: ('A' for Active; 'I' for Inactive)
REMARK                            x       y       z     vdW  Elec       q    Type
REMARK                         _______ _______ _______ _____ _____    ______ ____
ROOT
ATOM      1  C   UNL     1       1.887   2.660  21.216  0.00  0.00    +0.000 A 
ATOM      2  C   UNL     1       1.162   3.820  20.835  0.00  0.00    +0.000 A 
ATOM      3  C   UNL     1       1.687   4.811  19.991  0.00  0.00    +0.000 A 
ATOM      4  C   UNL     1       2.988   4.626  19.560  0.00  0.00    +0.000 A 
ATOM      5  C   UNL     1       3.729   3.440  20.011  0.00  0.00    +0.000 A 
ATOM      6  C   UNL     1       3.212   2.420  20.812  0.00  0.00    +0.000 A 
ATOM      7  N   UNL     1       4.963   3.393  19.500  0.00  0.00    +0.000 NA
ATOM      8  N   UNL     1       4.950   4.519  18.695  0.00  0.00    +0.000 N 
ATOM      9  C   UNL     1       5.676   4.853  17.525  0.00  0.00    +0.000 A 
ATOM     10  C   UNL     1       6.823   4.271  17.051  0.00  0.00    +0.000 A 
ATOM     11  C   UNL     1       7.148   4.594  15.739  0.00  0.00    +0.000 A 
ATOM     12  C   UNL     1       6.326   5.470  14.995  0.00  0.00    +0.000 A 
ATOM     13  C   UNL     1       5.176   6.067  15.554  0.00  0.00    +0.000 A 
ATOM     14  C   UNL     1       4.830   5.756  16.856  0.00  0.00    +0.000 A 
ATOM     15  N   UNL     1       3.696   6.079  17.547  0.00  0.00    +0.000 NA
ATOM     16  N   UNL     1       3.855   5.230  18.707  0.00  0.00    +0.000 N 
ENDROOT
TORSDOF 0
ENDMDL
MODEL 7
REMARK VINA RESULT:      -7.3      1.549      5.395
REMARK  Name = 
REMARK  0 active torsions:
REMARK  status: ('A' for Active; 'I' for Inactive)
REMARK                            x       y       z     vdW  Elec       q    Type
REMARK                         _______ _______ _______ _____ _____    ______ ____
ROOT
ATOM      1  C   UNL     1       1.332   3.412  21.222  0.00  0.00    +0.000 A 
ATOM      2  C   UNL     1       0.925   2.661  20.087  0.00  0.00    +0.000 A 
ATOM      3  C   UNL     1       1.458   2.859  18.804  0.00  0.00    +0.000 A 
ATOM      4  C   UNL     1       2.395   3.869  18.676  0.00  0.00    +0.000 A 
ATOM      5  C   UNL     1       2.759   4.661  19.859  0.00  0.00    +0.000 A 
ATOM      6  C   UNL     1       2.277   4.450  21.153  0.00  0.00    +0.000 A 
ATOM      7  N   UNL     1       3.686   5.584  19.582  0.00  0.00    +0.000 NA
ATOM      8  N   UNL     1       3.924   5.313  18.246  0.00  0.00    +0.000 N 
ATOM      9  C   UNL     1       5.059   5.530  17.426  0.00  0.00    +0.000 A 
ATOM     10  C   UNL     1       6.125   6.358  17.664  0.00  0.00    +0.000 A 
ATOM     11  C   UNL     1       7.227   6.149  16.845  0.00  0.00    +0.000 A 
ATOM     12  C   UNL     1       7.196   5.149  15.848  0.00  0.00    +0.000 A 
ATOM     13  C   UNL     1       6.052   4.353  15.626  0.00  0.00    +0.000 A 
ATOM     14  C   UNL     1       4.945   4.539  16.434  0.00  0.00    +0.000 A 
ATOM     15  N   UNL     1       3.802   3.794  16.513  0.00  0.00    +0.000 NA
ATOM     16  N   UNL     1       3.216   4.355  17.711  0.00  0.00    +0.000 N 
ENDROOT
TORSDOF 0
ENDMDL
MODEL 8
REMARK VINA RESULT:      -7.3      1.424      2.556
REMARK  Name = 
REMARK  0 active torsions:
REMARK  status: ('A' for Active; 'I' for Inactive)
REMARK                            x       y       z     vdW  Elec       q    Type
REMARK                         _______ _______ _______ _____ _____    ______ ____
ROOT
ATOM      1  C   UNL     1       6.421   5.616  15.072  0.00  0.00    +0.000 A 
ATOM      2  C   UNL     1       7.300   4.768  15.798  0.00  0.00    +0.000 A 
ATOM      3  C   UNL     1       7.014   4.285  17.084  0.00  0.00    +0.000 A 
ATOM      4  C   UNL     1       5.822   4.706  17.647  0.00  0.00    +0.000 A 
ATOM      5  C   UNL     1       4.957   5.622  16.891  0.00  0.00    +0.000 A 
ATOM      6  C   UNL     1       5.201   6.077  15.594  0.00  0.00    +0.000 A 
ATOM      7  N   UNL     1       3.838   5.924  17.558  0.00  0.00    +0.000 NA
ATOM      8  N   UNL     1       3.999   5.148  18.692  0.00  0.00    +0.000 N 
ATOM      9  C   UNL     1       3.062   4.584  19.593  0.00  0.00    +0.000 A 
ATOM     10  C   UNL     1       1.744   4.922  19.757  0.00  0.00    +0.000 A 
ATOM     11  C   UNL     1       0.990   4.013  20.489  0.00  0.00    +0.000 A 
ATOM     12  C   UNL     1       1.590   2.845  21.011  0.00  0.00    +0.000 A 
ATOM     13  C   UNL     1       2.964   2.573  20.840  0.00  0.00    +0.000 A 
ATOM     14  C   UNL     1       3.733   3.461  20.110  0.00  0.00    +0.000 A 
ATOM     15  N   UNL     1       5.025   3.333  19.683  0.00  0.00    +0.000 NA
ATOM     16  N   UNL     1       5.102   4.452  18.770  0.00  0.00    +0.000 N 
ENDROOT
TORSDOF 0
ENDMDL
MODEL 9
REMARK VINA RESULT:      -7.1      1.815      2.610
REMARK  Name = 
REMARK  0 active torsions:
REMARK  status: ('A' for Active; 'I' for Inactive)
REMARK                            x       y       z     vdW  Elec       q    Type
REMARK                         _______ _______ _______ _____ _____    ______ ____
ROOT
ATOM      1  C   UNL     1       5.945   5.897  14.763  0.00  0.00    +0.000 A 
ATOM      2  C   UNL     1       6.204   4.502  14.691  0.00  0.00    +0.000 A 
ATOM      3  C   UNL     1       5.775   3.590  15.668  0.00  0.00    +0.000 A 
ATOM      4  C   UNL     1       5.101   4.123  16.753  0.00  0.00    +0.000 A 
ATOM      5  C   UNL     1       4.891   5.576  16.822  0.00  0.00    +0.000 A 
ATOM      6  C   UNL     1       5.269   6.494  15.840  0.00  0.00    +0.000 A 
ATOM      7  N   UNL     1       4.213   5.935  17.916  0.00  0.00    +0.000 NA
ATOM      8  N   UNL     1       3.962   4.696  18.480  0.00  0.00    +0.000 N 
ATOM      9  C   UNL     1       2.936   4.242  19.345  0.00  0.00    +0.000 A 
ATOM     10  C   UNL     1       2.084   4.995  20.109  0.00  0.00    +0.000 A 
ATOM     11  C   UNL     1       0.991   4.308  20.623  0.00  0.00    +0.000 A 
ATOM     12  C   UNL     1       0.823   2.931  20.354  0.00  0.00    +0.000 A 
ATOM     13  C   UNL     1       1.758   2.202  19.590  0.00  0.00    +0.000 A 
ATOM     14  C   UNL     1       2.850   2.866  19.063  0.00  0.00    +0.000 A 
ATOM     15  N   UNL     1       3.787   2.416  18.176  0.00  0.00    +0.000 NA
ATOM     16  N   UNL     1       4.447   3.661  17.849  0.00  0.00    +0.000 N 
ENDROOT
TORSDOF 0
ENDMDL
