MODEL 1
REMARK VINA RESULT:      -8.6      0.000      0.000
REMARK  Name = 
REMARK  8 active torsions:
REMARK  status: ('A' for Active; 'I' for Inactive)
REMARK    1  A    between atoms: C_1  and  O_2
REMARK    2  A    between atoms: O_2  and  C_3
REMARK    3  A    between atoms: C_9  and  N_10
REMARK    4  A    between atoms: N_10  and  C_11
REMARK    5  A    between atoms: N_10  and  S_22
REMARK    6  A    between atoms: C_11  and  C_12
REMARK    7  A    between atoms: N_14  and  C_15
REMARK    8  A    between atoms: S_22  and  C_25
REMARK                            x       y       z     vdW  Elec       q    Type
REMARK                         _______ _______ _______ _____ _____    ______ ____
ROOT
ATOM      1  N   UNL     1       4.113   4.645  17.543  0.00  0.00    +0.000 N 
ENDROOT
BRANCH   1   8
ATOM      2  C   UNL     1       6.424   5.410  16.857  0.00  0.00    +0.000 A 
ATOM      3  C   UNL     1       7.406   5.462  15.850  0.00  0.00    +0.000 A 
ATOM      4  C   UNL     1       7.174   4.898  14.596  0.00  0.00    +0.000 A 
ATOM      5  C   UNL     1       5.962   4.263  14.342  0.00  0.00    +0.000 A 
ATOM      6 CL   UNL     1       5.665   3.608  12.781  0.00  0.00    +0.000 Cl
ATOM      7  C   UNL     1       4.987   4.172  15.338  0.00  0.00    +0.000 A 
ATOM      8  C   UNL     1       5.202   4.743  16.596  0.00  0.00    +0.000 A 
BRANCH   2  10
ATOM      9  C   UNL     1       7.784   5.635  18.795  0.00  0.00    +0.000 C 
ATOM     10  O   UNL     1       6.589   5.986  18.094  0.00  0.00    +0.000 OA
ENDBRANCH   2  10
ENDBRANCH   1   8
BRANCH   1  11
ATOM     11  S   UNL     1       3.236   3.200  17.641  0.00  0.00    +0.000 S 
ATOM     12  O   UNL     1       2.099   3.333  16.746  0.00  0.00    +0.000 OA
ATOM     13  O   UNL     1       4.145   2.090  17.498  0.00  0.00    +0.000 OA
BRANCH  11  14
ATOM     14  C   UNL     1       2.562   3.116  19.291  0.00  0.00    +0.000 A 
ATOM     15  C   UNL     1       1.201   3.375  19.512  0.00  0.00    +0.000 A 
ATOM     16  C   UNL     1       0.656   3.173  20.782  0.00  0.00    +0.000 A 
ATOM     17  C   UNL     1       1.457   2.700  21.821  0.00  0.00    +0.000 A 
ATOM     18  C   UNL     1       2.803   2.414  21.593  0.00  0.00    +0.000 A 
ATOM     19  C   UNL     1       3.357   2.612  20.328  0.00  0.00    +0.000 A 
ENDBRANCH  11  14
ENDBRANCH   1  11
BRANCH   1  20
ATOM     20  C   UNL     1       4.079   5.574  18.685  0.00  0.00    +0.000 C 
BRANCH  20  21
ATOM     21  C   UNL     1       2.860   6.508  18.733  0.00  0.00    +0.000 C 
ATOM     22  O   UNL     1       2.205   6.691  17.704  0.00  0.00    +0.000 OA
ATOM     23  N   UNL     1       2.636   7.210  19.911  0.00  0.00    +0.000 N 
ATOM     24  H   UNL     1       3.412   7.256  20.574  0.00  0.00    +0.000 HD
BRANCH  23  25
ATOM     25  C   UNL     1       1.625   8.194  20.040  0.00  0.00    +0.000 A 
ATOM     26  C   UNL     1       1.446   9.201  19.082  0.00  0.00    +0.000 A 
ATOM     27  C   UNL     1       0.515  10.223  19.288  0.00  0.00    +0.000 A 
ATOM     28  C   UNL     1      -0.230  10.251  20.463  0.00  0.00    +0.000 A 
ATOM     29 CL   UNL     1      -1.301  11.564  20.768  0.00  0.00    +0.000 Cl
ATOM     30  C   UNL     1      -0.098   9.229  21.401  0.00  0.00    +0.000 A 
ATOM     31  C   UNL     1       0.806   8.182  21.174  0.00  0.00    +0.000 A 
ENDBRANCH  23  25
ENDBRANCH  20  21
ENDBRANCH   1  20
TORSDOF 7
ENDMDL
MODEL 2
REMARK VINA RESULT:      -8.4      0.324      1.286
REMARK  Name = 
REMARK  8 active torsions:
REMARK  status: ('A' for Active; 'I' for Inactive)
REMARK    1  A    between atoms: C_1  and  O_2
REMARK    2  A    between atoms: O_2  and  C_3
REMARK    3  A    between atoms: C_9  and  N_10
REMARK    4  A    between atoms: N_10  and  C_11
REMARK    5  A    between atoms: N_10  and  S_22
REMARK    6  A    between atoms: C_11  and  C_12
REMARK    7  A    between atoms: N_14  and  C_15
REMARK    8  A    between atoms: S_22  and  C_25
REMARK                            x       y       z     vdW  Elec       q    Type
REMARK                         _______ _______ _______ _____ _____    ______ ____
ROOT
ATOM      1  N   UNL     1       3.982   4.483  17.691  0.00  0.00    +0.000 N 
ENDROOT
BRANCH   1   8
ATOM      2  C   UNL     1       6.353   5.209  17.191  0.00  0.00    +0.000 A 
ATOM      3  C   UNL     1       7.394   5.293  16.248  0.00  0.00    +0.000 A 
ATOM      4  C   UNL     1       7.217   4.824  14.946  0.00  0.00    +0.000 A 
ATOM      5  C   UNL     1       6.003   4.252  14.580  0.00  0.00    +0.000 A 
ATOM      6 CL   UNL     1       5.778   3.715  12.963  0.00  0.00    +0.000 Cl
ATOM      7  C   UNL     1       4.969   4.128  15.511  0.00  0.00    +0.000 A 
ATOM      8  C   UNL     1       5.127   4.605  16.817  0.00  0.00    +0.000 A 
BRANCH   2  10
ATOM      9  C   UNL     1       7.782   6.034  18.904  0.00  0.00    +0.000 C 
ATOM     10  O   UNL     1       6.463   5.694  18.472  0.00  0.00    +0.000 OA
ENDBRANCH   2  10
ENDBRANCH   1   8
BRANCH   1  11
ATOM     11  S   UNL     1       3.073   3.055  17.660  0.00  0.00    +0.000 S 
ATOM     12  O   UNL     1       1.922   3.304  16.808  0.00  0.00    +0.000 OA
ATOM     13  O   UNL     1       3.951   1.946  17.384  0.00  0.00    +0.000 OA
BRANCH  11  14
ATOM     14  C   UNL     1       2.428   2.817  19.307  0.00  0.00    +0.000 A 
ATOM     15  C   UNL     1       3.292   2.493  20.363  0.00  0.00    +0.000 A 
ATOM     16  C   UNL     1       2.799   2.444  21.669  0.00  0.00    +0.000 A 
ATOM     17  C   UNL     1       1.458   2.733  21.924  0.00  0.00    +0.000 A 
ATOM     18  C   UNL     1       0.607   3.084  20.876  0.00  0.00    +0.000 A 
ATOM     19  C   UNL     1       1.090   3.136  19.567  0.00  0.00    +0.000 A 
ENDBRANCH  11  14
ENDBRANCH   1  11
BRANCH   1  20
ATOM     20  C   UNL     1       3.898   5.351  18.878  0.00  0.00    +0.000 C 
BRANCH  20  21
ATOM     21  C   UNL     1       2.784   6.409  18.836  0.00  0.00    +0.000 C 
ATOM     22  O   UNL     1       2.225   6.648  17.763  0.00  0.00    +0.000 OA
ATOM     23  N   UNL     1       2.555   7.143  19.994  0.00  0.00    +0.000 N 
ATOM     24  H   UNL     1       3.285   7.115  20.709  0.00  0.00    +0.000 HD
BRANCH  23  25
ATOM     25  C   UNL     1       1.648   8.230  20.047  0.00  0.00    +0.000 A 
ATOM     26  C   UNL     1       0.810   8.442  21.149  0.00  0.00    +0.000 A 
ATOM     27  C   UNL     1      -0.152   9.457  21.129  0.00  0.00    +0.000 A 
ATOM     28  C   UNL     1      -0.290  10.254  19.997  0.00  0.00    +0.000 A 
ATOM     29 CL   UNL     1      -1.541  11.434  19.928  0.00  0.00    +0.000 Cl
ATOM     30  C   UNL     1       0.570  10.086  18.913  0.00  0.00    +0.000 A 
ATOM     31  C   UNL     1       1.562   9.096  18.952  0.00  0.00    +0.000 A 
ENDBRANCH  23  25
ENDBRANCH  20  21
ENDBRANCH   1  20
TORSDOF 7
ENDMDL
MODEL 3
REMARK VINA RESULT:      -8.1      1.146      1.563
REMARK  Name = 
REMARK  8 active torsions:
REMARK  status: ('A' for Active; 'I' for Inactive)
REMARK    1  A    between atoms: C_1  and  O_2
REMARK    2  A    between atoms: O_2  and  C_3
REMARK    3  A    between atoms: C_9  and  N_10
REMARK    4  A    between atoms: N_10  and  C_11
REMARK    5  A    between atoms: N_10  and  S_22
REMARK    6  A    between atoms: C_11  and  C_12
REMARK    7  A    between atoms: N_14  and  C_15
REMARK    8  A    between atoms: S_22  and  C_25
REMARK                            x       y       z     vdW  Elec       q    Type
REMARK                         _______ _______ _______ _____ _____    ______ ____
ROOT
ATOM      1  N   UNL     1       4.802   4.082  18.373  0.00  0.00    +0.000 N 
ENDROOT
BRANCH   1   8
ATOM      2  C   UNL     1       7.014   4.607  17.266  0.00  0.00    +0.000 A 
ATOM      3  C   UNL     1       7.735   4.753  16.066  0.00  0.00    +0.000 A 
ATOM      4  C   UNL     1       7.111   4.577  14.831  0.00  0.00    +0.000 A 
ATOM      5  C   UNL     1       5.762   4.237  14.786  0.00  0.00    +0.000 A 
ATOM      6 CL   UNL     1       4.988   4.064  13.261  0.00  0.00    +0.000 Cl
ATOM      7  C   UNL     1       5.037   4.055  15.965  0.00  0.00    +0.000 A 
ATOM      8  C   UNL     1       5.648   4.240  17.210  0.00  0.00    +0.000 A 
BRANCH   2  10
ATOM      9  C   UNL     1       7.906   6.162  18.830  0.00  0.00    +0.000 C 
ATOM     10  O   UNL     1       7.573   4.810  18.504  0.00  0.00    +0.000 OA
ENDBRANCH   2  10
ENDBRANCH   1   8
BRANCH   1  11
ATOM     11  S   UNL     1       4.407   2.521  18.896  0.00  0.00    +0.000 S 
ATOM     12  O   UNL     1       4.368   1.675  17.716  0.00  0.00    +0.000 OA
ATOM     13  O   UNL     1       5.252   2.172  20.010  0.00  0.00    +0.000 OA
BRANCH  11  14
ATOM     14  C   UNL     1       2.732   2.591  19.511  0.00  0.00    +0.000 A 
ATOM     15  C   UNL     1       2.490   2.745  20.883  0.00  0.00    +0.000 A 
ATOM     16  C   UNL     1       1.183   2.936  21.338  0.00  0.00    +0.000 A 
ATOM     17  C   UNL     1       0.126   2.991  20.429  0.00  0.00    +0.000 A 
ATOM     18  C   UNL     1       0.373   2.868  19.061  0.00  0.00    +0.000 A 
ATOM     19  C   UNL     1       1.674   2.677  18.597  0.00  0.00    +0.000 A 
ENDBRANCH  11  14
ENDBRANCH   1  11
BRANCH   1  20
ATOM     20  C   UNL     1       4.686   5.200  19.325  0.00  0.00    +0.000 C 
BRANCH  20  21
ATOM     21  C   UNL     1       3.763   6.345  18.881  0.00  0.00    +0.000 C 
ATOM     22  O   UNL     1       4.005   6.934  17.824  0.00  0.00    +0.000 OA
ATOM     23  N   UNL     1       2.772   6.749  19.767  0.00  0.00    +0.000 N 
ATOM     24  H   UNL     1       2.868   6.440  20.737  0.00  0.00    +0.000 HD
BRANCH  23  25
ATOM     25  C   UNL     1       1.942   7.872  19.532  0.00  0.00    +0.000 A 
ATOM     26  C   UNL     1       1.821   8.451  18.262  0.00  0.00    +0.000 A 
ATOM     27  C   UNL     1       1.083   9.625  18.081  0.00  0.00    +0.000 A 
ATOM     28  C   UNL     1       0.475  10.233  19.175  0.00  0.00    +0.000 A 
ATOM     29 CL   UNL     1      -0.347  11.732  18.974  0.00  0.00    +0.000 Cl
ATOM     30  C   UNL     1       0.545   9.640  20.434  0.00  0.00    +0.000 A 
ATOM     31  C   UNL     1       1.251   8.441  20.606  0.00  0.00    +0.000 A 
ENDBRANCH  23  25
ENDBRANCH  20  21
ENDBRANCH   1  20
TORSDOF 7
ENDMDL
MODEL 4
REMARK VINA RESULT:      -8.0      0.845      1.244
REMARK  Name = 
REMARK  8 active torsions:
REMARK  status: ('A' for Active; 'I' for Inactive)
REMARK    1  A    between atoms: C_1  and  O_2
REMARK    2  A    between atoms: O_2  and  C_3
REMARK    3  A    between atoms: C_9  and  N_10
REMARK    4  A    between atoms: N_10  and  C_11
REMARK    5  A    between atoms: N_10  and  S_22
REMARK    6  A    between atoms: C_11  and  C_12
REMARK    7  A    between atoms: N_14  and  C_15
REMARK    8  A    between atoms: S_22  and  C_25
REMARK                            x       y       z     vdW  Elec       q    Type
REMARK                         _______ _______ _______ _____ _____    ______ ____
ROOT
ATOM      1  N   UNL     1       3.693   5.018  17.724  0.00  0.00    +0.000 N 
ENDROOT
BRANCH   1   8
ATOM      2  C   UNL     1       6.216   4.979  17.556  0.00  0.00    +0.000 A 
ATOM      3  C   UNL     1       7.348   4.768  16.746  0.00  0.00    +0.000 A 
ATOM      4  C   UNL     1       7.210   4.431  15.400  0.00  0.00    +0.000 A 
ATOM      5  C   UNL     1       5.938   4.286  14.854  0.00  0.00    +0.000 A 
ATOM      6 CL   UNL     1       5.775   3.912  13.184  0.00  0.00    +0.000 Cl
ATOM      7  C   UNL     1       4.803   4.457  15.649  0.00  0.00    +0.000 A 
ATOM      8  C   UNL     1       4.926   4.808  16.998  0.00  0.00    +0.000 A 
BRANCH   2  10
ATOM      9  C   UNL     1       7.605   5.683  19.354  0.00  0.00    +0.000 C 
ATOM     10  O   UNL     1       6.299   5.353  18.875  0.00  0.00    +0.000 OA
ENDBRANCH   2  10
ENDBRANCH   1   8
BRANCH   1  11
ATOM     11  S   UNL     1       2.484   3.834  17.652  0.00  0.00    +0.000 S 
ATOM     12  O   UNL     1       1.243   4.515  17.326  0.00  0.00    +0.000 OA
ATOM     13  O   UNL     1       2.947   2.741  16.835  0.00  0.00    +0.000 OA
BRANCH  11  14
ATOM     14  C   UNL     1       2.282   3.201  19.309  0.00  0.00    +0.000 A 
ATOM     15  C   UNL     1       3.371   2.631  19.984  0.00  0.00    +0.000 A 
ATOM     16  C   UNL     1       3.237   2.265  21.326  0.00  0.00    +0.000 A 
ATOM     17  C   UNL     1       2.032   2.482  21.995  0.00  0.00    +0.000 A 
ATOM     18  C   UNL     1       0.960   3.077  21.330  0.00  0.00    +0.000 A 
ATOM     19  C   UNL     1       1.083   3.446  19.990  0.00  0.00    +0.000 A 
ENDBRANCH  11  14
ENDBRANCH   1  11
BRANCH   1  20
ATOM     20  C   UNL     1       3.681   5.976  18.842  0.00  0.00    +0.000 C 
BRANCH  20  21
ATOM     21  C   UNL     1       2.752   7.185  18.658  0.00  0.00    +0.000 C 
ATOM     22  O   UNL     1       2.761   7.790  17.583  0.00  0.00    +0.000 OA
ATOM     23  N   UNL     1       2.040   7.621  19.769  0.00  0.00    +0.000 N 
ATOM     24  H   UNL     1       2.354   7.280  20.680  0.00  0.00    +0.000 HD
BRANCH  23  25
ATOM     25  C   UNL     1       1.251   8.797  19.764  0.00  0.00    +0.000 A 
ATOM     26  C   UNL     1       1.031   9.536  18.595  0.00  0.00    +0.000 A 
ATOM     27  C   UNL     1       0.341  10.752  18.638  0.00  0.00    +0.000 A 
ATOM     28  C   UNL     1      -0.118  11.241  19.858  0.00  0.00    +0.000 A 
ATOM     29 CL   UNL     1      -0.875  12.785  19.931  0.00  0.00    +0.000 Cl
ATOM     30  C   UNL     1       0.051  10.492  21.021  0.00  0.00    +0.000 A 
ATOM     31  C   UNL     1       0.706   9.254  20.969  0.00  0.00    +0.000 A 
ENDBRANCH  23  25
ENDBRANCH  20  21
ENDBRANCH   1  20
TORSDOF 7
ENDMDL
MODEL 5
REMARK VINA RESULT:      -8.0      1.347      1.539
REMARK  Name = 
REMARK  8 active torsions:
REMARK  status: ('A' for Active; 'I' for Inactive)
REMARK    1  A    between atoms: C_1  and  O_2
REMARK    2  A    between atoms: O_2  and  C_3
REMARK    3  A    between atoms: C_9  and  N_10
REMARK    4  A    between atoms: N_10  and  C_11
REMARK    5  A    between atoms: N_10  and  S_22
REMARK    6  A    between atoms: C_11  and  C_12
REMARK    7  A    between atoms: N_14  and  C_15
REMARK    8  A    between atoms: S_22  and  C_25
REMARK                            x       y       z     vdW  Elec       q    Type
REMARK                         _______ _______ _______ _____ _____    ______ ____
ROOT
ATOM      1  N   UNL     1       3.580   5.152  17.593  0.00  0.00    +0.000 N 
ENDROOT
BRANCH   1   8
ATOM      2  C   UNL     1       6.096   4.898  17.536  0.00  0.00    +0.000 A 
ATOM      3  C   UNL     1       7.243   4.623  16.769  0.00  0.00    +0.000 A 
ATOM      4  C   UNL     1       7.143   4.358  15.403  0.00  0.00    +0.000 A 
ATOM      5  C   UNL     1       5.891   4.350  14.795  0.00  0.00    +0.000 A 
ATOM      6 CL   UNL     1       5.779   4.065  13.103  0.00  0.00    +0.000 Cl
ATOM      7  C   UNL     1       4.738   4.587  15.545  0.00  0.00    +0.000 A 
ATOM      8  C   UNL     1       4.824   4.866  16.913  0.00  0.00    +0.000 A 
BRANCH   2  10
ATOM      9  C   UNL     1       7.391   5.717  19.355  0.00  0.00    +0.000 C 
ATOM     10  O   UNL     1       6.146   5.205  18.874  0.00  0.00    +0.000 OA
ENDBRANCH   2  10
ENDBRANCH   1   8
BRANCH   1  11
ATOM     11  S   UNL     1       2.394   3.948  17.678  0.00  0.00    +0.000 S 
ATOM     12  O   UNL     1       1.126   4.577  17.351  0.00  0.00    +0.000 OA
ATOM     13  O   UNL     1       2.842   2.795  16.938  0.00  0.00    +0.000 OA
BRANCH  11  14
ATOM     14  C   UNL     1       2.277   3.458  19.391  0.00  0.00    +0.000 A 
ATOM     15  C   UNL     1       1.048   3.526  20.062  0.00  0.00    +0.000 A 
ATOM     16  C   UNL     1       0.938   3.013  21.356  0.00  0.00    +0.000 A 
ATOM     17  C   UNL     1       2.041   2.421  21.972  0.00  0.00    +0.000 A 
ATOM     18  C   UNL     1       3.255   2.327  21.291  0.00  0.00    +0.000 A 
ATOM     19  C   UNL     1       3.376   2.836  19.997  0.00  0.00    +0.000 A 
ENDBRANCH  11  14
ENDBRANCH   1  11
BRANCH   1  20
ATOM     20  C   UNL     1       3.540   6.258  18.565  0.00  0.00    +0.000 C 
BRANCH  20  21
ATOM     21  C   UNL     1       2.825   7.529  18.080  0.00  0.00    +0.000 C 
ATOM     22  O   UNL     1       3.063   7.955  16.947  0.00  0.00    +0.000 OA
ATOM     23  N   UNL     1       2.043   8.214  19.002  0.00  0.00    +0.000 N 
ATOM     24  H   UNL     1       2.182   7.982  19.987  0.00  0.00    +0.000 HD
BRANCH  23  25
ATOM     25  C   UNL     1       1.438   9.463  18.718  0.00  0.00    +0.000 A 
ATOM     26  C   UNL     1       2.193  10.630  18.545  0.00  0.00    +0.000 A 
ATOM     27  C   UNL     1       1.565  11.868  18.377  0.00  0.00    +0.000 A 
ATOM     28  C   UNL     1       0.175  11.945  18.396  0.00  0.00    +0.000 A 
ATOM     29 CL   UNL     1      -0.599  13.478  18.293  0.00  0.00    +0.000 Cl
ATOM     30  C   UNL     1      -0.588  10.785  18.517  0.00  0.00    +0.000 A 
ATOM     31  C   UNL     1       0.043   9.540  18.644  0.00  0.00    +0.000 A 
ENDBRANCH  23  25
ENDBRANCH  20  21
ENDBRANCH   1  20
TORSDOF 7
ENDMDL
MODEL 6
REMARK VINA RESULT:      -8.0      0.947      1.167
REMARK  Name = 
REMARK  8 active torsions:
REMARK  status: ('A' for Active; 'I' for Inactive)
REMARK    1  A    between atoms: C_1  and  O_2
REMARK    2  A    between atoms: O_2  and  C_3
REMARK    3  A    between atoms: C_9  and  N_10
REMARK    4  A    between atoms: N_10  and  C_11
REMARK    5  A    between atoms: N_10  and  S_22
REMARK    6  A    between atoms: C_11  and  C_12
REMARK    7  A    between atoms: N_14  and  C_15
REMARK    8  A    between atoms: S_22  and  C_25
REMARK                            x       y       z     vdW  Elec       q    Type
REMARK                         _______ _______ _______ _____ _____    ______ ____
ROOT
ATOM      1  N   UNL     1       4.713   4.268  18.245  0.00  0.00    +0.000 N 
ENDROOT
BRANCH   1   8
ATOM      2  C   UNL     1       6.962   4.707  17.175  0.00  0.00    +0.000 A 
ATOM      3  C   UNL     1       7.713   4.800  15.988  0.00  0.00    +0.000 A 
ATOM      4  C   UNL     1       7.113   4.602  14.745  0.00  0.00    +0.000 A 
ATOM      5  C   UNL     1       5.757   4.293  14.678  0.00  0.00    +0.000 A 
ATOM      6 CL   UNL     1       5.014   4.093  13.141  0.00  0.00    +0.000 Cl
ATOM      7  C   UNL     1       5.002   4.163  15.845  0.00  0.00    +0.000 A 
ATOM      8  C   UNL     1       5.588   4.371  17.098  0.00  0.00    +0.000 A 
BRANCH   2  10
ATOM      9  C   UNL     1       7.888   6.279  18.701  0.00  0.00    +0.000 C 
ATOM     10  O   UNL     1       7.498   4.933  18.420  0.00  0.00    +0.000 OA
ENDBRANCH   2  10
ENDBRANCH   1   8
BRANCH   1  11
ATOM     11  S   UNL     1       4.331   2.735  18.853  0.00  0.00    +0.000 S 
ATOM     12  O   UNL     1       4.194   1.847  17.711  0.00  0.00    +0.000 OA
ATOM     13  O   UNL     1       5.249   2.410  19.916  0.00  0.00    +0.000 OA
BRANCH  11  14
ATOM     14  C   UNL     1       2.707   2.859  19.582  0.00  0.00    +0.000 A 
ATOM     15  C   UNL     1       1.564   2.814  18.772  0.00  0.00    +0.000 A 
ATOM     16  C   UNL     1       0.298   2.774  19.362  0.00  0.00    +0.000 A 
ATOM     17  C   UNL     1       0.173   2.760  20.751  0.00  0.00    +0.000 A 
ATOM     18  C   UNL     1       1.312   2.774  21.556  0.00  0.00    +0.000 A 
ATOM     19  C   UNL     1       2.581   2.815  20.976  0.00  0.00    +0.000 A 
ENDBRANCH  11  14
ENDBRANCH   1  11
BRANCH   1  20
ATOM     20  C   UNL     1       4.551   5.440  19.122  0.00  0.00    +0.000 C 
BRANCH  20  21
ATOM     21  C   UNL     1       3.255   6.239  18.915  0.00  0.00    +0.000 C 
ATOM     22  O   UNL     1       2.577   6.029  17.906  0.00  0.00    +0.000 OA
ATOM     23  N   UNL     1       2.980   7.259  19.817  0.00  0.00    +0.000 N 
ATOM     24  H   UNL     1       3.756   7.577  20.402  0.00  0.00    +0.000 HD
BRANCH  23  25
ATOM     25  C   UNL     1       1.888   8.148  19.663  0.00  0.00    +0.000 A 
ATOM     26  C   UNL     1       1.677   8.863  18.477  0.00  0.00    +0.000 A 
ATOM     27  C   UNL     1       0.657   9.816  18.390  0.00  0.00    +0.000 A 
ATOM     28  C   UNL     1      -0.147  10.069  19.498  0.00  0.00    +0.000 A 
ATOM     29 CL   UNL     1      -1.334  11.312  19.429  0.00  0.00    +0.000 Cl
ATOM     30  C   UNL     1       0.021   9.329  20.668  0.00  0.00    +0.000 A 
ATOM     31  C   UNL     1       1.017   8.345  20.739  0.00  0.00    +0.000 A 
ENDBRANCH  23  25
ENDBRANCH  20  21
ENDBRANCH   1  20
TORSDOF 7
ENDMDL
MODEL 7
REMARK VINA RESULT:      -7.8      2.216      3.021
REMARK  Name = 
REMARK  8 active torsions:
REMARK  status: ('A' for Active; 'I' for Inactive)
REMARK    1  A    between atoms: C_1  and  O_2
REMARK    2  A    between atoms: O_2  and  C_3
REMARK    3  A    between atoms: C_9  and  N_10
REMARK    4  A    between atoms: N_10  and  C_11
REMARK    5  A    between atoms: N_10  and  S_22
REMARK    6  A    between atoms: C_11  and  C_12
REMARK    7  A    between atoms: N_14  and  C_15
REMARK    8  A    between atoms: S_22  and  C_25
REMARK                            x       y       z     vdW  Elec       q    Type
REMARK                         _______ _______ _______ _____ _____    ______ ____
ROOT
ATOM      1  N   UNL     1       3.600   5.770  18.319  0.00  0.00    +0.000 N 
ENDROOT
BRANCH   1   8
ATOM      2  C   UNL     1       5.671   6.254  16.951  0.00  0.00    +0.000 A 
ATOM      3  C   UNL     1       7.075   6.343  16.916  0.00  0.00    +0.000 A 
ATOM      4  C   UNL     1       7.837   6.065  18.051  0.00  0.00    +0.000 A 
ATOM      5  C   UNL     1       7.201   5.709  19.236  0.00  0.00    +0.000 A 
ATOM      6 CL   UNL     1       8.148   5.326  20.618  0.00  0.00    +0.000 Cl
ATOM      7  C   UNL     1       5.807   5.648  19.301  0.00  0.00    +0.000 A 
ATOM      8  C   UNL     1       5.031   5.913  18.168  0.00  0.00    +0.000 A 
BRANCH   2  10
ATOM      9  C   UNL     1       5.215   5.740  14.674  0.00  0.00    +0.000 C 
ATOM     10  O   UNL     1       4.879   6.478  15.852  0.00  0.00    +0.000 OA
ENDBRANCH   2  10
ENDBRANCH   1   8
BRANCH   1  11
ATOM     11  S   UNL     1       2.864   4.320  17.847  0.00  0.00    +0.000 S 
ATOM     12  O   UNL     1       1.590   4.669  17.241  0.00  0.00    +0.000 OA
ATOM     13  O   UNL     1       3.820   3.525  17.118  0.00  0.00    +0.000 OA
BRANCH  11  14
ATOM     14  C   UNL     1       2.473   3.428  19.343  0.00  0.00    +0.000 A 
ATOM     15  C   UNL     1       3.492   2.820  20.089  0.00  0.00    +0.000 A 
ATOM     16  C   UNL     1       3.194   2.243  21.326  0.00  0.00    +0.000 A 
ATOM     17  C   UNL     1       1.892   2.289  21.825  0.00  0.00    +0.000 A 
ATOM     18  C   UNL     1       0.885   2.923  21.096  0.00  0.00    +0.000 A 
ATOM     19  C   UNL     1       1.172   3.501  19.859  0.00  0.00    +0.000 A 
ENDBRANCH  11  14
ENDBRANCH   1  11
BRANCH   1  20
ATOM     20  C   UNL     1       2.894   6.647  19.269  0.00  0.00    +0.000 C 
BRANCH  20  21
ATOM     21  C   UNL     1       2.310   7.933  18.664  0.00  0.00    +0.000 C 
ATOM     22  O   UNL     1       2.593   8.229  17.500  0.00  0.00    +0.000 OA
ATOM     23  N   UNL     1       1.595   8.771  19.510  0.00  0.00    +0.000 N 
ATOM     24  H   UNL     1       1.707   8.616  20.514  0.00  0.00    +0.000 HD
BRANCH  23  25
ATOM     25  C   UNL     1       1.117  10.043  19.108  0.00  0.00    +0.000 A 
ATOM     26  C   UNL     1       1.976  11.134  18.927  0.00  0.00    +0.000 A 
ATOM     27  C   UNL     1       1.466  12.403  18.638  0.00  0.00    +0.000 A 
ATOM     28  C   UNL     1       0.089  12.589  18.544  0.00  0.00    +0.000 A 
ATOM     29 CL   UNL     1      -0.547  14.167  18.291  0.00  0.00    +0.000 Cl
ATOM     30  C   UNL     1      -0.773  11.502  18.672  0.00  0.00    +0.000 A 
ATOM     31  C   UNL     1      -0.258  10.222  18.921  0.00  0.00    +0.000 A 
ENDBRANCH  23  25
ENDBRANCH  20  21
ENDBRANCH   1  20
TORSDOF 7
ENDMDL
MODEL 8
REMARK VINA RESULT:      -7.8      5.342     10.802
REMARK  Name = 
REMARK  8 active torsions:
REMARK  status: ('A' for Active; 'I' for Inactive)
REMARK    1  A    between atoms: C_1  and  O_2
REMARK    2  A    between atoms: O_2  and  C_3
REMARK    3  A    between atoms: C_9  and  N_10
REMARK    4  A    between atoms: N_10  and  C_11
REMARK    5  A    between atoms: N_10  and  S_22
REMARK    6  A    between atoms: C_11  and  C_12
REMARK    7  A    between atoms: N_14  and  C_15
REMARK    8  A    between atoms: S_22  and  C_25
REMARK                            x       y       z     vdW  Elec       q    Type
REMARK                         _______ _______ _______ _____ _____    ______ ____
ROOT
ATOM      1  N   UNL     1      -0.235  13.090  19.813  0.00  0.00    +0.000 N 
ENDROOT
BRANCH   1   8
ATOM      2  C   UNL     1      -2.078  13.096  21.544  0.00  0.00    +0.000 A 
ATOM      3  C   UNL     1      -2.625  12.501  22.697  0.00  0.00    +0.000 A 
ATOM      4  C   UNL     1      -2.000  11.411  23.303  0.00  0.00    +0.000 A 
ATOM      5  C   UNL     1      -0.830  10.897  22.754  0.00  0.00    +0.000 A 
ATOM      6 CL   UNL     1      -0.042   9.582  23.531  0.00  0.00    +0.000 Cl
ATOM      7  C   UNL     1      -0.289  11.451  21.592  0.00  0.00    +0.000 A 
ATOM      8  C   UNL     1      -0.899  12.551  20.979  0.00  0.00    +0.000 A 
BRANCH   2  10
ATOM      9  C   UNL     1      -4.052  14.169  20.763  0.00  0.00    +0.000 C 
ATOM     10  O   UNL     1      -2.632  14.195  20.934  0.00  0.00    +0.000 OA
ENDBRANCH   2  10
ENDBRANCH   1   8
BRANCH   1  11
ATOM     11  S   UNL     1       1.117  14.087  20.023  0.00  0.00    +0.000 S 
ATOM     12  O   UNL     1       1.066  14.589  21.386  0.00  0.00    +0.000 OA
ATOM     13  O   UNL     1       2.289  13.393  19.551  0.00  0.00    +0.000 OA
BRANCH  11  14
ATOM     14  C   UNL     1       0.884  15.504  18.964  0.00  0.00    +0.000 A 
ATOM     15  C   UNL     1      -0.394  16.056  18.795  0.00  0.00    +0.000 A 
ATOM     16  C   UNL     1      -0.544  17.244  18.075  0.00  0.00    +0.000 A 
ATOM     17  C   UNL     1       0.574  17.887  17.542  0.00  0.00    +0.000 A 
ATOM     18  C   UNL     1       1.847  17.352  17.737  0.00  0.00    +0.000 A 
ATOM     19  C   UNL     1       2.008  16.166  18.454  0.00  0.00    +0.000 A 
ENDBRANCH  11  14
ENDBRANCH   1  11
BRANCH   1  20
ATOM     20  C   UNL     1      -0.430  12.424  18.514  0.00  0.00    +0.000 C 
BRANCH  20  21
ATOM     21  C   UNL     1      -0.089  10.926  18.487  0.00  0.00    +0.000 C 
ATOM     22  O   UNL     1      -0.998  10.108  18.329  0.00  0.00    +0.000 OA
ATOM     23  N   UNL     1       1.220  10.562  18.780  0.00  0.00    +0.000 N 
ATOM     24  H   UNL     1       1.805  11.270  19.228  0.00  0.00    +0.000 HD
BRANCH  23  25
ATOM     25  C   UNL     1       1.630   9.213  18.914  0.00  0.00    +0.000 A 
ATOM     26  C   UNL     1       1.440   8.495  20.101  0.00  0.00    +0.000 A 
ATOM     27  C   UNL     1       1.953   7.202  20.243  0.00  0.00    +0.000 A 
ATOM     28  C   UNL     1       2.674   6.628  19.200  0.00  0.00    +0.000 A 
ATOM     29 CL   UNL     1       3.396   5.079  19.409  0.00  0.00    +0.000 Cl
ATOM     30  C   UNL     1       2.828   7.311  17.996  0.00  0.00    +0.000 A 
ATOM     31  C   UNL     1       2.277   8.591  17.840  0.00  0.00    +0.000 A 
ENDBRANCH  23  25
ENDBRANCH  20  21
ENDBRANCH   1  20
TORSDOF 7
ENDMDL
MODEL 9
REMARK VINA RESULT:      -7.8      5.633     10.114
REMARK  Name = 
REMARK  8 active torsions:
REMARK  status: ('A' for Active; 'I' for Inactive)
REMARK    1  A    between atoms: C_1  and  O_2
REMARK    2  A    between atoms: O_2  and  C_3
REMARK    3  A    between atoms: C_9  and  N_10
REMARK    4  A    between atoms: N_10  and  C_11
REMARK    5  A    between atoms: N_10  and  S_22
REMARK    6  A    between atoms: C_11  and  C_12
REMARK    7  A    between atoms: N_14  and  C_15
REMARK    8  A    between atoms: S_22  and  C_25
REMARK                            x       y       z     vdW  Elec       q    Type
REMARK                         _______ _______ _______ _____ _____    ______ ____
ROOT
ATOM      1  N   UNL     1       0.289  13.794  19.516  0.00  0.00    +0.000 N 
ENDROOT
BRANCH   1   8
ATOM      2  C   UNL     1       2.043  15.368  18.598  0.00  0.00    +0.000 A 
ATOM      3  C   UNL     1       2.329  16.623  18.027  0.00  0.00    +0.000 A 
ATOM      4  C   UNL     1       1.314  17.553  17.801  0.00  0.00    +0.000 A 
ATOM      5  C   UNL     1       0.001  17.230  18.129  0.00  0.00    +0.000 A 
ATOM      6 CL   UNL     1      -1.238  18.397  17.887  0.00  0.00    +0.000 Cl
ATOM      7  C   UNL     1      -0.308  15.978  18.665  0.00  0.00    +0.000 A 
ATOM      8  C   UNL     1       0.701  15.040  18.908  0.00  0.00    +0.000 A 
BRANCH   2  10
ATOM      9  C   UNL     1       3.932  14.777  19.917  0.00  0.00    +0.000 C 
ATOM     10  O   UNL     1       3.012  14.435  18.878  0.00  0.00    +0.000 OA
ENDBRANCH   2  10
ENDBRANCH   1   8
BRANCH   1  11
ATOM     11  S   UNL     1       0.439  13.608  21.192  0.00  0.00    +0.000 S 
ATOM     12  O   UNL     1       1.268  12.435  21.416  0.00  0.00    +0.000 OA
ATOM     13  O   UNL     1       0.805  14.875  21.773  0.00  0.00    +0.000 OA
BRANCH  11  14
ATOM     14  C   UNL     1      -1.183  13.195  21.813  0.00  0.00    +0.000 A 
ATOM     15  C   UNL     1      -1.351  12.103  22.676  0.00  0.00    +0.000 A 
ATOM     16  C   UNL     1      -2.597  11.872  23.263  0.00  0.00    +0.000 A 
ATOM     17  C   UNL     1      -3.664  12.733  23.006  0.00  0.00    +0.000 A 
ATOM     18  C   UNL     1      -3.486  13.837  22.171  0.00  0.00    +0.000 A 
ATOM     19  C   UNL     1      -2.246  14.076  21.579  0.00  0.00    +0.000 A 
ENDBRANCH  11  14
ENDBRANCH   1  11
BRANCH   1  20
ATOM     20  C   UNL     1      -0.647  12.923  18.786  0.00  0.00    +0.000 C 
BRANCH  20  21
ATOM     21  C   UNL     1      -0.356  11.417  18.889  0.00  0.00    +0.000 C 
ATOM     22  O   UNL     1      -1.255  10.658  19.259  0.00  0.00    +0.000 OA
ATOM     23  N   UNL     1       0.954  11.003  18.687  0.00  0.00    +0.000 N 
ATOM     24  H   UNL     1       1.677  11.725  18.728  0.00  0.00    +0.000 HD
BRANCH  23  25
ATOM     25  C   UNL     1       1.375   9.664  18.879  0.00  0.00    +0.000 A 
ATOM     26  C   UNL     1       1.257   9.021  20.118  0.00  0.00    +0.000 A 
ATOM     27  C   UNL     1       1.781   7.739  20.309  0.00  0.00    +0.000 A 
ATOM     28  C   UNL     1       2.441   7.101  19.263  0.00  0.00    +0.000 A 
ATOM     29 CL   UNL     1       3.178   5.567  19.524  0.00  0.00    +0.000 Cl
ATOM     30  C   UNL     1       2.522   7.709  18.012  0.00  0.00    +0.000 A 
ATOM     31  C   UNL     1       1.960   8.977  17.810  0.00  0.00    +0.000 A 
ENDBRANCH  23  25
ENDBRANCH  20  21
ENDBRANCH   1  20
TORSDOF 7
ENDMDL
