MODEL 1
REMARK VINA RESULT:      -9.2      0.000      0.000
REMARK  Name = 
REMARK  6 active torsions:
REMARK  status: ('A' for Active; 'I' for Inactive)
REMARK    1  A    between atoms: C_1  and  C_2
REMARK    2  A    between atoms: C_4  and  N_5
REMARK    3  A    between atoms: N_5  and  C_6
REMARK    4  A    between atoms: C_10  and  C_11
REMARK    5  A    between atoms: C_12  and  C_13
REMARK    6  A    between atoms: C_16  and  C_17
REMARK                            x       y       z     vdW  Elec       q    Type
REMARK                         _______ _______ _______ _____ _____    ______ ____
ROOT
ATOM      1  C   UNL     1       7.908   6.950  18.455  0.00  0.00    +0.000 C 
ATOM      2  C   UNL     1       7.282   5.971  17.492  0.00  0.00    +0.000 A 
ATOM      3  C   UNL     1       6.351   4.956  18.069  0.00  0.00    +0.000 A 
ATOM      4  C   UNL     1       5.777   4.090  17.213  0.00  0.00    +0.000 A 
ATOM      5  N   UNL     1       6.084   4.226  15.843  0.00  0.00    +0.000 N 
ATOM      6  N   UNL     1       5.625   3.492  14.792  0.00  0.00    +0.000 NA
ATOM      7  C   UNL     1       6.301   4.025  13.769  0.00  0.00    +0.000 A 
ATOM      8  C   UNL     1       6.174   3.539  12.379  0.00  0.00    +0.000 C 
ATOM      9  N   UNL     1       7.135   5.057  14.087  0.00  0.00    +0.000 NA
ATOM     10  C   UNL     1       6.991   5.190  15.388  0.00  0.00    +0.000 A 
ATOM     11  N   UNL     1       7.589   6.075  16.234  0.00  0.00    +0.000 NA
ENDROOT
BRANCH   4  12
ATOM     12  N   UNL     1       4.890   3.077  17.586  0.00  0.00    +0.000 N 
ATOM     13  H   UNL     1       5.382   2.317  18.068  0.00  0.00    +0.000 HD
BRANCH  12  14
ATOM     14  C   UNL     1       3.621   3.292  18.200  0.00  0.00    +0.000 A 
ATOM     15  C   UNL     1       2.575   3.930  17.510  0.00  0.00    +0.000 A 
ATOM     16  C   UNL     1       1.330   4.118  18.099  0.00  0.00    +0.000 A 
ATOM     17  C   UNL     1       1.110   3.683  19.398  0.00  0.00    +0.000 A 
ATOM     18  C   UNL     1       2.132   3.067  20.134  0.00  0.00    +0.000 A 
ATOM     19  C   UNL     1       1.830   2.646  21.549  0.00  0.00    +0.000 C 
ATOM     20  C   UNL     1       3.401   2.864  19.535  0.00  0.00    +0.000 A 
ATOM     21  C   UNL     1       4.511   2.159  20.280  0.00  0.00    +0.000 C 
ENDBRANCH  12  14
ENDBRANCH   4  12
TORSDOF 2
ENDMDL
MODEL 2
REMARK VINA RESULT:      -8.9      1.180      1.488
REMARK  Name = 
REMARK  6 active torsions:
REMARK  status: ('A' for Active; 'I' for Inactive)
REMARK    1  A    between atoms: C_1  and  C_2
REMARK    2  A    between atoms: C_4  and  N_5
REMARK    3  A    between atoms: N_5  and  C_6
REMARK    4  A    between atoms: C_10  and  C_11
REMARK    5  A    between atoms: C_12  and  C_13
REMARK    6  A    between atoms: C_16  and  C_17
REMARK                            x       y       z     vdW  Elec       q    Type
REMARK                         _______ _______ _______ _____ _____    ______ ____
ROOT
ATOM      1  C   UNL     1       8.249   7.835  18.529  0.00  0.00    +0.000 C 
ATOM      2  C   UNL     1       7.540   6.707  17.822  0.00  0.00    +0.000 A 
ATOM      3  C   UNL     1       6.774   5.750  18.674  0.00  0.00    +0.000 A 
ATOM      4  C   UNL     1       6.126   4.750  18.048  0.00  0.00    +0.000 A 
ATOM      5  N   UNL     1       6.205   4.701  16.640  0.00  0.00    +0.000 N 
ATOM      6  N   UNL     1       5.632   3.809  15.786  0.00  0.00    +0.000 NA
ATOM      7  C   UNL     1       6.107   4.216  14.604  0.00  0.00    +0.000 A 
ATOM      8  C   UNL     1       5.793   3.534  13.331  0.00  0.00    +0.000 C 
ATOM      9  N   UNL     1       6.917   5.314  14.641  0.00  0.00    +0.000 NA
ATOM     10  C   UNL     1       6.970   5.624  15.917  0.00  0.00    +0.000 A 
ATOM     11  N   UNL     1       7.639   6.642  16.529  0.00  0.00    +0.000 NA
ENDROOT
BRANCH   4  12
ATOM     12  N   UNL     1       5.370   3.767  18.693  0.00  0.00    +0.000 N 
ATOM     13  H   UNL     1       5.913   3.317  19.437  0.00  0.00    +0.000 HD
BRANCH  12  14
ATOM     14  C   UNL     1       4.018   3.928  19.115  0.00  0.00    +0.000 A 
ATOM     15  C   UNL     1       3.609   5.061  19.841  0.00  0.00    +0.000 A 
ATOM     16  C   UNL     1       2.286   5.231  20.232  0.00  0.00    +0.000 A 
ATOM     17  C   UNL     1       1.346   4.260  19.915  0.00  0.00    +0.000 A 
ATOM     18  C   UNL     1       1.713   3.101  19.217  0.00  0.00    +0.000 A 
ATOM     19  C   UNL     1       0.644   2.078  18.933  0.00  0.00    +0.000 C 
ATOM     20  C   UNL     1       3.059   2.927  18.808  0.00  0.00    +0.000 A 
ATOM     21  C   UNL     1       3.482   1.716  18.011  0.00  0.00    +0.000 C 
ENDBRANCH  12  14
ENDBRANCH   4  12
TORSDOF 2
ENDMDL
MODEL 3
REMARK VINA RESULT:      -8.5      0.579      1.748
REMARK  Name = 
REMARK  6 active torsions:
REMARK  status: ('A' for Active; 'I' for Inactive)
REMARK    1  A    between atoms: C_1  and  C_2
REMARK    2  A    between atoms: C_4  and  N_5
REMARK    3  A    between atoms: N_5  and  C_6
REMARK    4  A    between atoms: C_10  and  C_11
REMARK    5  A    between atoms: C_12  and  C_13
REMARK    6  A    between atoms: C_16  and  C_17
REMARK                            x       y       z     vdW  Elec       q    Type
REMARK                         _______ _______ _______ _____ _____    ______ ____
ROOT
ATOM      1  C   UNL     1       7.828   6.830  18.461  0.00  0.00    +0.000 C 
ATOM      2  C   UNL     1       7.200   5.902  17.451  0.00  0.00    +0.000 A 
ATOM      3  C   UNL     1       6.164   4.952  17.958  0.00  0.00    +0.000 A 
ATOM      4  C   UNL     1       5.588   4.132  17.059  0.00  0.00    +0.000 A 
ATOM      5  N   UNL     1       5.992   4.252  15.712  0.00  0.00    +0.000 N 
ATOM      6  N   UNL     1       5.553   3.556  14.627  0.00  0.00    +0.000 NA
ATOM      7  C   UNL     1       6.330   4.045  13.655  0.00  0.00    +0.000 A 
ATOM      8  C   UNL     1       6.261   3.576  12.255  0.00  0.00    +0.000 C 
ATOM      9  N   UNL     1       7.212   5.015  14.036  0.00  0.00    +0.000 NA
ATOM     10  C   UNL     1       6.992   5.152  15.325  0.00  0.00    +0.000 A 
ATOM     11  N   UNL     1       7.594   5.989  16.217  0.00  0.00    +0.000 NA
ENDROOT
BRANCH   4  12
ATOM     12  N   UNL     1       4.610   3.182  17.364  0.00  0.00    +0.000 N 
ATOM     13  H   UNL     1       4.884   2.253  17.030  0.00  0.00    +0.000 HD
BRANCH  12  14
ATOM     14  C   UNL     1       3.957   3.065  18.626  0.00  0.00    +0.000 A 
ATOM     15  C   UNL     1       4.517   2.311  19.672  0.00  0.00    +0.000 A 
ATOM     16  C   UNL     1       3.893   2.217  20.911  0.00  0.00    +0.000 A 
ATOM     17  C   UNL     1       2.685   2.866  21.123  0.00  0.00    +0.000 A 
ATOM     18  C   UNL     1       2.075   3.606  20.101  0.00  0.00    +0.000 A 
ATOM     19  C   UNL     1       0.750   4.260  20.395  0.00  0.00    +0.000 C 
ATOM     20  C   UNL     1       2.712   3.713  18.839  0.00  0.00    +0.000 A 
ATOM     21  C   UNL     1       2.109   4.543  17.729  0.00  0.00    +0.000 C 
ENDBRANCH  12  14
ENDBRANCH   4  12
TORSDOF 2
ENDMDL
MODEL 4
REMARK VINA RESULT:      -8.3      1.219      1.285
REMARK  Name = 
REMARK  6 active torsions:
REMARK  status: ('A' for Active; 'I' for Inactive)
REMARK    1  A    between atoms: C_1  and  C_2
REMARK    2  A    between atoms: C_4  and  N_5
REMARK    3  A    between atoms: N_5  and  C_6
REMARK    4  A    between atoms: C_10  and  C_11
REMARK    5  A    between atoms: C_12  and  C_13
REMARK    6  A    between atoms: C_16  and  C_17
REMARK                            x       y       z     vdW  Elec       q    Type
REMARK                         _______ _______ _______ _____ _____    ______ ____
ROOT
ATOM      1  C   UNL     1       7.849   7.420  18.101  0.00  0.00    +0.000 C 
ATOM      2  C   UNL     1       7.098   6.468  17.204  0.00  0.00    +0.000 A 
ATOM      3  C   UNL     1       5.823   5.901  17.735  0.00  0.00    +0.000 A 
ATOM      4  C   UNL     1       5.140   5.063  16.932  0.00  0.00    +0.000 A 
ATOM      5  N   UNL     1       5.671   4.809  15.650  0.00  0.00    +0.000 N 
ATOM      6  N   UNL     1       5.166   4.020  14.661  0.00  0.00    +0.000 NA
ATOM      7  C   UNL     1       6.118   4.111  13.726  0.00  0.00    +0.000 A 
ATOM      8  C   UNL     1       6.051   3.390  12.437  0.00  0.00    +0.000 C 
ATOM      9  N   UNL     1       7.175   4.915  14.036  0.00  0.00    +0.000 NA
ATOM     10  C   UNL     1       6.890   5.361  15.240  0.00  0.00    +0.000 A 
ATOM     11  N   UNL     1       7.603   6.208  16.036  0.00  0.00    +0.000 NA
ENDROOT
BRANCH   4  12
ATOM     12  N   UNL     1       3.936   4.441  17.275  0.00  0.00    +0.000 N 
ATOM     13  H   UNL     1       3.974   3.436  17.079  0.00  0.00    +0.000 HD
BRANCH  12  14
ATOM     14  C   UNL     1       3.221   4.667  18.487  0.00  0.00    +0.000 A 
ATOM     15  C   UNL     1       2.777   5.952  18.845  0.00  0.00    +0.000 A 
ATOM     16  C   UNL     1       2.057   6.170  20.014  0.00  0.00    +0.000 A 
ATOM     17  C   UNL     1       1.780   5.104  20.859  0.00  0.00    +0.000 A 
ATOM     18  C   UNL     1       2.226   3.810  20.557  0.00  0.00    +0.000 A 
ATOM     19  C   UNL     1       1.912   2.707  21.535  0.00  0.00    +0.000 C 
ATOM     20  C   UNL     1       2.952   3.581  19.361  0.00  0.00    +0.000 A 
ATOM     21  C   UNL     1       3.406   2.192  18.978  0.00  0.00    +0.000 C 
ENDBRANCH  12  14
ENDBRANCH   4  12
TORSDOF 2
ENDMDL
MODEL 5
REMARK VINA RESULT:      -8.3      1.370      3.341
REMARK  Name = 
REMARK  6 active torsions:
REMARK  status: ('A' for Active; 'I' for Inactive)
REMARK    1  A    between atoms: C_1  and  C_2
REMARK    2  A    between atoms: C_4  and  N_5
REMARK    3  A    between atoms: N_5  and  C_6
REMARK    4  A    between atoms: C_10  and  C_11
REMARK    5  A    between atoms: C_12  and  C_13
REMARK    6  A    between atoms: C_16  and  C_17
REMARK                            x       y       z     vdW  Elec       q    Type
REMARK                         _______ _______ _______ _____ _____    ______ ____
ROOT
ATOM      1  C   UNL     1       5.807   3.808  13.577  0.00  0.00    +0.000 C 
ATOM      2  C   UNL     1       6.099   4.419  14.925  0.00  0.00    +0.000 A 
ATOM      3  C   UNL     1       5.511   3.738  16.117  0.00  0.00    +0.000 A 
ATOM      4  C   UNL     1       5.781   4.269  17.325  0.00  0.00    +0.000 A 
ATOM      5  N   UNL     1       6.612   5.408  17.367  0.00  0.00    +0.000 N 
ATOM      6  N   UNL     1       7.038   6.111  18.452  0.00  0.00    +0.000 NA
ATOM      7  C   UNL     1       7.728   7.105  17.883  0.00  0.00    +0.000 A 
ATOM      8  C   UNL     1       8.379   8.181  18.658  0.00  0.00    +0.000 C 
ATOM      9  N   UNL     1       7.792   7.073  16.520  0.00  0.00    +0.000 NA
ATOM     10  C   UNL     1       7.100   6.002  16.197  0.00  0.00    +0.000 A 
ATOM     11  N   UNL     1       6.837   5.487  14.962  0.00  0.00    +0.000 NA
ENDROOT
BRANCH   4  12
ATOM     12  N   UNL     1       5.306   3.763  18.538  0.00  0.00    +0.000 N 
ATOM     13  H   UNL     1       5.996   3.892  19.284  0.00  0.00    +0.000 HD
BRANCH  12  14
ATOM     14  C   UNL     1       3.995   3.982  19.053  0.00  0.00    +0.000 A 
ATOM     15  C   UNL     1       3.672   5.159  19.751  0.00  0.00    +0.000 A 
ATOM     16  C   UNL     1       2.387   5.385  20.232  0.00  0.00    +0.000 A 
ATOM     17  C   UNL     1       1.401   4.429  20.036  0.00  0.00    +0.000 A 
ATOM     18  C   UNL     1       1.684   3.228  19.369  0.00  0.00    +0.000 A 
ATOM     19  C   UNL     1       0.571   2.224  19.217  0.00  0.00    +0.000 C 
ATOM     20  C   UNL     1       2.990   2.996  18.868  0.00  0.00    +0.000 A 
ATOM     21  C   UNL     1       3.319   1.737  18.102  0.00  0.00    +0.000 C 
ENDBRANCH  12  14
ENDBRANCH   4  12
TORSDOF 2
ENDMDL
MODEL 6
REMARK VINA RESULT:      -8.3      1.255      1.667
REMARK  Name = 
REMARK  6 active torsions:
REMARK  status: ('A' for Active; 'I' for Inactive)
REMARK    1  A    between atoms: C_1  and  C_2
REMARK    2  A    between atoms: C_4  and  N_5
REMARK    3  A    between atoms: N_5  and  C_6
REMARK    4  A    between atoms: C_10  and  C_11
REMARK    5  A    between atoms: C_12  and  C_13
REMARK    6  A    between atoms: C_16  and  C_17
REMARK                            x       y       z     vdW  Elec       q    Type
REMARK                         _______ _______ _______ _____ _____    ______ ____
ROOT
ATOM      1  C   UNL     1       7.992   7.607  18.350  0.00  0.00    +0.000 C 
ATOM      2  C   UNL     1       7.176   6.736  17.427  0.00  0.00    +0.000 A 
ATOM      3  C   UNL     1       5.765   6.459  17.830  0.00  0.00    +0.000 A 
ATOM      4  C   UNL     1       5.027   5.696  17.002  0.00  0.00    +0.000 A 
ATOM      5  N   UNL     1       5.639   5.240  15.815  0.00  0.00    +0.000 N 
ATOM      6  N   UNL     1       5.105   4.476  14.822  0.00  0.00    +0.000 NA
ATOM      7  C   UNL     1       6.153   4.311  14.009  0.00  0.00    +0.000 A 
ATOM      8  C   UNL     1       6.093   3.507  12.770  0.00  0.00    +0.000 C 
ATOM      9  N   UNL     1       7.305   4.931  14.398  0.00  0.00    +0.000 NA
ATOM     10  C   UNL     1       6.979   5.523  15.526  0.00  0.00    +0.000 A 
ATOM     11  N   UNL     1       7.748   6.289  16.350  0.00  0.00    +0.000 NA
ENDROOT
BRANCH   4  12
ATOM     12  N   UNL     1       3.696   5.336  17.230  0.00  0.00    +0.000 N 
ATOM     13  H   UNL     1       3.142   5.416  16.371  0.00  0.00    +0.000 HD
BRANCH  12  14
ATOM     14  C   UNL     1       3.279   4.189  17.966  0.00  0.00    +0.000 A 
ATOM     15  C   UNL     1       3.551   2.888  17.506  0.00  0.00    +0.000 A 
ATOM     16  C   UNL     1       3.167   1.768  18.235  0.00  0.00    +0.000 A 
ATOM     17  C   UNL     1       2.488   1.928  19.435  0.00  0.00    +0.000 A 
ATOM     18  C   UNL     1       2.171   3.206  19.919  0.00  0.00    +0.000 A 
ATOM     19  C   UNL     1       1.408   3.302  21.215  0.00  0.00    +0.000 C 
ATOM     20  C   UNL     1       2.569   4.351  19.184  0.00  0.00    +0.000 A 
ATOM     21  C   UNL     1       2.289   5.744  19.699  0.00  0.00    +0.000 C 
ENDBRANCH  12  14
ENDBRANCH   4  12
TORSDOF 2
ENDMDL
MODEL 7
REMARK VINA RESULT:      -8.2      1.591      1.985
REMARK  Name = 
REMARK  6 active torsions:
REMARK  status: ('A' for Active; 'I' for Inactive)
REMARK    1  A    between atoms: C_1  and  C_2
REMARK    2  A    between atoms: C_4  and  N_5
REMARK    3  A    between atoms: N_5  and  C_6
REMARK    4  A    between atoms: C_10  and  C_11
REMARK    5  A    between atoms: C_12  and  C_13
REMARK    6  A    between atoms: C_16  and  C_17
REMARK                            x       y       z     vdW  Elec       q    Type
REMARK                         _______ _______ _______ _____ _____    ______ ____
ROOT
ATOM      1  C   UNL     1       8.216   5.664  19.699  0.00  0.00    +0.000 C 
ATOM      2  C   UNL     1       7.326   5.408  18.509  0.00  0.00    +0.000 A 
ATOM      3  C   UNL     1       5.873   5.712  18.673  0.00  0.00    +0.000 A 
ATOM      4  C   UNL     1       5.076   5.501  17.609  0.00  0.00    +0.000 A 
ATOM      5  N   UNL     1       5.679   5.033  16.423  0.00  0.00    +0.000 N 
ATOM      6  N   UNL     1       5.098   4.761  15.222  0.00  0.00    +0.000 NA
ATOM      7  C   UNL     1       6.132   4.295  14.515  0.00  0.00    +0.000 A 
ATOM      8  C   UNL     1       6.007   3.823  13.120  0.00  0.00    +0.000 C 
ATOM      9  N   UNL     1       7.330   4.274  15.168  0.00  0.00    +0.000 NA
ATOM     10  C   UNL     1       7.048   4.747  16.362  0.00  0.00    +0.000 A 
ATOM     11  N   UNL     1       7.875   4.947  17.426  0.00  0.00    +0.000 NA
ENDROOT
BRANCH   4  12
ATOM     12  N   UNL     1       3.696   5.726  17.594  0.00  0.00    +0.000 N 
ATOM     13  H   UNL     1       3.316   5.610  16.650  0.00  0.00    +0.000 HD
BRANCH  12  14
ATOM     14  C   UNL     1       2.777   5.204  18.550  0.00  0.00    +0.000 A 
ATOM     15  C   UNL     1       2.452   5.917  19.717  0.00  0.00    +0.000 A 
ATOM     16  C   UNL     1       1.537   5.420  20.638  0.00  0.00    +0.000 A 
ATOM     17  C   UNL     1       0.938   4.188  20.415  0.00  0.00    +0.000 A 
ATOM     18  C   UNL     1       1.252   3.428  19.280  0.00  0.00    +0.000 A 
ATOM     19  C   UNL     1       0.585   2.087  19.118  0.00  0.00    +0.000 C 
ATOM     20  C   UNL     1       2.178   3.935  18.333  0.00  0.00    +0.000 A 
ATOM     21  C   UNL     1       2.504   3.168  17.073  0.00  0.00    +0.000 C 
ENDBRANCH  12  14
ENDBRANCH   4  12
TORSDOF 2
ENDMDL
MODEL 8
REMARK VINA RESULT:      -8.2      0.870      3.033
REMARK  Name = 
REMARK  6 active torsions:
REMARK  status: ('A' for Active; 'I' for Inactive)
REMARK    1  A    between atoms: C_1  and  C_2
REMARK    2  A    between atoms: C_4  and  N_5
REMARK    3  A    between atoms: N_5  and  C_6
REMARK    4  A    between atoms: C_10  and  C_11
REMARK    5  A    between atoms: C_12  and  C_13
REMARK    6  A    between atoms: C_16  and  C_17
REMARK                            x       y       z     vdW  Elec       q    Type
REMARK                         _______ _______ _______ _____ _____    ______ ____
ROOT
ATOM      1  C   UNL     1       6.000   3.659  13.018  0.00  0.00    +0.000 C 
ATOM      2  C   UNL     1       6.175   4.172  14.426  0.00  0.00    +0.000 A 
ATOM      3  C   UNL     1       5.497   3.407  15.515  0.00  0.00    +0.000 A 
ATOM      4  C   UNL     1       5.663   3.851  16.775  0.00  0.00    +0.000 A 
ATOM      5  N   UNL     1       6.480   4.985  16.966  0.00  0.00    +0.000 N 
ATOM      6  N   UNL     1       6.810   5.609  18.130  0.00  0.00    +0.000 NA
ATOM      7  C   UNL     1       7.536   6.643  17.691  0.00  0.00    +0.000 A 
ATOM      8  C   UNL     1       8.114   7.662  18.592  0.00  0.00    +0.000 C 
ATOM      9  N   UNL     1       7.712   6.707  16.339  0.00  0.00    +0.000 NA
ATOM     10  C   UNL     1       7.057   5.661  15.885  0.00  0.00    +0.000 A 
ATOM     11  N   UNL     1       6.900   5.235  14.600  0.00  0.00    +0.000 NA
ENDROOT
BRANCH   4  12
ATOM     12  N   UNL     1       5.094   3.258  17.906  0.00  0.00    +0.000 N 
ATOM     13  H   UNL     1       5.769   3.216  18.676  0.00  0.00    +0.000 HD
BRANCH  12  14
ATOM     14  C   UNL     1       3.799   3.561  18.418  0.00  0.00    +0.000 A 
ATOM     15  C   UNL     1       2.901   4.372  17.701  0.00  0.00    +0.000 A 
ATOM     16  C   UNL     1       1.629   4.648  18.188  0.00  0.00    +0.000 A 
ATOM     17  C   UNL     1       1.233   4.127  19.411  0.00  0.00    +0.000 A 
ATOM     18  C   UNL     1       2.103   3.335  20.174  0.00  0.00    +0.000 A 
ATOM     19  C   UNL     1       1.615   2.827  21.506  0.00  0.00    +0.000 C 
ATOM     20  C   UNL     1       3.399   3.043  19.678  0.00  0.00    +0.000 A 
ATOM     21  C   UNL     1       4.346   2.153  20.448  0.00  0.00    +0.000 C 
ENDBRANCH  12  14
ENDBRANCH   4  12
TORSDOF 2
ENDMDL
MODEL 9
REMARK VINA RESULT:      -7.9      1.327      3.304
REMARK  Name = 
REMARK  6 active torsions:
REMARK  status: ('A' for Active; 'I' for Inactive)
REMARK    1  A    between atoms: C_1  and  C_2
REMARK    2  A    between atoms: C_4  and  N_5
REMARK    3  A    between atoms: N_5  and  C_6
REMARK    4  A    between atoms: C_10  and  C_11
REMARK    5  A    between atoms: C_12  and  C_13
REMARK    6  A    between atoms: C_16  and  C_17
REMARK                            x       y       z     vdW  Elec       q    Type
REMARK                         _______ _______ _______ _____ _____    ______ ____
ROOT
ATOM      1  C   UNL     1       5.577   3.818  13.313  0.00  0.00    +0.000 C 
ATOM      2  C   UNL     1       5.903   4.305  14.703  0.00  0.00    +0.000 A 
ATOM      3  C   UNL     1       5.333   3.528  15.844  0.00  0.00    +0.000 A 
ATOM      4  C   UNL     1       5.633   3.949  17.087  0.00  0.00    +0.000 A 
ATOM      5  N   UNL     1       6.478   5.072  17.210  0.00  0.00    +0.000 N 
ATOM      6  N   UNL     1       6.934   5.673  18.343  0.00  0.00    +0.000 NA
ATOM      7  C   UNL     1       7.622   6.707  17.848  0.00  0.00    +0.000 A 
ATOM      8  C   UNL     1       8.301   7.706  18.700  0.00  0.00    +0.000 C 
ATOM      9  N   UNL     1       7.657   6.794  16.486  0.00  0.00    +0.000 NA
ATOM     10  C   UNL     1       6.947   5.762  16.086  0.00  0.00    +0.000 A 
ATOM     11  N   UNL     1       6.653   5.359  14.817  0.00  0.00    +0.000 NA
ENDROOT
BRANCH   4  12
ATOM     12  N   UNL     1       5.179   3.342  18.261  0.00  0.00    +0.000 N 
ATOM     13  H   UNL     1       5.682   3.701  19.078  0.00  0.00    +0.000 HD
BRANCH  12  14
ATOM     14  C   UNL     1       3.807   3.139  18.593  0.00  0.00    +0.000 A 
ATOM     15  C   UNL     1       3.127   1.971  18.206  0.00  0.00    +0.000 A 
ATOM     16  C   UNL     1       1.797   1.761  18.551  0.00  0.00    +0.000 A 
ATOM     17  C   UNL     1       1.115   2.725  19.279  0.00  0.00    +0.000 A 
ATOM     18  C   UNL     1       1.744   3.918  19.663  0.00  0.00    +0.000 A 
ATOM     19  C   UNL     1       0.933   4.932  20.427  0.00  0.00    +0.000 C 
ATOM     20  C   UNL     1       3.103   4.133  19.322  0.00  0.00    +0.000 A 
ATOM     21  C   UNL     1       3.829   5.383  19.761  0.00  0.00    +0.000 C 
ENDBRANCH  12  14
ENDBRANCH   4  12
TORSDOF 2
ENDMDL
