MODEL 1
REMARK VINA RESULT:      -8.0      0.000      0.000
REMARK  Name = 
REMARK  4 active torsions:
REMARK  status: ('A' for Active; 'I' for Inactive)
REMARK    1  A    between atoms: C_1  and  C_2
REMARK    2  A    between atoms: C_6  and  C_7
REMARK    3  A    between atoms: C_16  and  N_17
REMARK    4  A    between atoms: C_21  and  C_22
REMARK                            x       y       z     vdW  Elec       q    Type
REMARK                         _______ _______ _______ _____ _____    ______ ____
ROOT
ATOM      1  C   UNL     1       4.477   2.937  19.231  0.00  0.00    +0.000 C 
ATOM      2  C   UNL     1       3.936   4.337  19.066  0.00  0.00    +0.000 A 
ATOM      3  C   UNL     1       3.005   4.749  20.050  0.00  0.00    +0.000 A 
ATOM      4  C   UNL     1       2.526   6.055  19.993  0.00  0.00    +0.000 A 
ATOM      5  N   UNL     1       1.666   6.768  20.788  0.00  0.00    +0.000 N 
ATOM      6  C   UNL     1       1.534   8.035  20.270  0.00  0.00    +0.000 A 
ATOM      7  N   UNL     1       2.246   8.149  19.164  0.00  0.00    +0.000 NA
ATOM      8  C   UNL     1       2.883   6.948  18.998  0.00  0.00    +0.000 A 
ATOM      9  C   UNL     1       3.781   6.538  18.004  0.00  0.00    +0.000 A 
ATOM     10  C   UNL     1       4.335   5.241  18.044  0.00  0.00    +0.000 A 
ATOM     11  H   UNL     1       1.188   6.413  21.602  0.00  0.00    +0.000 HD
ENDROOT
BRANCH   6  12
ATOM     12  C   UNL     1       0.684   9.072  20.858  0.00  0.00    +0.000 A 
ATOM     13  C   UNL     1       0.077  10.062  20.081  0.00  0.00    +0.000 A 
ATOM     14  C   UNL     1      -0.705  11.013  20.717  0.00  0.00    +0.000 A 
ATOM     15  N   UNL     1      -0.915  11.045  22.049  0.00  0.00    +0.000 NA
ATOM     16  C   UNL     1      -0.333  10.071  22.779  0.00  0.00    +0.000 A 
ATOM     17  C   UNL     1       0.458   9.074  22.237  0.00  0.00    +0.000 A 
ENDBRANCH   6  12
BRANCH  10  18
ATOM     18  N   UNL     1       5.296   4.894  17.038  0.00  0.00    +0.000 N 
ATOM     19  C   UNL     1       5.031   4.264  15.839  0.00  0.00    +0.000 A 
ATOM     20  C   UNL     1       6.233   4.082  15.210  0.00  0.00    +0.000 A 
ATOM     21  N   UNL     1       7.241   4.621  15.944  0.00  0.00    +0.000 NA
ATOM     22  C   UNL     1       6.678   5.119  17.031  0.00  0.00    +0.000 A 
ATOM     23  C   UNL     1       7.474   5.714  18.140  0.00  0.00    +0.000 C 
ENDBRANCH  10  18
TORSDOF 2
ENDMDL
MODEL 2
REMARK VINA RESULT:      -8.0      0.101      1.006
REMARK  Name = 
REMARK  4 active torsions:
REMARK  status: ('A' for Active; 'I' for Inactive)
REMARK    1  A    between atoms: C_1  and  C_2
REMARK    2  A    between atoms: C_6  and  C_7
REMARK    3  A    between atoms: C_16  and  N_17
REMARK    4  A    between atoms: C_21  and  C_22
REMARK                            x       y       z     vdW  Elec       q    Type
REMARK                         _______ _______ _______ _____ _____    ______ ____
ROOT
ATOM      1  C   UNL     1       4.442   2.920  19.322  0.00  0.00    +0.000 C 
ATOM      2  C   UNL     1       3.901   4.317  19.142  0.00  0.00    +0.000 A 
ATOM      3  C   UNL     1       2.964   4.739  20.116  0.00  0.00    +0.000 A 
ATOM      4  C   UNL     1       2.485   6.044  20.044  0.00  0.00    +0.000 A 
ATOM      5  N   UNL     1       1.620   6.764  20.826  0.00  0.00    +0.000 N 
ATOM      6  C   UNL     1       1.490   8.025  20.296  0.00  0.00    +0.000 A 
ATOM      7  N   UNL     1       2.208   8.130  19.193  0.00  0.00    +0.000 NA
ATOM      8  C   UNL     1       2.847   6.927  19.042  0.00  0.00    +0.000 A 
ATOM      9  C   UNL     1       3.751   6.508  18.058  0.00  0.00    +0.000 A 
ATOM     10  C   UNL     1       4.306   5.212  18.113  0.00  0.00    +0.000 A 
ATOM     11  H   UNL     1       1.136   6.416  21.641  0.00  0.00    +0.000 HD
ENDROOT
BRANCH   6  12
ATOM     12  C   UNL     1       0.636   9.068  20.869  0.00  0.00    +0.000 A 
ATOM     13  C   UNL     1       0.403   9.163  22.244  0.00  0.00    +0.000 A 
ATOM     14  C   UNL     1      -0.425  10.174  22.705  0.00  0.00    +0.000 A 
ATOM     15  N   UNL     1      -1.027  11.075  21.903  0.00  0.00    +0.000 NA
ATOM     16  C   UNL     1      -0.776  10.977  20.581  0.00  0.00    +0.000 A 
ATOM     17  C   UNL     1       0.041  10.009  20.025  0.00  0.00    +0.000 A 
ENDBRANCH   6  12
BRANCH  10  18
ATOM     18  N   UNL     1       5.273   4.857  17.117  0.00  0.00    +0.000 N 
ATOM     19  C   UNL     1       5.012   4.237  15.911  0.00  0.00    +0.000 A 
ATOM     20  C   UNL     1       6.219   4.041  15.294  0.00  0.00    +0.000 A 
ATOM     21  N   UNL     1       7.226   4.561  16.043  0.00  0.00    +0.000 NA
ATOM     22  C   UNL     1       6.658   5.061  17.126  0.00  0.00    +0.000 A 
ATOM     23  C   UNL     1       7.450   5.637  18.248  0.00  0.00    +0.000 C 
ENDBRANCH  10  18
TORSDOF 2
ENDMDL
MODEL 3
REMARK VINA RESULT:      -7.8      1.867      2.113
REMARK  Name = 
REMARK  4 active torsions:
REMARK  status: ('A' for Active; 'I' for Inactive)
REMARK    1  A    between atoms: C_1  and  C_2
REMARK    2  A    between atoms: C_6  and  C_7
REMARK    3  A    between atoms: C_16  and  N_17
REMARK    4  A    between atoms: C_21  and  C_22
REMARK                            x       y       z     vdW  Elec       q    Type
REMARK                         _______ _______ _______ _____ _____    ______ ____
ROOT
ATOM      1  C   UNL     1       4.366   4.264  19.487  0.00  0.00    +0.000 C 
ATOM      2  C   UNL     1       3.878   5.531  18.828  0.00  0.00    +0.000 A 
ATOM      3  C   UNL     1       2.856   6.224  19.521  0.00  0.00    +0.000 A 
ATOM      4  C   UNL     1       2.417   7.438  18.999  0.00  0.00    +0.000 A 
ATOM      5  N   UNL     1       1.492   8.355  19.426  0.00  0.00    +0.000 N 
ATOM      6  C   UNL     1       1.446   9.390  18.522  0.00  0.00    +0.000 A 
ATOM      7  N   UNL     1       2.277   9.155  17.522  0.00  0.00    +0.000 NA
ATOM      8  C   UNL     1       2.900   7.971  17.818  0.00  0.00    +0.000 A 
ATOM      9  C   UNL     1       3.891   7.278  17.111  0.00  0.00    +0.000 A 
ATOM     10  C   UNL     1       4.407   6.068  17.622  0.00  0.00    +0.000 A 
ATOM     11  H   UNL     1       0.920   8.272  20.253  0.00  0.00    +0.000 HD
ENDROOT
BRANCH   6  12
ATOM     12  C   UNL     1       0.562  10.549  18.652  0.00  0.00    +0.000 A 
ATOM     13  C   UNL     1      -0.824  10.446  18.504  0.00  0.00    +0.000 A 
ATOM     14  C   UNL     1      -1.589  11.594  18.634  0.00  0.00    +0.000 A 
ATOM     15  N   UNL     1      -1.075  12.814  18.892  0.00  0.00    +0.000 NA
ATOM     16  C   UNL     1       0.263  12.889  19.049  0.00  0.00    +0.000 A 
ATOM     17  C   UNL     1       1.110  11.801  18.945  0.00  0.00    +0.000 A 
ENDBRANCH   6  12
BRANCH  10  18
ATOM     18  N   UNL     1       5.463   5.432  16.891  0.00  0.00    +0.000 N 
ATOM     19  C   UNL     1       5.314   4.470  15.913  0.00  0.00    +0.000 A 
ATOM     20  C   UNL     1       6.573   4.103  15.518  0.00  0.00    +0.000 A 
ATOM     21  N   UNL     1       7.509   4.836  16.175  0.00  0.00    +0.000 NA
ATOM     22  C   UNL     1       6.845   5.640  16.986  0.00  0.00    +0.000 A 
ATOM     23  C   UNL     1       7.530   6.540  17.954  0.00  0.00    +0.000 C 
ENDBRANCH  10  18
TORSDOF 2
ENDMDL
MODEL 4
REMARK VINA RESULT:      -7.8      1.845      2.108
REMARK  Name = 
REMARK  4 active torsions:
REMARK  status: ('A' for Active; 'I' for Inactive)
REMARK    1  A    between atoms: C_1  and  C_2
REMARK    2  A    between atoms: C_6  and  C_7
REMARK    3  A    between atoms: C_16  and  N_17
REMARK    4  A    between atoms: C_21  and  C_22
REMARK                            x       y       z     vdW  Elec       q    Type
REMARK                         _______ _______ _______ _____ _____    ______ ____
ROOT
ATOM      1  C   UNL     1       4.399   4.309  19.501  0.00  0.00    +0.000 C 
ATOM      2  C   UNL     1       3.884   5.566  18.842  0.00  0.00    +0.000 A 
ATOM      3  C   UNL     1       2.874   6.258  19.554  0.00  0.00    +0.000 A 
ATOM      4  C   UNL     1       2.412   7.462  19.032  0.00  0.00    +0.000 A 
ATOM      5  N   UNL     1       1.491   8.377  19.473  0.00  0.00    +0.000 N 
ATOM      6  C   UNL     1       1.413   9.401  18.559  0.00  0.00    +0.000 A 
ATOM      7  N   UNL     1       2.219   9.162  17.540  0.00  0.00    +0.000 NA
ATOM      8  C   UNL     1       2.859   7.987  17.832  0.00  0.00    +0.000 A 
ATOM      9  C   UNL     1       3.836   7.293  17.107  0.00  0.00    +0.000 A 
ATOM     10  C   UNL     1       4.376   6.094  17.617  0.00  0.00    +0.000 A 
ATOM     11  H   UNL     1       0.941   8.298  20.315  0.00  0.00    +0.000 HD
ENDROOT
BRANCH   6  12
ATOM     12  C   UNL     1       0.523  10.555  18.701  0.00  0.00    +0.000 A 
ATOM     13  C   UNL     1       0.998  11.817  19.070  0.00  0.00    +0.000 A 
ATOM     14  C   UNL     1       0.088  12.855  19.191  0.00  0.00    +0.000 A 
ATOM     15  N   UNL     1      -1.236  12.722  18.977  0.00  0.00    +0.000 NA
ATOM     16  C   UNL     1      -1.672  11.500  18.605  0.00  0.00    +0.000 A 
ATOM     17  C   UNL     1      -0.843  10.404  18.450  0.00  0.00    +0.000 A 
ENDBRANCH   6  12
BRANCH  10  18
ATOM     18  N   UNL     1       5.418   5.458  16.865  0.00  0.00    +0.000 N 
ATOM     19  C   UNL     1       5.247   4.536  15.852  0.00  0.00    +0.000 A 
ATOM     20  C   UNL     1       6.497   4.152  15.446  0.00  0.00    +0.000 A 
ATOM     21  N   UNL     1       7.450   4.838  16.130  0.00  0.00    +0.000 NA
ATOM     22  C   UNL     1       6.804   5.628  16.968  0.00  0.00    +0.000 A 
ATOM     23  C   UNL     1       7.509   6.475  17.969  0.00  0.00    +0.000 C 
ENDBRANCH  10  18
TORSDOF 2
ENDMDL
MODEL 5
REMARK VINA RESULT:      -7.7      1.016      1.103
REMARK  Name = 
REMARK  4 active torsions:
REMARK  status: ('A' for Active; 'I' for Inactive)
REMARK    1  A    between atoms: C_1  and  C_2
REMARK    2  A    between atoms: C_6  and  C_7
REMARK    3  A    between atoms: C_16  and  N_17
REMARK    4  A    between atoms: C_21  and  C_22
REMARK                            x       y       z     vdW  Elec       q    Type
REMARK                         _______ _______ _______ _____ _____    ______ ____
ROOT
ATOM      1  C   UNL     1       4.781   3.764  19.281  0.00  0.00    +0.000 C 
ATOM      2  C   UNL     1       4.137   5.062  18.856  0.00  0.00    +0.000 A 
ATOM      3  C   UNL     1       3.168   5.582  19.749  0.00  0.00    +0.000 A 
ATOM      4  C   UNL     1       2.593   6.813  19.447  0.00  0.00    +0.000 A 
ATOM      5  N   UNL     1       1.674   7.597  20.096  0.00  0.00    +0.000 N 
ATOM      6  C   UNL     1       1.451   8.728  19.348  0.00  0.00    +0.000 A 
ATOM      7  N   UNL     1       2.163   8.684  18.236  0.00  0.00    +0.000 NA
ATOM      8  C   UNL     1       2.891   7.525  18.298  0.00  0.00    +0.000 A 
ATOM      9  C   UNL     1       3.826   7.003  17.396  0.00  0.00    +0.000 A 
ATOM     10  C   UNL     1       4.476   5.783  17.679  0.00  0.00    +0.000 A 
ATOM     11  H   UNL     1       1.216   7.367  20.965  0.00  0.00    +0.000 HD
ENDROOT
BRANCH   6  12
ATOM     12  C   UNL     1       0.520   9.791  19.732  0.00  0.00    +0.000 A 
ATOM     13  C   UNL     1      -0.456  10.275  18.857  0.00  0.00    +0.000 A 
ATOM     14  C   UNL     1      -1.292  11.289  19.296  0.00  0.00    +0.000 A 
ATOM     15  N   UNL     1      -1.219  11.844  20.522  0.00  0.00    +0.000 NA
ATOM     16  C   UNL     1      -0.282  11.351  21.358  0.00  0.00    +0.000 A 
ATOM     17  C   UNL     1       0.594  10.336  21.017  0.00  0.00    +0.000 A 
ENDBRANCH   6  12
BRANCH  10  18
ATOM     18  N   UNL     1       5.470   5.326  16.752  0.00  0.00    +0.000 N 
ATOM     19  C   UNL     1       5.274   4.427  15.724  0.00  0.00    +0.000 A 
ATOM     20  C   UNL     1       6.491   4.236  15.124  0.00  0.00    +0.000 A 
ATOM     21  N   UNL     1       7.435   5.022  15.703  0.00  0.00    +0.000 NA
ATOM     22  C   UNL     1       6.822   5.684  16.668  0.00  0.00    +0.000 A 
ATOM     23  C   UNL     1       7.549   6.583  17.605  0.00  0.00    +0.000 C 
ENDBRANCH  10  18
TORSDOF 2
ENDMDL
MODEL 6
REMARK VINA RESULT:      -7.7      0.969      1.415
REMARK  Name = 
REMARK  4 active torsions:
REMARK  status: ('A' for Active; 'I' for Inactive)
REMARK    1  A    between atoms: C_1  and  C_2
REMARK    2  A    between atoms: C_6  and  C_7
REMARK    3  A    between atoms: C_16  and  N_17
REMARK    4  A    between atoms: C_21  and  C_22
REMARK                            x       y       z     vdW  Elec       q    Type
REMARK                         _______ _______ _______ _____ _____    ______ ____
ROOT
ATOM      1  C   UNL     1       4.802   3.743  19.257  0.00  0.00    +0.000 C 
ATOM      2  C   UNL     1       4.151   5.046  18.862  0.00  0.00    +0.000 A 
ATOM      3  C   UNL     1       3.183   5.544  19.768  0.00  0.00    +0.000 A 
ATOM      4  C   UNL     1       2.601   6.778  19.494  0.00  0.00    +0.000 A 
ATOM      5  N   UNL     1       1.681   7.544  20.162  0.00  0.00    +0.000 N 
ATOM      6  C   UNL     1       1.450   8.689  19.438  0.00  0.00    +0.000 A 
ATOM      7  N   UNL     1       2.159   8.672  18.323  0.00  0.00    +0.000 NA
ATOM      8  C   UNL     1       2.892   7.515  18.359  0.00  0.00    +0.000 A 
ATOM      9  C   UNL     1       3.826   7.016  17.443  0.00  0.00    +0.000 A 
ATOM     10  C   UNL     1       4.483   5.794  17.698  0.00  0.00    +0.000 A 
ATOM     11  H   UNL     1       1.227   7.294  21.027  0.00  0.00    +0.000 HD
ENDROOT
BRANCH   6  12
ATOM     12  C   UNL     1       0.516   9.739  19.847  0.00  0.00    +0.000 A 
ATOM     13  C   UNL     1       0.478  10.230  21.156  0.00  0.00    +0.000 A 
ATOM     14  C   UNL     1      -0.442  11.218  21.464  0.00  0.00    +0.000 A 
ATOM     15  N   UNL     1      -1.313  11.737  20.575  0.00  0.00    +0.000 NA
ATOM     16  C   UNL     1      -1.250  11.262  19.313  0.00  0.00    +0.000 A 
ATOM     17  C   UNL     1      -0.362  10.283  18.906  0.00  0.00    +0.000 A 
ENDBRANCH   6  12
BRANCH  10  18
ATOM     18  N   UNL     1       5.476   5.360  16.759  0.00  0.00    +0.000 N 
ATOM     19  C   UNL     1       5.281   4.479  15.715  0.00  0.00    +0.000 A 
ATOM     20  C   UNL     1       6.496   4.307  15.106  0.00  0.00    +0.000 A 
ATOM     21  N   UNL     1       7.438   5.088  15.696  0.00  0.00    +0.000 NA
ATOM     22  C   UNL     1       6.825   5.728  16.676  0.00  0.00    +0.000 A 
ATOM     23  C   UNL     1       7.550   6.614  17.627  0.00  0.00    +0.000 C 
ENDBRANCH  10  18
TORSDOF 2
ENDMDL
MODEL 7
REMARK VINA RESULT:      -7.3      1.721      7.978
REMARK  Name = 
REMARK  4 active torsions:
REMARK  status: ('A' for Active; 'I' for Inactive)
REMARK    1  A    between atoms: C_1  and  C_2
REMARK    2  A    between atoms: C_6  and  C_7
REMARK    3  A    between atoms: C_16  and  N_17
REMARK    4  A    between atoms: C_21  and  C_22
REMARK                            x       y       z     vdW  Elec       q    Type
REMARK                         _______ _______ _______ _____ _____    ______ ____
ROOT
ATOM      1  C   UNL     1      -0.137   9.075  21.955  0.00  0.00    +0.000 C 
ATOM      2  C   UNL     1       0.686   8.901  20.702  0.00  0.00    +0.000 A 
ATOM      3  C   UNL     1       1.474   7.726  20.648  0.00  0.00    +0.000 A 
ATOM      4  C   UNL     1       2.198   7.474  19.486  0.00  0.00    +0.000 A 
ATOM      5  N   UNL     1       3.012   6.440  19.101  0.00  0.00    +0.000 N 
ATOM      6  C   UNL     1       3.483   6.698  17.836  0.00  0.00    +0.000 A 
ATOM      7  N   UNL     1       3.032   7.864  17.412  0.00  0.00    +0.000 NA
ATOM      8  C   UNL     1       2.218   8.339  18.406  0.00  0.00    +0.000 A 
ATOM      9  C   UNL     1       1.464   9.518  18.463  0.00  0.00    +0.000 A 
ATOM     10  C   UNL     1       0.672   9.797  19.597  0.00  0.00    +0.000 A 
ATOM     11  H   UNL     1       3.248   5.637  19.664  0.00  0.00    +0.000 HD
ENDROOT
BRANCH   6  12
ATOM     12  C   UNL     1       4.389   5.809  17.106  0.00  0.00    +0.000 A 
ATOM     13  C   UNL     1       5.347   6.296  16.213  0.00  0.00    +0.000 A 
ATOM     14  C   UNL     1       6.160   5.387  15.555  0.00  0.00    +0.000 A 
ATOM     15  N   UNL     1       6.080   4.051  15.721  0.00  0.00    +0.000 NA
ATOM     16  C   UNL     1       5.161   3.602  16.600  0.00  0.00    +0.000 A 
ATOM     17  C   UNL     1       4.309   4.429  17.310  0.00  0.00    +0.000 A 
ENDBRANCH   6  12
BRANCH  10  18
ATOM     18  N   UNL     1      -0.127  10.986  19.577  0.00  0.00    +0.000 N 
ATOM     19  C   UNL     1       0.172  12.181  20.201  0.00  0.00    +0.000 A 
ATOM     20  C   UNL     1      -0.879  13.027  19.967  0.00  0.00    +0.000 A 
ATOM     21  N   UNL     1      -1.805  12.427  19.175  0.00  0.00    +0.000 NA
ATOM     22  C   UNL     1      -1.349  11.212  18.931  0.00  0.00    +0.000 A 
ATOM     23  C   UNL     1      -2.135  10.202  18.170  0.00  0.00    +0.000 C 
ENDBRANCH  10  18
TORSDOF 2
ENDMDL
MODEL 8
REMARK VINA RESULT:      -7.2      1.992      3.291
REMARK  Name = 
REMARK  4 active torsions:
REMARK  status: ('A' for Active; 'I' for Inactive)
REMARK    1  A    between atoms: C_1  and  C_2
REMARK    2  A    between atoms: C_6  and  C_7
REMARK    3  A    between atoms: C_16  and  N_17
REMARK    4  A    between atoms: C_21  and  C_22
REMARK                            x       y       z     vdW  Elec       q    Type
REMARK                         _______ _______ _______ _____ _____    ______ ____
ROOT
ATOM      1  C   UNL     1       4.090   5.493  16.950  0.00  0.00    +0.000 C 
ATOM      2  C   UNL     1       3.332   5.951  18.173  0.00  0.00    +0.000 A 
ATOM      3  C   UNL     1       2.964   7.318  18.185  0.00  0.00    +0.000 A 
ATOM      4  C   UNL     1       2.200   7.782  19.252  0.00  0.00    +0.000 A 
ATOM      5  N   UNL     1       1.659   9.006  19.549  0.00  0.00    +0.000 N 
ATOM      6  C   UNL     1       0.990   8.915  20.746  0.00  0.00    +0.000 A 
ATOM      7  N   UNL     1       1.108   7.696  21.240  0.00  0.00    +0.000 NA
ATOM      8  C   UNL     1       1.826   6.982  20.318  0.00  0.00    +0.000 A 
ATOM      9  C   UNL     1       2.212   5.635  20.328  0.00  0.00    +0.000 A 
ATOM     10  C   UNL     1       2.943   5.102  19.246  0.00  0.00    +0.000 A 
ATOM     11  H   UNL     1       1.760   9.843  18.994  0.00  0.00    +0.000 HD
ENDROOT
BRANCH   6  12
ATOM     12  C   UNL     1       0.292  10.036  21.378  0.00  0.00    +0.000 A 
ATOM     13  C   UNL     1       0.368  11.338  20.873  0.00  0.00    +0.000 A 
ATOM     14  C   UNL     1      -0.315  12.344  21.536  0.00  0.00    +0.000 A 
ATOM     15  N   UNL     1      -1.050  12.146  22.648  0.00  0.00    +0.000 NA
ATOM     16  C   UNL     1      -1.124  10.881  23.111  0.00  0.00    +0.000 A 
ATOM     17  C   UNL     1      -0.486   9.808  22.516  0.00  0.00    +0.000 A 
ENDBRANCH   6  12
BRANCH  10  18
ATOM     18  N   UNL     1       3.258   3.704  19.277  0.00  0.00    +0.000 N 
ATOM     19  C   UNL     1       4.476   3.149  19.617  0.00  0.00    +0.000 A 
ATOM     20  C   UNL     1       4.352   1.793  19.466  0.00  0.00    +0.000 A 
ATOM     21  N   UNL     1       3.086   1.469  19.095  0.00  0.00    +0.000 NA
ATOM     22  C   UNL     1       2.428   2.611  18.996  0.00  0.00    +0.000 A 
ATOM     23  C   UNL     1       1.023   2.682  18.511  0.00  0.00    +0.000 C 
ENDBRANCH  10  18
TORSDOF 2
ENDMDL
MODEL 9
REMARK VINA RESULT:      -7.2      1.993      3.398
REMARK  Name = 
REMARK  4 active torsions:
REMARK  status: ('A' for Active; 'I' for Inactive)
REMARK    1  A    between atoms: C_1  and  C_2
REMARK    2  A    between atoms: C_6  and  C_7
REMARK    3  A    between atoms: C_16  and  N_17
REMARK    4  A    between atoms: C_21  and  C_22
REMARK                            x       y       z     vdW  Elec       q    Type
REMARK                         _______ _______ _______ _____ _____    ______ ____
ROOT
ATOM      1  C   UNL     1       4.081   5.560  16.942  0.00  0.00    +0.000 C 
ATOM      2  C   UNL     1       3.322   5.991  18.173  0.00  0.00    +0.000 A 
ATOM      3  C   UNL     1       2.938   7.354  18.206  0.00  0.00    +0.000 A 
ATOM      4  C   UNL     1       2.171   7.793  19.282  0.00  0.00    +0.000 A 
ATOM      5  N   UNL     1       1.618   9.007  19.598  0.00  0.00    +0.000 N 
ATOM      6  C   UNL     1       0.952   8.891  20.795  0.00  0.00    +0.000 A 
ATOM      7  N   UNL     1       1.085   7.666  21.271  0.00  0.00    +0.000 NA
ATOM      8  C   UNL     1       1.809   6.973  20.336  0.00  0.00    +0.000 A 
ATOM      9  C   UNL     1       2.210   5.631  20.325  0.00  0.00    +0.000 A 
ATOM     10  C   UNL     1       2.945   5.122  19.234  0.00  0.00    +0.000 A 
ATOM     11  H   UNL     1       1.707   9.853  19.055  0.00  0.00    +0.000 HD
ENDROOT
BRANCH   6  12
ATOM     12  C   UNL     1       0.244   9.994  21.445  0.00  0.00    +0.000 A 
ATOM     13  C   UNL     1      -0.539   9.803  22.588  0.00  0.00    +0.000 A 
ATOM     14  C   UNL     1      -1.184  10.900  23.137  0.00  0.00    +0.000 A 
ATOM     15  N   UNL     1      -1.107  12.147  22.632  0.00  0.00    +0.000 NA
ATOM     16  C   UNL     1      -0.334  12.314  21.538  0.00  0.00    +0.000 A 
ATOM     17  C   UNL     1       0.355  11.285  20.922  0.00  0.00    +0.000 A 
ENDBRANCH   6  12
BRANCH  10  18
ATOM     18  N   UNL     1       3.275   3.728  19.244  0.00  0.00    +0.000 N 
ATOM     19  C   UNL     1       4.504   3.182  19.561  0.00  0.00    +0.000 A 
ATOM     20  C   UNL     1       4.393   1.828  19.395  0.00  0.00    +0.000 A 
ATOM     21  N   UNL     1       3.126   1.494  19.036  0.00  0.00    +0.000 NA
ATOM     22  C   UNL     1       2.454   2.629  18.960  0.00  0.00    +0.000 A 
ATOM     23  C   UNL     1       1.042   2.690  18.495  0.00  0.00    +0.000 C 
ENDBRANCH  10  18
TORSDOF 2
ENDMDL
