MODEL 1
REMARK VINA RESULT:      -7.9      0.000      0.000
REMARK  Name = 
REMARK  7 active torsions:
REMARK  status: ('A' for Active; 'I' for Inactive)
REMARK    1  A    between atoms: C_1  and  N_2
REMARK    2  A    between atoms: C_5  and  C_6
REMARK    3  A    between atoms: C_6  and  O_7
REMARK    4  A    between atoms: O_7  and  C_8
REMARK    5  A    between atoms: C_9  and  C_10
REMARK    6  A    between atoms: C_16  and  C_17
REMARK    7  A    between atoms: C_20  and  N_21
REMARK                            x       y       z     vdW  Elec       q    Type
REMARK                         _______ _______ _______ _____ _____    ______ ____
ROOT
ATOM      1  C   UNL     1       2.899   6.554  18.529  0.00  0.00    +0.000 A 
ATOM      2  C   UNL     1       2.796   5.268  19.110  0.00  0.00    +0.000 A 
ATOM      3  C   UNL     1       2.078   5.184  20.318  0.00  0.00    +0.000 A 
ATOM      4  C   UNL     1       1.505   6.297  20.929  0.00  0.00    +0.000 A 
ATOM      5  C   UNL     1       1.606   7.569  20.355  0.00  0.00    +0.000 A 
ATOM      6  C   UNL     1       2.300   7.668  19.143  0.00  0.00    +0.000 A 
ATOM      7  F   UNL     1       2.339   8.864  18.536  0.00  0.00    +0.000 F 
ENDROOT
BRANCH   5   8
ATOM      8  C   UNL     1       0.991   8.730  21.015  0.00  0.00    +0.000 A 
ATOM      9  C   UNL     1       1.179   9.059  22.357  0.00  0.00    +0.000 A 
ATOM     10  N   UNL     1       0.545  10.088  22.978  0.00  0.00    +0.000 NA
ATOM     11  C   UNL     1      -0.302  10.799  22.216  0.00  0.00    +0.000 A 
ATOM     12  C   UNL     1      -0.489  10.487  20.874  0.00  0.00    +0.000 A 
ATOM     13  N   UNL     1       0.147   9.467  20.248  0.00  0.00    +0.000 NA
BRANCH  11  14
ATOM     14  N   UNL     1      -1.027  11.796  22.854  0.00  0.00    +0.000 N 
ATOM     15  H   UNL     1      -0.540  12.674  22.683  0.00  0.00    +0.000 HD
ATOM     16  H   UNL     1      -1.994  11.825  22.555  0.00  0.00    +0.000 HD
ENDBRANCH  11  14
ENDBRANCH   5   8
BRANCH   2  17
ATOM     17  C   UNL     1       3.427   3.962  18.452  0.00  0.00    +0.000 C 
ATOM     18  C   UNL     1       3.510   2.660  19.300  0.00  0.00    +0.000 C 
ATOM     19  C   UNL     1       3.206   1.867  18.014  0.00  0.00    +0.000 C 
ATOM     20  C   UNL     1       2.549   3.138  17.459  0.00  0.00    +0.000 C 
ENDBRANCH   2  17
BRANCH   1  21
ATOM     21  O   UNL     1       3.539   6.593  17.313  0.00  0.00    +0.000 OA
BRANCH  21  22
ATOM     22  C   UNL     1       4.910   7.017  17.300  0.00  0.00    +0.000 C 
BRANCH  22  27
ATOM     23  C   UNL     1       6.688   4.346  13.652  0.00  0.00    +0.000 C 
ATOM     24  N   UNL     1       6.536   4.835  15.001  0.00  0.00    +0.000 N 
ATOM     25  C   UNL     1       7.217   4.411  16.103  0.00  0.00    +0.000 A 
ATOM     26  C   UNL     1       6.741   5.161  17.149  0.00  0.00    +0.000 A 
ATOM     27  C   UNL     1       5.772   6.023  16.579  0.00  0.00    +0.000 A 
ATOM     28  N   UNL     1       5.642   5.808  15.260  0.00  0.00    +0.000 NA
ENDBRANCH  22  27
ENDBRANCH  21  22
ENDBRANCH   1  21
TORSDOF 6
ENDMDL
MODEL 2
REMARK VINA RESULT:      -7.8      1.666      7.728
REMARK  Name = 
REMARK  7 active torsions:
REMARK  status: ('A' for Active; 'I' for Inactive)
REMARK    1  A    between atoms: C_1  and  N_2
REMARK    2  A    between atoms: C_5  and  C_6
REMARK    3  A    between atoms: C_6  and  O_7
REMARK    4  A    between atoms: O_7  and  C_8
REMARK    5  A    between atoms: C_9  and  C_10
REMARK    6  A    between atoms: C_16  and  C_17
REMARK    7  A    between atoms: C_20  and  N_21
REMARK                            x       y       z     vdW  Elec       q    Type
REMARK                         _______ _______ _______ _____ _____    ______ ____
ROOT
ATOM      1  C   UNL     1       3.415   5.554  18.796  0.00  0.00    +0.000 A 
ATOM      2  C   UNL     1       2.975   4.274  19.206  0.00  0.00    +0.000 A 
ATOM      3  C   UNL     1       3.471   3.178  18.475  0.00  0.00    +0.000 A 
ATOM      4  C   UNL     1       4.338   3.328  17.395  0.00  0.00    +0.000 A 
ATOM      5  C   UNL     1       4.774   4.593  16.987  0.00  0.00    +0.000 A 
ATOM      6  C   UNL     1       4.306   5.694  17.717  0.00  0.00    +0.000 A 
ATOM      7  F   UNL     1       4.775   6.908  17.394  0.00  0.00    +0.000 F 
ENDROOT
BRANCH   5   8
ATOM      8  C   UNL     1       5.691   4.729  15.847  0.00  0.00    +0.000 A 
ATOM      9  C   UNL     1       6.920   5.386  15.903  0.00  0.00    +0.000 A 
ATOM     10  N   UNL     1       7.725   5.574  14.824  0.00  0.00    +0.000 NA
ATOM     11  C   UNL     1       7.268   5.085  13.660  0.00  0.00    +0.000 A 
ATOM     12  C   UNL     1       6.049   4.418  13.594  0.00  0.00    +0.000 A 
ATOM     13  N   UNL     1       5.247   4.221  14.668  0.00  0.00    +0.000 NA
BRANCH  11  14
ATOM     14  N   UNL     1       8.032   5.347  12.531  0.00  0.00    +0.000 N 
ATOM     15  H   UNL     1       7.453   5.897  11.900  0.00  0.00    +0.000 HD
ATOM     16  H   UNL     1       8.907   5.805  12.752  0.00  0.00    +0.000 HD
ENDBRANCH  11  14
ENDBRANCH   5   8
BRANCH   2  17
ATOM     17  C   UNL     1       1.990   4.045  20.436  0.00  0.00    +0.000 C 
ATOM     18  C   UNL     1       0.865   2.977  20.309  0.00  0.00    +0.000 C 
ATOM     19  C   UNL     1       1.086   2.645  21.797  0.00  0.00    +0.000 C 
ATOM     20  C   UNL     1       2.505   3.209  21.649  0.00  0.00    +0.000 C 
ENDBRANCH   2  17
BRANCH   1  21
ATOM     21  O   UNL     1       2.975   6.598  19.575  0.00  0.00    +0.000 OA
BRANCH  21  22
ATOM     22  C   UNL     1       2.273   7.664  18.919  0.00  0.00    +0.000 C 
BRANCH  22  27
ATOM     23  C   UNL     1      -0.210  11.421  20.740  0.00  0.00    +0.000 C 
ATOM     24  N   UNL     1       0.456  10.142  20.721  0.00  0.00    +0.000 N 
ATOM     25  C   UNL     1       0.606   9.286  21.772  0.00  0.00    +0.000 A 
ATOM     26  C   UNL     1       1.297   8.207  21.280  0.00  0.00    +0.000 A 
ATOM     27  C   UNL     1       1.516   8.497  19.910  0.00  0.00    +0.000 A 
ATOM     28  N   UNL     1       1.008   9.694  19.577  0.00  0.00    +0.000 NA
ENDBRANCH  22  27
ENDBRANCH  21  22
ENDBRANCH   1  21
TORSDOF 6
ENDMDL
MODEL 3
REMARK VINA RESULT:      -7.7      1.809      7.618
REMARK  Name = 
REMARK  7 active torsions:
REMARK  status: ('A' for Active; 'I' for Inactive)
REMARK    1  A    between atoms: C_1  and  N_2
REMARK    2  A    between atoms: C_5  and  C_6
REMARK    3  A    between atoms: C_6  and  O_7
REMARK    4  A    between atoms: O_7  and  C_8
REMARK    5  A    between atoms: C_9  and  C_10
REMARK    6  A    between atoms: C_16  and  C_17
REMARK    7  A    between atoms: C_20  and  N_21
REMARK                            x       y       z     vdW  Elec       q    Type
REMARK                         _______ _______ _______ _____ _____    ______ ____
ROOT
ATOM      1  C   UNL     1       2.807   5.192  18.255  0.00  0.00    +0.000 A 
ATOM      2  C   UNL     1       2.719   3.944  18.915  0.00  0.00    +0.000 A 
ATOM      3  C   UNL     1       3.637   2.956  18.509  0.00  0.00    +0.000 A 
ATOM      4  C   UNL     1       4.578   3.174  17.505  0.00  0.00    +0.000 A 
ATOM      5  C   UNL     1       4.666   4.408  16.852  0.00  0.00    +0.000 A 
ATOM      6  C   UNL     1       3.773   5.409  17.257  0.00  0.00    +0.000 A 
ATOM      7  F   UNL     1       3.895   6.623  16.700  0.00  0.00    +0.000 F 
ENDROOT
BRANCH   5   8
ATOM      8  C   UNL     1       5.668   4.618  15.797  0.00  0.00    +0.000 A 
ATOM      9  C   UNL     1       6.833   5.366  15.961  0.00  0.00    +0.000 A 
ATOM     10  N   UNL     1       7.715   5.620  14.958  0.00  0.00    +0.000 NA
ATOM     11  C   UNL     1       7.402   5.102  13.759  0.00  0.00    +0.000 A 
ATOM     12  C   UNL     1       6.248   4.345  13.587  0.00  0.00    +0.000 A 
ATOM     13  N   UNL     1       5.371   4.082  14.585  0.00  0.00    +0.000 NA
BRANCH  11  14
ATOM     14  N   UNL     1       8.242   5.426  12.702  0.00  0.00    +0.000 N 
ATOM     15  H   UNL     1       7.856   4.986  11.869  0.00  0.00    +0.000 HD
ATOM     16  H   UNL     1       8.360   6.425  12.592  0.00  0.00    +0.000 HD
ENDBRANCH  11  14
ENDBRANCH   5   8
BRANCH   2  17
ATOM     17  C   UNL     1       1.668   3.643  20.072  0.00  0.00    +0.000 C 
ATOM     18  C   UNL     1       1.337   2.162  20.421  0.00  0.00    +0.000 C 
ATOM     19  C   UNL     1       1.234   2.589  21.897  0.00  0.00    +0.000 C 
ATOM     20  C   UNL     1       2.140   3.779  21.553  0.00  0.00    +0.000 C 
ENDBRANCH   2  17
BRANCH   1  21
ATOM     21  O   UNL     1       1.950   6.160  18.725  0.00  0.00    +0.000 OA
BRANCH  21  22
ATOM     22  C   UNL     1       2.508   7.194  19.548  0.00  0.00    +0.000 C 
BRANCH  22  27
ATOM     23  C   UNL     1      -0.342  10.992  20.571  0.00  0.00    +0.000 C 
ATOM     24  N   UNL     1       0.508  10.132  19.785  0.00  0.00    +0.000 N 
ATOM     25  C   UNL     1       0.857  10.305  18.478  0.00  0.00    +0.000 A 
ATOM     26  C   UNL     1       1.674   9.247  18.167  0.00  0.00    +0.000 A 
ATOM     27  C   UNL     1       1.771   8.487  19.358  0.00  0.00    +0.000 A 
ATOM     28  N   UNL     1       1.041   9.030  20.345  0.00  0.00    +0.000 NA
ENDBRANCH  22  27
ENDBRANCH  21  22
ENDBRANCH   1  21
TORSDOF 6
ENDMDL
MODEL 4
REMARK VINA RESULT:      -7.7      1.992      2.632
REMARK  Name = 
REMARK  7 active torsions:
REMARK  status: ('A' for Active; 'I' for Inactive)
REMARK    1  A    between atoms: C_1  and  N_2
REMARK    2  A    between atoms: C_5  and  C_6
REMARK    3  A    between atoms: C_6  and  O_7
REMARK    4  A    between atoms: O_7  and  C_8
REMARK    5  A    between atoms: C_9  and  C_10
REMARK    6  A    between atoms: C_16  and  C_17
REMARK    7  A    between atoms: C_20  and  N_21
REMARK                            x       y       z     vdW  Elec       q    Type
REMARK                         _______ _______ _______ _____ _____    ______ ____
ROOT
ATOM      1  C   UNL     1       2.340   7.469  18.605  0.00  0.00    +0.000 A 
ATOM      2  C   UNL     1       2.142   6.768  19.817  0.00  0.00    +0.000 A 
ATOM      3  C   UNL     1       1.436   7.449  20.827  0.00  0.00    +0.000 A 
ATOM      4  C   UNL     1       0.963   8.750  20.663  0.00  0.00    +0.000 A 
ATOM      5  C   UNL     1       1.158   9.445  19.465  0.00  0.00    +0.000 A 
ATOM      6  C   UNL     1       1.841   8.774  18.442  0.00  0.00    +0.000 A 
ATOM      7  F   UNL     1       1.967   9.393  17.259  0.00  0.00    +0.000 F 
ENDROOT
BRANCH   5   8
ATOM      8  C   UNL     1       0.648  10.815  19.312  0.00  0.00    +0.000 A 
ATOM      9  C   UNL     1      -0.505  11.147  18.601  0.00  0.00    +0.000 A 
ATOM     10  N   UNL     1      -0.925  12.424  18.399  0.00  0.00    +0.000 NA
ATOM     11  C   UNL     1      -0.154  13.385  18.932  0.00  0.00    +0.000 A 
ATOM     12  C   UNL     1       0.991  13.065  19.653  0.00  0.00    +0.000 A 
ATOM     13  N   UNL     1       1.410  11.794  19.864  0.00  0.00    +0.000 NA
BRANCH  11  14
ATOM     14  N   UNL     1      -0.517  14.697  18.660  0.00  0.00    +0.000 N 
ATOM     15  H   UNL     1      -1.473  14.817  18.989  0.00  0.00    +0.000 HD
ATOM     16  H   UNL     1       0.120  15.369  19.071  0.00  0.00    +0.000 HD
ENDBRANCH  11  14
ENDBRANCH   5   8
BRANCH   2  17
ATOM     17  C   UNL     1       2.657   5.280  20.056  0.00  0.00    +0.000 C 
ATOM     18  C   UNL     1       2.196   4.521  21.334  0.00  0.00    +0.000 C 
ATOM     19  C   UNL     1       2.149   3.234  20.489  0.00  0.00    +0.000 C 
ATOM     20  C   UNL     1       1.980   4.127  19.251  0.00  0.00    +0.000 C 
ENDBRANCH   2  17
BRANCH   1  21
ATOM     21  O   UNL     1       2.965   6.752  17.612  0.00  0.00    +0.000 OA
BRANCH  21  22
ATOM     22  C   UNL     1       4.346   7.043  17.354  0.00  0.00    +0.000 C 
BRANCH  22  27
ATOM     23  C   UNL     1       6.944   4.749  13.950  0.00  0.00    +0.000 C 
ATOM     24  N   UNL     1       6.109   4.905  15.116  0.00  0.00    +0.000 N 
ATOM     25  C   UNL     1       5.618   3.908  15.906  0.00  0.00    +0.000 A 
ATOM     26  C   UNL     1       4.887   4.532  16.885  0.00  0.00    +0.000 A 
ATOM     27  C   UNL     1       5.001   5.917  16.610  0.00  0.00    +0.000 A 
ATOM     28  N   UNL     1       5.743   6.138  15.513  0.00  0.00    +0.000 NA
ENDBRANCH  22  27
ENDBRANCH  21  22
ENDBRANCH   1  21
TORSDOF 6
ENDMDL
MODEL 5
REMARK VINA RESULT:      -7.6      2.562      4.205
REMARK  Name = 
REMARK  7 active torsions:
REMARK  status: ('A' for Active; 'I' for Inactive)
REMARK    1  A    between atoms: C_1  and  N_2
REMARK    2  A    between atoms: C_5  and  C_6
REMARK    3  A    between atoms: C_6  and  O_7
REMARK    4  A    between atoms: O_7  and  C_8
REMARK    5  A    between atoms: C_9  and  C_10
REMARK    6  A    between atoms: C_16  and  C_17
REMARK    7  A    between atoms: C_20  and  N_21
REMARK                            x       y       z     vdW  Elec       q    Type
REMARK                         _______ _______ _______ _____ _____    ______ ____
ROOT
ATOM      1  C   UNL     1       2.421   7.103  19.578  0.00  0.00    +0.000 A 
ATOM      2  C   UNL     1       3.143   7.136  18.362  0.00  0.00    +0.000 A 
ATOM      3  C   UNL     1       2.887   8.229  17.511  0.00  0.00    +0.000 A 
ATOM      4  C   UNL     1       1.966   9.225  17.828  0.00  0.00    +0.000 A 
ATOM      5  C   UNL     1       1.252   9.194  19.031  0.00  0.00    +0.000 A 
ATOM      6  C   UNL     1       1.509   8.124  19.898  0.00  0.00    +0.000 A 
ATOM      7  F   UNL     1       0.895   8.119  21.090  0.00  0.00    +0.000 F 
ENDROOT
BRANCH   5   8
ATOM      8  C   UNL     1       0.287  10.257  19.346  0.00  0.00    +0.000 A 
ATOM      9  C   UNL     1      -1.007  10.320  18.830  0.00  0.00    +0.000 A 
ATOM     10  N   UNL     1      -1.864  11.348  19.065  0.00  0.00    +0.000 NA
ATOM     11  C   UNL     1      -1.394  12.336  19.843  0.00  0.00    +0.000 A 
ATOM     12  C   UNL     1      -0.109  12.279  20.373  0.00  0.00    +0.000 A 
ATOM     13  N   UNL     1       0.746  11.253  20.148  0.00  0.00    +0.000 NA
BRANCH  11  14
ATOM     14  N   UNL     1      -2.221  13.437  20.021  0.00  0.00    +0.000 N 
ATOM     15  H   UNL     1      -3.030  13.303  19.417  0.00  0.00    +0.000 HD
ATOM     16  H   UNL     1      -2.481  13.575  20.990  0.00  0.00    +0.000 HD
ENDBRANCH  11  14
ENDBRANCH   5   8
BRANCH   2  17
ATOM     17  C   UNL     1       4.210   6.027  17.952  0.00  0.00    +0.000 C 
ATOM     18  C   UNL     1       3.768   4.870  17.011  0.00  0.00    +0.000 C 
ATOM     19  C   UNL     1       5.166   4.930  16.368  0.00  0.00    +0.000 C 
ATOM     20  C   UNL     1       5.260   6.383  16.853  0.00  0.00    +0.000 C 
ENDBRANCH   2  17
BRANCH   1  21
ATOM     21  O   UNL     1       2.748   6.067  20.421  0.00  0.00    +0.000 OA
BRANCH  21  22
ATOM     22  C   UNL     1       1.698   5.165  20.798  0.00  0.00    +0.000 C 
BRANCH  22  27
ATOM     23  C   UNL     1       3.686   1.270  18.681  0.00  0.00    +0.000 C 
ATOM     24  N   UNL     1       2.652   2.195  19.076  0.00  0.00    +0.000 N 
ATOM     25  C   UNL     1       1.329   2.124  18.757  0.00  0.00    +0.000 A 
ATOM     26  C   UNL     1       0.740   3.210  19.354  0.00  0.00    +0.000 A 
ATOM     27  C   UNL     1       1.792   3.881  20.026  0.00  0.00    +0.000 A 
ATOM     28  N   UNL     1       2.967   3.259  19.839  0.00  0.00    +0.000 NA
ENDBRANCH  22  27
ENDBRANCH  21  22
ENDBRANCH   1  21
TORSDOF 6
ENDMDL
MODEL 6
REMARK VINA RESULT:      -7.3      1.285      1.709
REMARK  Name = 
REMARK  7 active torsions:
REMARK  status: ('A' for Active; 'I' for Inactive)
REMARK    1  A    between atoms: C_1  and  N_2
REMARK    2  A    between atoms: C_5  and  C_6
REMARK    3  A    between atoms: C_6  and  O_7
REMARK    4  A    between atoms: O_7  and  C_8
REMARK    5  A    between atoms: C_9  and  C_10
REMARK    6  A    between atoms: C_16  and  C_17
REMARK    7  A    between atoms: C_20  and  N_21
REMARK                            x       y       z     vdW  Elec       q    Type
REMARK                         _______ _______ _______ _____ _____    ______ ____
ROOT
ATOM      1  C   UNL     1       2.932   6.308  18.362  0.00  0.00    +0.000 A 
ATOM      2  C   UNL     1       2.819   5.050  18.997  0.00  0.00    +0.000 A 
ATOM      3  C   UNL     1       2.141   5.031  20.232  0.00  0.00    +0.000 A 
ATOM      4  C   UNL     1       1.617   6.182  20.817  0.00  0.00    +0.000 A 
ATOM      5  C   UNL     1       1.729   7.428  20.189  0.00  0.00    +0.000 A 
ATOM      6  C   UNL     1       2.382   7.461  18.951  0.00  0.00    +0.000 A 
ATOM      7  F   UNL     1       2.429   8.630  18.295  0.00  0.00    +0.000 F 
ENDROOT
BRANCH   5   8
ATOM      8  C   UNL     1       1.166   8.629  20.823  0.00  0.00    +0.000 A 
ATOM      9  C   UNL     1       1.336   8.958  22.167  0.00  0.00    +0.000 A 
ATOM     10  N   UNL     1       0.747  10.029  22.761  0.00  0.00    +0.000 NA
ATOM     11  C   UNL     1      -0.035  10.782  21.971  0.00  0.00    +0.000 A 
ATOM     12  C   UNL     1      -0.202  10.469  20.625  0.00  0.00    +0.000 A 
ATOM     13  N   UNL     1       0.389   9.408  20.026  0.00  0.00    +0.000 NA
BRANCH  11  14
ATOM     14  N   UNL     1      -0.716  11.826  22.579  0.00  0.00    +0.000 N 
ATOM     15  H   UNL     1      -0.172  12.671  22.420  0.00  0.00    +0.000 HD
ATOM     16  H   UNL     1      -1.670  11.912  22.249  0.00  0.00    +0.000 HD
ENDBRANCH  11  14
ENDBRANCH   5   8
BRANCH   2  17
ATOM     17  C   UNL     1       3.394   3.703  18.372  0.00  0.00    +0.000 C 
ATOM     18  C   UNL     1       4.119   2.691  19.305  0.00  0.00    +0.000 C 
ATOM     19  C   UNL     1       3.493   1.556  18.472  0.00  0.00    +0.000 C 
ATOM     20  C   UNL     1       2.394   2.546  18.064  0.00  0.00    +0.000 C 
ENDBRANCH   2  17
BRANCH   1  21
ATOM     21  O   UNL     1       3.530   6.283  17.124  0.00  0.00    +0.000 OA
BRANCH  21  22
ATOM     22  C   UNL     1       4.786   6.963  16.982  0.00  0.00    +0.000 C 
BRANCH  22  27
ATOM     23  C   UNL     1       8.349   5.326  19.850  0.00  0.00    +0.000 C 
ATOM     24  N   UNL     1       7.491   5.398  18.693  0.00  0.00    +0.000 N 
ATOM     25  C   UNL     1       7.548   4.605  17.585  0.00  0.00    +0.000 A 
ATOM     26  C   UNL     1       6.541   5.041  16.761  0.00  0.00    +0.000 A 
ATOM     27  C   UNL     1       5.918   6.103  17.462  0.00  0.00    +0.000 A 
ATOM     28  N   UNL     1       6.516   6.326  18.643  0.00  0.00    +0.000 NA
ENDBRANCH  22  27
ENDBRANCH  21  22
ENDBRANCH   1  21
TORSDOF 6
ENDMDL
MODEL 7
REMARK VINA RESULT:      -7.3      2.323      3.876
REMARK  Name = 
REMARK  7 active torsions:
REMARK  status: ('A' for Active; 'I' for Inactive)
REMARK    1  A    between atoms: C_1  and  N_2
REMARK    2  A    between atoms: C_5  and  C_6
REMARK    3  A    between atoms: C_6  and  O_7
REMARK    4  A    between atoms: O_7  and  C_8
REMARK    5  A    between atoms: C_9  and  C_10
REMARK    6  A    between atoms: C_16  and  C_17
REMARK    7  A    between atoms: C_20  and  N_21
REMARK                            x       y       z     vdW  Elec       q    Type
REMARK                         _______ _______ _______ _____ _____    ______ ____
ROOT
ATOM      1  C   UNL     1       2.426   7.088  19.660  0.00  0.00    +0.000 A 
ATOM      2  C   UNL     1       2.941   7.215  18.348  0.00  0.00    +0.000 A 
ATOM      3  C   UNL     1       2.608   8.395  17.657  0.00  0.00    +0.000 A 
ATOM      4  C   UNL     1       1.806   9.389  18.214  0.00  0.00    +0.000 A 
ATOM      5  C   UNL     1       1.296   9.266  19.511  0.00  0.00    +0.000 A 
ATOM      6  C   UNL     1       1.635   8.106  20.220  0.00  0.00    +0.000 A 
ATOM      7  F   UNL     1       1.223   8.005  21.493  0.00  0.00    +0.000 F 
ENDROOT
BRANCH   5   8
ATOM      8  C   UNL     1       0.454  10.327  20.080  0.00  0.00    +0.000 A 
ATOM      9  C   UNL     1       0.692  10.941  21.309  0.00  0.00    +0.000 A 
ATOM     10  N   UNL     1      -0.136  11.866  21.863  0.00  0.00    +0.000 NA
ATOM     11  C   UNL     1      -1.232  12.172  21.151  0.00  0.00    +0.000 A 
ATOM     12  C   UNL     1      -1.473  11.574  19.918  0.00  0.00    +0.000 A 
ATOM     13  N   UNL     1      -0.647  10.658  19.358  0.00  0.00    +0.000 NA
BRANCH  11  14
ATOM     14  N   UNL     1      -2.135  13.046  21.740  0.00  0.00    +0.000 N 
ATOM     15  H   UNL     1      -2.068  13.929  21.237  0.00  0.00    +0.000 HD
ATOM     16  H   UNL     1      -3.078  12.679  21.754  0.00  0.00    +0.000 HD
ENDBRANCH  11  14
ENDBRANCH   5   8
BRANCH   2  17
ATOM     17  C   UNL     1       3.866   6.113  17.666  0.00  0.00    +0.000 C 
ATOM     18  C   UNL     1       4.679   6.496  16.396  0.00  0.00    +0.000 C 
ATOM     19  C   UNL     1       5.815   5.595  16.916  0.00  0.00    +0.000 C 
ATOM     20  C   UNL     1       5.243   5.793  18.326  0.00  0.00    +0.000 C 
ENDBRANCH   2  17
BRANCH   1  21
ATOM     21  O   UNL     1       2.830   5.962  20.337  0.00  0.00    +0.000 OA
BRANCH  21  22
ATOM     22  C   UNL     1       1.858   4.926  20.538  0.00  0.00    +0.000 C 
BRANCH  22  27
ATOM     23  C   UNL     1       3.994   1.079  18.478  0.00  0.00    +0.000 C 
ATOM     24  N   UNL     1       3.021   2.128  18.665  0.00  0.00    +0.000 N 
ATOM     25  C   UNL     1       1.941   2.387  17.874  0.00  0.00    +0.000 A 
ATOM     26  C   UNL     1       1.311   3.466  18.442  0.00  0.00    +0.000 A 
ATOM     27  C   UNL     1       2.083   3.788  19.586  0.00  0.00    +0.000 A 
ATOM     28  N   UNL     1       3.140   2.970  19.709  0.00  0.00    +0.000 NA
ENDBRANCH  22  27
ENDBRANCH  21  22
ENDBRANCH   1  21
TORSDOF 6
ENDMDL
MODEL 8
REMARK VINA RESULT:      -7.2      1.494      1.920
REMARK  Name = 
REMARK  7 active torsions:
REMARK  status: ('A' for Active; 'I' for Inactive)
REMARK    1  A    between atoms: C_1  and  N_2
REMARK    2  A    between atoms: C_5  and  C_6
REMARK    3  A    between atoms: C_6  and  O_7
REMARK    4  A    between atoms: O_7  and  C_8
REMARK    5  A    between atoms: C_9  and  C_10
REMARK    6  A    between atoms: C_16  and  C_17
REMARK    7  A    between atoms: C_20  and  N_21
REMARK                            x       y       z     vdW  Elec       q    Type
REMARK                         _______ _______ _______ _____ _____    ______ ____
ROOT
ATOM      1  C   UNL     1       3.248   6.094  18.206  0.00  0.00    +0.000 A 
ATOM      2  C   UNL     1       3.028   4.852  18.847  0.00  0.00    +0.000 A 
ATOM      3  C   UNL     1       2.267   4.885  20.031  0.00  0.00    +0.000 A 
ATOM      4  C   UNL     1       1.761   6.069  20.564  0.00  0.00    +0.000 A 
ATOM      5  C   UNL     1       1.978   7.298  19.932  0.00  0.00    +0.000 A 
ATOM      6  C   UNL     1       2.717   7.280  18.741  0.00  0.00    +0.000 A 
ATOM      7  F   UNL     1       2.867   8.436  18.078  0.00  0.00    +0.000 F 
ENDROOT
BRANCH   5   8
ATOM      8  C   UNL     1       1.433   8.534  20.510  0.00  0.00    +0.000 A 
ATOM      9  C   UNL     1       1.406   8.815  21.875  0.00  0.00    +0.000 A 
ATOM     10  N   UNL     1       0.830   9.925  22.406  0.00  0.00    +0.000 NA
ATOM     11  C   UNL     1       0.265  10.769  21.528  0.00  0.00    +0.000 A 
ATOM     12  C   UNL     1       0.295  10.505  20.162  0.00  0.00    +0.000 A 
ATOM     13  N   UNL     1       0.876   9.404  19.628  0.00  0.00    +0.000 NA
BRANCH  11  14
ATOM     14  N   UNL     1      -0.408  11.862  22.056  0.00  0.00    +0.000 N 
ATOM     15  H   UNL     1      -0.297  11.820  23.068  0.00  0.00    +0.000 HD
ATOM     16  H   UNL     1      -0.087  12.741  21.669  0.00  0.00    +0.000 HD
ENDBRANCH  11  14
ENDBRANCH   5   8
BRANCH   2  17
ATOM     17  C   UNL     1       3.578   3.470  18.278  0.00  0.00    +0.000 C 
ATOM     18  C   UNL     1       4.098   2.399  19.280  0.00  0.00    +0.000 C 
ATOM     19  C   UNL     1       3.503   1.321  18.355  0.00  0.00    +0.000 C 
ATOM     20  C   UNL     1       2.543   2.394  17.824  0.00  0.00    +0.000 C 
ENDBRANCH   2  17
BRANCH   1  21
ATOM     21  O   UNL     1       3.929   6.021  17.014  0.00  0.00    +0.000 OA
BRANCH  21  22
ATOM     22  C   UNL     1       5.163   5.289  17.000  0.00  0.00    +0.000 C 
BRANCH  22  27
ATOM     23  C   UNL     1       8.146   9.054  17.722  0.00  0.00    +0.000 C 
ATOM     24  N   UNL     1       7.599   7.730  17.891  0.00  0.00    +0.000 N 
ATOM     25  C   UNL     1       8.066   6.755  18.722  0.00  0.00    +0.000 A 
ATOM     26  C   UNL     1       7.231   5.681  18.545  0.00  0.00    +0.000 A 
ATOM     27  C   UNL     1       6.277   6.104  17.588  0.00  0.00    +0.000 A 
ATOM     28  N   UNL     1       6.517   7.360  17.180  0.00  0.00    +0.000 NA
ENDBRANCH  22  27
ENDBRANCH  21  22
ENDBRANCH   1  21
TORSDOF 6
ENDMDL
MODEL 9
REMARK VINA RESULT:      -7.2      2.560      4.978
REMARK  Name = 
REMARK  7 active torsions:
REMARK  status: ('A' for Active; 'I' for Inactive)
REMARK    1  A    between atoms: C_1  and  N_2
REMARK    2  A    between atoms: C_5  and  C_6
REMARK    3  A    between atoms: C_6  and  O_7
REMARK    4  A    between atoms: O_7  and  C_8
REMARK    5  A    between atoms: C_9  and  C_10
REMARK    6  A    between atoms: C_16  and  C_17
REMARK    7  A    between atoms: C_20  and  N_21
REMARK                            x       y       z     vdW  Elec       q    Type
REMARK                         _______ _______ _______ _____ _____    ______ ____
ROOT
ATOM      1  C   UNL     1       3.691   4.801  16.959  0.00  0.00    +0.000 A 
ATOM      2  C   UNL     1       4.894   5.300  16.406  0.00  0.00    +0.000 A 
ATOM      3  C   UNL     1       5.188   6.653  16.664  0.00  0.00    +0.000 A 
ATOM      4  C   UNL     1       4.345   7.474  17.411  0.00  0.00    +0.000 A 
ATOM      5  C   UNL     1       3.156   6.982  17.959  0.00  0.00    +0.000 A 
ATOM      6  C   UNL     1       2.858   5.632  17.728  0.00  0.00    +0.000 A 
ATOM      7  F   UNL     1       1.764   5.121  18.312  0.00  0.00    +0.000 F 
ENDROOT
BRANCH   5   8
ATOM      8  C   UNL     1       2.283   7.864  18.746  0.00  0.00    +0.000 A 
ATOM      9  C   UNL     1       1.693   9.027  18.252  0.00  0.00    +0.000 A 
ATOM     10  N   UNL     1       0.951   9.877  19.009  0.00  0.00    +0.000 NA
ATOM     11  C   UNL     1       0.808   9.539  20.300  0.00  0.00    +0.000 A 
ATOM     12  C   UNL     1       1.383   8.376  20.802  0.00  0.00    +0.000 A 
ATOM     13  N   UNL     1       2.116   7.520  20.050  0.00  0.00    +0.000 NA
BRANCH  11  14
ATOM     14  N   UNL     1       0.132  10.441  21.110  0.00  0.00    +0.000 N 
ATOM     15  H   UNL     1      -0.367  11.080  20.494  0.00  0.00    +0.000 HD
ATOM     16  H   UNL     1      -0.483   9.983  21.772  0.00  0.00    +0.000 HD
ENDBRANCH  11  14
ENDBRANCH   5   8
BRANCH   2  17
ATOM     17  C   UNL     1       5.895   4.406  15.549  0.00  0.00    +0.000 C 
ATOM     18  C   UNL     1       5.534   4.077  14.072  0.00  0.00    +0.000 C 
ATOM     19  C   UNL     1       7.033   4.189  13.736  0.00  0.00    +0.000 C 
ATOM     20  C   UNL     1       7.182   5.079  14.978  0.00  0.00    +0.000 C 
ENDBRANCH   2  17
BRANCH   1  21
ATOM     21  O   UNL     1       3.469   3.460  16.755  0.00  0.00    +0.000 OA
BRANCH  21  22
ATOM     22  C   UNL     1       3.804   2.564  17.824  0.00  0.00    +0.000 C 
BRANCH  22  27
ATOM     23  C   UNL     1       1.560   2.617  22.132  0.00  0.00    +0.000 C 
ATOM     24  N   UNL     1       1.708   2.483  20.704  0.00  0.00    +0.000 N 
ATOM     25  C   UNL     1       0.729   2.172  19.808  0.00  0.00    +0.000 A 
ATOM     26  C   UNL     1       1.336   2.161  18.578  0.00  0.00    +0.000 A 
ATOM     27  C   UNL     1       2.691   2.489  18.828  0.00  0.00    +0.000 A 
ATOM     28  N   UNL     1       2.916   2.672  20.139  0.00  0.00    +0.000 NA
ENDBRANCH  22  27
ENDBRANCH  21  22
ENDBRANCH   1  21
TORSDOF 6
ENDMDL
