MODEL 1
REMARK VINA RESULT:      -7.6      0.000      0.000
REMARK  Name = 
REMARK  9 active torsions:
REMARK  status: ('A' for Active; 'I' for Inactive)
REMARK    1  A    between atoms: C_1  and  O_2
REMARK    2  A    between atoms: O_2  and  C_3
REMARK    3  A    between atoms: C_3  and  C_5
REMARK    4  A    between atoms: C_9  and  C_10
REMARK    5  A    between atoms: C_11  and  C_12
REMARK    6  A    between atoms: C_12  and  C_14
REMARK    7  A    between atoms: C_17  and  O_18
REMARK    8  A    between atoms: O_18  and  C_19
REMARK    9  A    between atoms: C_20  and  O_21
REMARK                            x       y       z     vdW  Elec       q    Type
REMARK                         _______ _______ _______ _____ _____    ______ ____
ROOT
ATOM      1  C   UNL     1       8.078   8.891  17.534  0.00  0.00    +0.000 C 
ATOM      2  C   UNL     1       7.850   7.667  18.034  0.00  0.00    +0.000 C 
ENDROOT
BRANCH   1   7
ATOM      3  C   UNL     1       9.644  12.223  18.476  0.00  0.00    +0.000 A 
ATOM      4  C   UNL     1       9.962  11.987  19.818  0.00  0.00    +0.000 A 
ATOM      5  C   UNL     1       9.667  10.754  20.399  0.00  0.00    +0.000 A 
ATOM      6  C   UNL     1       9.047   9.753  19.644  0.00  0.00    +0.000 A 
ATOM      7  C   UNL     1       8.706   9.976  18.305  0.00  0.00    +0.000 A 
ATOM      8  C   UNL     1       9.019  11.214  17.725  0.00  0.00    +0.000 A 
BRANCH   3   9
ATOM      9  C   UNL     1      10.005  13.542  17.882  0.00  0.00    +0.000 C 
ATOM     10  O   UNL     1      10.818  13.678  16.982  0.00  0.00    +0.000 OA
BRANCH   9  12
ATOM     11  C   UNL     1      10.094  15.662  18.871  0.00  0.00    +0.000 C 
ATOM     12  O   UNL     1       9.304  14.537  18.481  0.00  0.00    +0.000 OA
ENDBRANCH   9  12
ENDBRANCH   3   9
ENDBRANCH   1   7
BRANCH   2  13
ATOM     13  C   UNL     1       7.235   6.602  17.195  0.00  0.00    +0.000 C 
ATOM     14  O   UNL     1       7.657   6.318  16.081  0.00  0.00    +0.000 OA
BRANCH  13  15
ATOM     15  C   UNL     1       6.033   5.926  17.752  0.00  0.00    +0.000 A 
ATOM     16  C   UNL     1       4.789   6.558  17.669  0.00  0.00    +0.000 A 
ATOM     17  C   UNL     1       3.658   5.950  18.232  0.00  0.00    +0.000 A 
ATOM     18  C   UNL     1       3.752   4.705  18.863  0.00  0.00    +0.000 A 
ATOM     19  C   UNL     1       5.000   4.082  18.932  0.00  0.00    +0.000 A 
ATOM     20  C   UNL     1       6.127   4.671  18.361  0.00  0.00    +0.000 A 
BRANCH  18  21
ATOM     21  O   UNL     1       2.596   4.249  19.432  0.00  0.00    +0.000 OA
ATOM     22  C   UNL     1       2.266   4.777  20.715  0.00  0.00    +0.000 C 
ENDBRANCH  18  21
BRANCH  19  23
ATOM     23  O   UNL     1       5.223   2.920  19.611  0.00  0.00    +0.000 OA
ATOM     24  H   UNL     1       5.214   3.148  20.556  0.00  0.00    +0.000 HD
ENDBRANCH  19  23
ENDBRANCH  13  15
ENDBRANCH   2  13
TORSDOF 7
ENDMDL
MODEL 2
REMARK VINA RESULT:      -7.5      5.617      7.543
REMARK  Name = 
REMARK  9 active torsions:
REMARK  status: ('A' for Active; 'I' for Inactive)
REMARK    1  A    between atoms: C_1  and  O_2
REMARK    2  A    between atoms: O_2  and  C_3
REMARK    3  A    between atoms: C_3  and  C_5
REMARK    4  A    between atoms: C_9  and  C_10
REMARK    5  A    between atoms: C_11  and  C_12
REMARK    6  A    between atoms: C_12  and  C_14
REMARK    7  A    between atoms: C_17  and  O_18
REMARK    8  A    between atoms: O_18  and  C_19
REMARK    9  A    between atoms: C_20  and  O_21
REMARK                            x       y       z     vdW  Elec       q    Type
REMARK                         _______ _______ _______ _____ _____    ______ ____
ROOT
ATOM      1  C   UNL     1       2.489   6.751  19.011  0.00  0.00    +0.000 C 
ATOM      2  C   UNL     1       2.604   5.767  19.916  0.00  0.00    +0.000 C 
ENDROOT
BRANCH   1   7
ATOM      3  C   UNL     1       0.801   9.624  20.837  0.00  0.00    +0.000 A 
ATOM      4  C   UNL     1       0.737  10.576  19.814  0.00  0.00    +0.000 A 
ATOM      5  C   UNL     1       1.240  10.276  18.548  0.00  0.00    +0.000 A 
ATOM      6  C   UNL     1       1.813   9.025  18.299  0.00  0.00    +0.000 A 
ATOM      7  C   UNL     1       1.902   8.065  19.315  0.00  0.00    +0.000 A 
ATOM      8  C   UNL     1       1.381   8.371  20.581  0.00  0.00    +0.000 A 
BRANCH   3   9
ATOM      9  C   UNL     1       0.224   9.971  22.168  0.00  0.00    +0.000 C 
ATOM     10  O   UNL     1       0.787   9.748  23.227  0.00  0.00    +0.000 OA
BRANCH   9  12
ATOM     11  C   UNL     1      -1.338  11.465  23.065  0.00  0.00    +0.000 C 
ATOM     12  O   UNL     1      -0.989  10.560  22.017  0.00  0.00    +0.000 OA
ENDBRANCH   9  12
ENDBRANCH   3   9
ENDBRANCH   1   7
BRANCH   2  13
ATOM     13  C   UNL     1       3.232   4.466  19.554  0.00  0.00    +0.000 C 
ATOM     14  O   UNL     1       2.881   3.406  20.056  0.00  0.00    +0.000 OA
BRANCH  13  15
ATOM     15  C   UNL     1       4.360   4.517  18.586  0.00  0.00    +0.000 A 
ATOM     16  C   UNL     1       4.111   4.291  17.229  0.00  0.00    +0.000 A 
ATOM     17  C   UNL     1       5.174   4.290  16.315  0.00  0.00    +0.000 A 
ATOM     18  C   UNL     1       6.485   4.531  16.740  0.00  0.00    +0.000 A 
ATOM     19  C   UNL     1       6.718   4.762  18.097  0.00  0.00    +0.000 A 
ATOM     20  C   UNL     1       5.665   4.781  19.010  0.00  0.00    +0.000 A 
BRANCH  18  21
ATOM     21  O   UNL     1       7.441   4.436  15.767  0.00  0.00    +0.000 OA
ATOM     22  C   UNL     1       7.053   4.826  14.452  0.00  0.00    +0.000 C 
ENDBRANCH  18  21
BRANCH  19  23
ATOM     23  O   UNL     1       7.964   4.907  18.632  0.00  0.00    +0.000 OA
ATOM     24  H   UNL     1       8.578   4.985  17.881  0.00  0.00    +0.000 HD
ENDBRANCH  19  23
ENDBRANCH  13  15
ENDBRANCH   2  13
TORSDOF 7
ENDMDL
MODEL 3
REMARK VINA RESULT:      -7.3      5.017      7.626
REMARK  Name = 
REMARK  9 active torsions:
REMARK  status: ('A' for Active; 'I' for Inactive)
REMARK    1  A    between atoms: C_1  and  O_2
REMARK    2  A    between atoms: O_2  and  C_3
REMARK    3  A    between atoms: C_3  and  C_5
REMARK    4  A    between atoms: C_9  and  C_10
REMARK    5  A    between atoms: C_11  and  C_12
REMARK    6  A    between atoms: C_12  and  C_14
REMARK    7  A    between atoms: C_17  and  O_18
REMARK    8  A    between atoms: O_18  and  C_19
REMARK    9  A    between atoms: C_20  and  O_21
REMARK                            x       y       z     vdW  Elec       q    Type
REMARK                         _______ _______ _______ _____ _____    ______ ____
ROOT
ATOM      1  C   UNL     1       2.763   6.880  18.591  0.00  0.00    +0.000 C 
ATOM      2  C   UNL     1       3.210   5.980  19.481  0.00  0.00    +0.000 C 
ENDROOT
BRANCH   1   7
ATOM      3  C   UNL     1       0.687   9.387  20.553  0.00  0.00    +0.000 A 
ATOM      4  C   UNL     1       0.570  10.415  19.612  0.00  0.00    +0.000 A 
ATOM      5  C   UNL     1       1.163  10.284  18.356  0.00  0.00    +0.000 A 
ATOM      6  C   UNL     1       1.880   9.127  18.037  0.00  0.00    +0.000 A 
ATOM      7  C   UNL     1       2.023   8.094  18.971  0.00  0.00    +0.000 A 
ATOM      8  C   UNL     1       1.412   8.229  20.226  0.00  0.00    +0.000 A 
BRANCH   3   9
ATOM      9  C   UNL     1       0.012   9.551  21.873  0.00  0.00    +0.000 C 
ATOM     10  O   UNL     1      -0.610   8.660  22.428  0.00  0.00    +0.000 OA
BRANCH   9  12
ATOM     11  C   UNL     1      -0.987  11.430  22.848  0.00  0.00    +0.000 C 
ATOM     12  O   UNL     1       0.197  10.810  22.344  0.00  0.00    +0.000 OA
ENDBRANCH   9  12
ENDBRANCH   3   9
ENDBRANCH   1   7
BRANCH   2  13
ATOM     13  C   UNL     1       3.977   4.784  19.037  0.00  0.00    +0.000 C 
ATOM     14  O   UNL     1       3.980   3.734  19.668  0.00  0.00    +0.000 OA
BRANCH  13  15
ATOM     15  C   UNL     1       4.798   4.937  17.806  0.00  0.00    +0.000 A 
ATOM     16  C   UNL     1       4.535   4.125  16.699  0.00  0.00    +0.000 A 
ATOM     17  C   UNL     1       5.333   4.229  15.551  0.00  0.00    +0.000 A 
ATOM     18  C   UNL     1       6.383   5.151  15.489  0.00  0.00    +0.000 A 
ATOM     19  C   UNL     1       6.630   5.961  16.600  0.00  0.00    +0.000 A 
ATOM     20  C   UNL     1       5.831   5.876  17.739  0.00  0.00    +0.000 A 
BRANCH  18  21
ATOM     21  O   UNL     1       7.130   5.110  14.345  0.00  0.00    +0.000 OA
ATOM     22  C   UNL     1       6.679   4.226  13.321  0.00  0.00    +0.000 C 
ENDBRANCH  18  21
BRANCH  19  23
ATOM     23  O   UNL     1       7.687   6.819  16.684  0.00  0.00    +0.000 OA
ATOM     24  H   UNL     1       8.006   6.952  15.775  0.00  0.00    +0.000 HD
ENDBRANCH  19  23
ENDBRANCH  13  15
ENDBRANCH   2  13
TORSDOF 7
ENDMDL
MODEL 4
REMARK VINA RESULT:      -7.3      5.785      8.136
REMARK  Name = 
REMARK  9 active torsions:
REMARK  status: ('A' for Active; 'I' for Inactive)
REMARK    1  A    between atoms: C_1  and  O_2
REMARK    2  A    between atoms: O_2  and  C_3
REMARK    3  A    between atoms: C_3  and  C_5
REMARK    4  A    between atoms: C_9  and  C_10
REMARK    5  A    between atoms: C_11  and  C_12
REMARK    6  A    between atoms: C_12  and  C_14
REMARK    7  A    between atoms: C_17  and  O_18
REMARK    8  A    between atoms: O_18  and  C_19
REMARK    9  A    between atoms: C_20  and  O_21
REMARK                            x       y       z     vdW  Elec       q    Type
REMARK                         _______ _______ _______ _____ _____    ______ ____
ROOT
ATOM      1  C   UNL     1       6.059   4.976  15.966  0.00  0.00    +0.000 C 
ATOM      2  C   UNL     1       6.801   4.496  16.975  0.00  0.00    +0.000 C 
ENDROOT
BRANCH   1   7
ATOM      3  C   UNL     1       5.900   3.606  12.424  0.00  0.00    +0.000 A 
ATOM      4  C   UNL     1       7.024   4.221  11.861  0.00  0.00    +0.000 A 
ATOM      5  C   UNL     1       7.818   5.069  12.634  0.00  0.00    +0.000 A 
ATOM      6  C   UNL     1       7.490   5.311  13.971  0.00  0.00    +0.000 A 
ATOM      7  C   UNL     1       6.359   4.718  14.548  0.00  0.00    +0.000 A 
ATOM      8  C   UNL     1       5.575   3.857  13.767  0.00  0.00    +0.000 A 
BRANCH   3   9
ATOM      9  C   UNL     1       5.095   2.682  11.575  0.00  0.00    +0.000 C 
ATOM     10  O   UNL     1       4.098   3.026  10.960  0.00  0.00    +0.000 OA
BRANCH   9  12
ATOM     11  C   UNL     1       6.843   1.308  10.842  0.00  0.00    +0.000 C 
ATOM     12  O   UNL     1       5.633   1.437  11.591  0.00  0.00    +0.000 OA
ENDBRANCH   9  12
ENDBRANCH   3   9
ENDBRANCH   1   7
BRANCH   2  13
ATOM     13  C   UNL     1       6.431   4.769  18.391  0.00  0.00    +0.000 C 
ATOM     14  O   UNL     1       7.222   5.241  19.198  0.00  0.00    +0.000 OA
BRANCH  13  15
ATOM     15  C   UNL     1       5.054   4.387  18.806  0.00  0.00    +0.000 A 
ATOM     16  C   UNL     1       4.289   5.285  19.556  0.00  0.00    +0.000 A 
ATOM     17  C   UNL     1       3.008   4.915  19.992  0.00  0.00    +0.000 A 
ATOM     18  C   UNL     1       2.475   3.663  19.670  0.00  0.00    +0.000 A 
ATOM     19  C   UNL     1       3.248   2.779  18.914  0.00  0.00    +0.000 A 
ATOM     20  C   UNL     1       4.516   3.144  18.463  0.00  0.00    +0.000 A 
BRANCH  18  21
ATOM     21  O   UNL     1       1.248   3.394  20.210  0.00  0.00    +0.000 OA
ATOM     22  C   UNL     1       1.239   2.775  21.495  0.00  0.00    +0.000 C 
ENDBRANCH  18  21
BRANCH  19  23
ATOM     23  O   UNL     1       2.868   1.500  18.632  0.00  0.00    +0.000 OA
ATOM     24  H   UNL     1       1.991   1.560  18.214  0.00  0.00    +0.000 HD
ENDBRANCH  19  23
ENDBRANCH  13  15
ENDBRANCH   2  13
TORSDOF 7
ENDMDL
MODEL 5
REMARK VINA RESULT:      -7.3      5.502      8.046
REMARK  Name = 
REMARK  9 active torsions:
REMARK  status: ('A' for Active; 'I' for Inactive)
REMARK    1  A    between atoms: C_1  and  O_2
REMARK    2  A    between atoms: O_2  and  C_3
REMARK    3  A    between atoms: C_3  and  C_5
REMARK    4  A    between atoms: C_9  and  C_10
REMARK    5  A    between atoms: C_11  and  C_12
REMARK    6  A    between atoms: C_12  and  C_14
REMARK    7  A    between atoms: C_17  and  O_18
REMARK    8  A    between atoms: O_18  and  C_19
REMARK    9  A    between atoms: C_20  and  O_21
REMARK                            x       y       z     vdW  Elec       q    Type
REMARK                         _______ _______ _______ _____ _____    ______ ____
ROOT
ATOM      1  C   UNL     1       6.216   4.481  16.329  0.00  0.00    +0.000 C 
ATOM      2  C   UNL     1       6.999   5.153  17.187  0.00  0.00    +0.000 C 
ENDROOT
BRANCH   1   7
ATOM      3  C   UNL     1       5.985   3.556  12.650  0.00  0.00    +0.000 A 
ATOM      4  C   UNL     1       7.032   4.323  12.127  0.00  0.00    +0.000 A 
ATOM      5  C   UNL     1       7.798   5.128  12.970  0.00  0.00    +0.000 A 
ATOM      6  C   UNL     1       7.519   5.174  14.339  0.00  0.00    +0.000 A 
ATOM      7  C   UNL     1       6.465   4.427  14.880  0.00  0.00    +0.000 A 
ATOM      8  C   UNL     1       5.709   3.611  14.025  0.00  0.00    +0.000 A 
BRANCH   3   9
ATOM      9  C   UNL     1       5.209   2.685  11.721  0.00  0.00    +0.000 C 
ATOM     10  O   UNL     1       5.681   1.710  11.159  0.00  0.00    +0.000 OA
BRANCH   9  12
ATOM     11  C   UNL     1       3.607   3.655  10.318  0.00  0.00    +0.000 C 
ATOM     12  O   UNL     1       3.934   3.133  11.607  0.00  0.00    +0.000 OA
ENDBRANCH   9  12
ENDBRANCH   3   9
ENDBRANCH   1   7
BRANCH   2  13
ATOM     13  C   UNL     1       6.710   5.148  18.648  0.00  0.00    +0.000 C 
ATOM     14  O   UNL     1       7.584   5.315  19.490  0.00  0.00    +0.000 OA
BRANCH  13  15
ATOM     15  C   UNL     1       5.305   4.871  19.049  0.00  0.00    +0.000 A 
ATOM     16  C   UNL     1       4.889   3.548  19.224  0.00  0.00    +0.000 A 
ATOM     17  C   UNL     1       3.555   3.274  19.556  0.00  0.00    +0.000 A 
ATOM     18  C   UNL     1       2.633   4.311  19.733  0.00  0.00    +0.000 A 
ATOM     19  C   UNL     1       3.064   5.628  19.562  0.00  0.00    +0.000 A 
ATOM     20  C   UNL     1       4.393   5.910  19.248  0.00  0.00    +0.000 A 
BRANCH  18  21
ATOM     21  O   UNL     1       1.349   3.914  19.987  0.00  0.00    +0.000 OA
ATOM     22  C   UNL     1       0.859   2.816  19.221  0.00  0.00    +0.000 C 
ENDBRANCH  18  21
BRANCH  19  23
ATOM     23  O   UNL     1       2.229   6.705  19.611  0.00  0.00    +0.000 OA
ATOM     24  H   UNL     1       2.445   7.184  20.430  0.00  0.00    +0.000 HD
ENDBRANCH  19  23
ENDBRANCH  13  15
ENDBRANCH   2  13
TORSDOF 7
ENDMDL
MODEL 6
REMARK VINA RESULT:      -7.3      5.778      9.936
REMARK  Name = 
REMARK  9 active torsions:
REMARK  status: ('A' for Active; 'I' for Inactive)
REMARK    1  A    between atoms: C_1  and  O_2
REMARK    2  A    between atoms: O_2  and  C_3
REMARK    3  A    between atoms: C_3  and  C_5
REMARK    4  A    between atoms: C_9  and  C_10
REMARK    5  A    between atoms: C_11  and  C_12
REMARK    6  A    between atoms: C_12  and  C_14
REMARK    7  A    between atoms: C_17  and  O_18
REMARK    8  A    between atoms: O_18  and  C_19
REMARK    9  A    between atoms: C_20  and  O_21
REMARK                            x       y       z     vdW  Elec       q    Type
REMARK                         _______ _______ _______ _____ _____    ______ ____
ROOT
ATOM      1  C   UNL     1       2.696   8.337  17.900  0.00  0.00    +0.000 C 
ATOM      2  C   UNL     1       1.470   8.761  18.243  0.00  0.00    +0.000 C 
ENDROOT
BRANCH   1   7
ATOM      3  C   UNL     1       2.559   4.545  18.105  0.00  0.00    +0.000 A 
ATOM      4  C   UNL     1       3.852   4.218  17.680  0.00  0.00    +0.000 A 
ATOM      5  C   UNL     1       4.749   5.228  17.333  0.00  0.00    +0.000 A 
ATOM      6  C   UNL     1       4.359   6.569  17.405  0.00  0.00    +0.000 A 
ATOM      7  C   UNL     1       3.064   6.915  17.812  0.00  0.00    +0.000 A 
ATOM      8  C   UNL     1       2.173   5.893  18.171  0.00  0.00    +0.000 A 
BRANCH   3   9
ATOM      9  C   UNL     1       1.640   3.438  18.497  0.00  0.00    +0.000 C 
ATOM     10  O   UNL     1       1.561   2.380  17.895  0.00  0.00    +0.000 OA
BRANCH   9  12
ATOM     11  C   UNL     1       1.330   3.115  20.794  0.00  0.00    +0.000 C 
ATOM     12  O   UNL     1       0.928   3.784  19.599  0.00  0.00    +0.000 OA
ENDBRANCH   9  12
ENDBRANCH   3   9
ENDBRANCH   1   7
BRANCH   2  13
ATOM     13  C   UNL     1       1.150  10.215  18.288  0.00  0.00    +0.000 C 
ATOM     14  O   UNL     1       2.019  11.077  18.336  0.00  0.00    +0.000 OA
BRANCH  13  15
ATOM     15  C   UNL     1      -0.291  10.580  18.331  0.00  0.00    +0.000 A 
ATOM     16  C   UNL     1      -1.223   9.775  17.671  0.00  0.00    +0.000 A 
ATOM     17  C   UNL     1      -2.578  10.136  17.666  0.00  0.00    +0.000 A 
ATOM     18  C   UNL     1      -3.016  11.287  18.330  0.00  0.00    +0.000 A 
ATOM     19  C   UNL     1      -2.074  12.078  18.991  0.00  0.00    +0.000 A 
ATOM     20  C   UNL     1      -0.727  11.718  19.015  0.00  0.00    +0.000 A 
BRANCH  18  21
ATOM     21  O   UNL     1      -4.347  11.570  18.194  0.00  0.00    +0.000 OA
ATOM     22  C   UNL     1      -4.829  11.738  16.863  0.00  0.00    +0.000 C 
ENDBRANCH  18  21
BRANCH  19  23
ATOM     23  O   UNL     1      -2.375  13.270  19.582  0.00  0.00    +0.000 OA
ATOM     24  H   UNL     1      -2.644  13.871  18.866  0.00  0.00    +0.000 HD
ENDBRANCH  19  23
ENDBRANCH  13  15
ENDBRANCH   2  13
TORSDOF 7
ENDMDL
MODEL 7
REMARK VINA RESULT:      -7.3      5.547      8.268
REMARK  Name = 
REMARK  9 active torsions:
REMARK  status: ('A' for Active; 'I' for Inactive)
REMARK    1  A    between atoms: C_1  and  O_2
REMARK    2  A    between atoms: O_2  and  C_3
REMARK    3  A    between atoms: C_3  and  C_5
REMARK    4  A    between atoms: C_9  and  C_10
REMARK    5  A    between atoms: C_11  and  C_12
REMARK    6  A    between atoms: C_12  and  C_14
REMARK    7  A    between atoms: C_17  and  O_18
REMARK    8  A    between atoms: O_18  and  C_19
REMARK    9  A    between atoms: C_20  and  O_21
REMARK                            x       y       z     vdW  Elec       q    Type
REMARK                         _______ _______ _______ _____ _____    ______ ____
ROOT
ATOM      1  C   UNL     1       2.833   7.731  17.850  0.00  0.00    +0.000 C 
ATOM      2  C   UNL     1       2.010   8.159  18.820  0.00  0.00    +0.000 C 
ENDROOT
BRANCH   1   7
ATOM      3  C   UNL     1       5.556   5.086  17.677  0.00  0.00    +0.000 A 
ATOM      4  C   UNL     1       4.811   3.933  17.947  0.00  0.00    +0.000 A 
ATOM      5  C   UNL     1       3.439   4.026  18.181  0.00  0.00    +0.000 A 
ATOM      6  C   UNL     1       2.806   5.272  18.151  0.00  0.00    +0.000 A 
ATOM      7  C   UNL     1       3.537   6.440  17.899  0.00  0.00    +0.000 A 
ATOM      8  C   UNL     1       4.914   6.334  17.652  0.00  0.00    +0.000 A 
BRANCH   3   9
ATOM      9  C   UNL     1       7.014   4.941  17.401  0.00  0.00    +0.000 C 
ATOM     10  O   UNL     1       7.794   4.389  18.160  0.00  0.00    +0.000 OA
BRANCH   9  12
ATOM     11  C   UNL     1       7.008   4.689  15.074  0.00  0.00    +0.000 C 
ATOM     12  O   UNL     1       7.326   5.501  16.205  0.00  0.00    +0.000 OA
ENDBRANCH   9  12
ENDBRANCH   3   9
ENDBRANCH   1   7
BRANCH   2  13
ATOM     13  C   UNL     1       1.305   9.465  18.700  0.00  0.00    +0.000 C 
ATOM     14  O   UNL     1       1.292  10.111  17.660  0.00  0.00    +0.000 OA
BRANCH  13  15
ATOM     15  C   UNL     1       0.655   9.987  19.932  0.00  0.00    +0.000 A 
ATOM     16  C   UNL     1      -0.251  11.047  19.834  0.00  0.00    +0.000 A 
ATOM     17  C   UNL     1      -0.833  11.577  20.994  0.00  0.00    +0.000 A 
ATOM     18  C   UNL     1      -0.533  11.048  22.253  0.00  0.00    +0.000 A 
ATOM     19  C   UNL     1       0.369   9.985  22.336  0.00  0.00    +0.000 A 
ATOM     20  C   UNL     1       0.940   9.440  21.186  0.00  0.00    +0.000 A 
BRANCH  18  21
ATOM     21  O   UNL     1      -1.109  11.694  23.312  0.00  0.00    +0.000 OA
ATOM     22  C   UNL     1      -2.524  11.865  23.260  0.00  0.00    +0.000 C 
ENDBRANCH  18  21
BRANCH  19  23
ATOM     23  O   UNL     1       0.809   9.462  23.516  0.00  0.00    +0.000 OA
ATOM     24  H   UNL     1       0.024   9.105  23.968  0.00  0.00    +0.000 HD
ENDBRANCH  19  23
ENDBRANCH  13  15
ENDBRANCH   2  13
TORSDOF 7
ENDMDL
MODEL 8
REMARK VINA RESULT:      -7.3      0.901      1.571
REMARK  Name = 
REMARK  9 active torsions:
REMARK  status: ('A' for Active; 'I' for Inactive)
REMARK    1  A    between atoms: C_1  and  O_2
REMARK    2  A    between atoms: O_2  and  C_3
REMARK    3  A    between atoms: C_3  and  C_5
REMARK    4  A    between atoms: C_9  and  C_10
REMARK    5  A    between atoms: C_11  and  C_12
REMARK    6  A    between atoms: C_12  and  C_14
REMARK    7  A    between atoms: C_17  and  O_18
REMARK    8  A    between atoms: O_18  and  C_19
REMARK    9  A    between atoms: C_20  and  O_21
REMARK                            x       y       z     vdW  Elec       q    Type
REMARK                         _______ _______ _______ _____ _____    ______ ____
ROOT
ATOM      1  C   UNL     1       8.093   9.142  17.670  0.00  0.00    +0.000 C 
ATOM      2  C   UNL     1       8.041   7.872  18.100  0.00  0.00    +0.000 C 
ENDROOT
BRANCH   1   7
ATOM      3  C   UNL     1       9.927  12.382  18.436  0.00  0.00    +0.000 A 
ATOM      4  C   UNL     1      10.255  12.179  19.781  0.00  0.00    +0.000 A 
ATOM      5  C   UNL     1       9.880  10.998  20.421  0.00  0.00    +0.000 A 
ATOM      6  C   UNL     1       9.170  10.016  19.723  0.00  0.00    +0.000 A 
ATOM      7  C   UNL     1       8.818  10.208  18.381  0.00  0.00    +0.000 A 
ATOM      8  C   UNL     1       9.211  11.393  17.742  0.00  0.00    +0.000 A 
BRANCH   3   9
ATOM      9  C   UNL     1      10.373  13.643  17.778  0.00  0.00    +0.000 C 
ATOM     10  O   UNL     1      11.071  13.672  16.778  0.00  0.00    +0.000 OA
BRANCH   9  12
ATOM     11  C   UNL     1       8.571  15.109  18.067  0.00  0.00    +0.000 C 
ATOM     12  O   UNL     1       9.892  14.721  18.448  0.00  0.00    +0.000 OA
ENDBRANCH   9  12
ENDBRANCH   3   9
ENDBRANCH   1   7
BRANCH   2  13
ATOM     13  C   UNL     1       7.313   6.832  17.322  0.00  0.00    +0.000 C 
ATOM     14  O   UNL     1       7.633   6.522  16.181  0.00  0.00    +0.000 OA
BRANCH  13  15
ATOM     15  C   UNL     1       6.127   6.217  17.977  0.00  0.00    +0.000 A 
ATOM     16  C   UNL     1       6.309   5.157  18.869  0.00  0.00    +0.000 A 
ATOM     17  C   UNL     1       5.195   4.540  19.455  0.00  0.00    +0.000 A 
ATOM     18  C   UNL     1       3.898   4.983  19.173  0.00  0.00    +0.000 A 
ATOM     19  C   UNL     1       3.733   6.047  18.284  0.00  0.00    +0.000 A 
ATOM     20  C   UNL     1       4.835   6.678  17.710  0.00  0.00    +0.000 A 
BRANCH  18  21
ATOM     21  O   UNL     1       2.894   4.257  19.751  0.00  0.00    +0.000 OA
ATOM     22  C   UNL     1       3.197   2.905  20.088  0.00  0.00    +0.000 C 
ENDBRANCH  18  21
BRANCH  19  23
ATOM     23  O   UNL     1       2.514   6.491  17.861  0.00  0.00    +0.000 OA
ATOM     24  H   UNL     1       2.210   7.134  18.525  0.00  0.00    +0.000 HD
ENDBRANCH  19  23
ENDBRANCH  13  15
ENDBRANCH   2  13
TORSDOF 7
ENDMDL
MODEL 9
REMARK VINA RESULT:      -7.2      5.861      9.935
REMARK  Name = 
REMARK  9 active torsions:
REMARK  status: ('A' for Active; 'I' for Inactive)
REMARK    1  A    between atoms: C_1  and  O_2
REMARK    2  A    between atoms: O_2  and  C_3
REMARK    3  A    between atoms: C_3  and  C_5
REMARK    4  A    between atoms: C_9  and  C_10
REMARK    5  A    between atoms: C_11  and  C_12
REMARK    6  A    between atoms: C_12  and  C_14
REMARK    7  A    between atoms: C_17  and  O_18
REMARK    8  A    between atoms: O_18  and  C_19
REMARK    9  A    between atoms: C_20  and  O_21
REMARK                            x       y       z     vdW  Elec       q    Type
REMARK                         _______ _______ _______ _____ _____    ______ ____
ROOT
ATOM      1  C   UNL     1       2.037   8.319  18.643  0.00  0.00    +0.000 C 
ATOM      2  C   UNL     1       1.677   9.376  17.898  0.00  0.00    +0.000 C 
ENDROOT
BRANCH   1   7
ATOM      3  C   UNL     1       2.782   4.717  17.689  0.00  0.00    +0.000 A 
ATOM      4  C   UNL     1       4.023   4.870  17.060  0.00  0.00    +0.000 A 
ATOM      5  C   UNL     1       4.601   6.135  16.953  0.00  0.00    +0.000 A 
ATOM      6  C   UNL     1       3.941   7.254  17.470  0.00  0.00    +0.000 A 
ATOM      7  C   UNL     1       2.691   7.124  18.088  0.00  0.00    +0.000 A 
ATOM      8  C   UNL     1       2.124   5.846  18.202  0.00  0.00    +0.000 A 
BRANCH   3   9
ATOM      9  C   UNL     1       2.212   3.345  17.811  0.00  0.00    +0.000 C 
ATOM     10  O   UNL     1       1.037   3.121  18.053  0.00  0.00    +0.000 OA
BRANCH   9  12
ATOM     11  C   UNL     1       3.569   1.710  18.793  0.00  0.00    +0.000 C 
ATOM     12  O   UNL     1       3.178   2.413  17.613  0.00  0.00    +0.000 OA
ENDBRANCH   9  12
ENDBRANCH   3   9
ENDBRANCH   1   7
BRANCH   2  13
ATOM     13  C   UNL     1       1.042  10.569  18.523  0.00  0.00    +0.000 C 
ATOM     14  O   UNL     1       1.686  11.407  19.142  0.00  0.00    +0.000 OA
BRANCH  13  15
ATOM     15  C   UNL     1      -0.437  10.674  18.409  0.00  0.00    +0.000 A 
ATOM     16  C   UNL     1      -1.128   9.773  17.594  0.00  0.00    +0.000 A 
ATOM     17  C   UNL     1      -2.517   9.893  17.443  0.00  0.00    +0.000 A 
ATOM     18  C   UNL     1      -3.228  10.894  18.114  0.00  0.00    +0.000 A 
ATOM     19  C   UNL     1      -2.524  11.782  18.931  0.00  0.00    +0.000 A 
ATOM     20  C   UNL     1      -1.146  11.660  19.100  0.00  0.00    +0.000 A 
BRANCH  18  21
ATOM     21  O   UNL     1      -4.565  10.951  17.833  0.00  0.00    +0.000 OA
ATOM     22  C   UNL     1      -4.955  11.814  16.767  0.00  0.00    +0.000 C 
ENDBRANCH  18  21
BRANCH  19  23
ATOM     23  O   UNL     1      -3.101  12.853  19.548  0.00  0.00    +0.000 OA
ATOM     24  H   UNL     1      -3.822  12.498  20.097  0.00  0.00    +0.000 HD
ENDBRANCH  19  23
ENDBRANCH  13  15
ENDBRANCH   2  13
TORSDOF 7
ENDMDL
