MODEL 1
REMARK VINA RESULT:     -10.1      0.000      0.000
REMARK  Name = 
REMARK  3 active torsions:
REMARK  status: ('A' for Active; 'I' for Inactive)
REMARK    1  A    between atoms: C_1  and  N_2
REMARK    2  A    between atoms: C_8  and  N_9
REMARK    3  A    between atoms: N_12  and  C_13
REMARK                            x       y       z     vdW  Elec       q    Type
REMARK                         _______ _______ _______ _____ _____    ______ ____
ROOT
ATOM      1  N   UNL     1       1.726   8.555  19.585  0.00  0.00    +0.000 N 
ATOM      2  C   UNL     1       2.373   7.970  18.525  0.00  0.00    +0.000 C 
ATOM      3  O   UNL     1       2.619   8.460  17.435  0.00  0.00    +0.000 OA
ATOM      4  N   UNL     1       2.753   6.696  18.873  0.00  0.00    +0.000 N 
ATOM      5  H   UNL     1       2.078   8.218  20.470  0.00  0.00    +0.000 HD
ATOM      6  H   UNL     1       2.314   6.298  19.689  0.00  0.00    +0.000 HD
ENDROOT
BRANCH   4   7
ATOM      7  C   UNL     1       3.364   5.790  17.915  0.00  0.00    +0.000 C 
ATOM      8  C   UNL     1       4.888   5.871  18.044  0.00  0.00    +0.000 C 
ATOM      9  C   UNL     1       5.503   4.762  17.201  0.00  0.00    +0.000 C 
ATOM     10  C   UNL     1       7.049   4.903  17.012  0.00  0.00    +0.000 C 
ATOM     11  C   UNL     1       6.763   5.707  15.730  0.00  0.00    +0.000 C 
ATOM     12  C   UNL     1       5.417   4.957  15.649  0.00  0.00    +0.000 C 
ATOM     13  O   UNL     1       5.103   3.463  17.714  0.00  0.00    +0.000 OA
ATOM     14  C   UNL     1       3.792   3.308  18.094  0.00  0.00    +0.000 A 
ATOM     15  C   UNL     1       3.395   2.022  18.469  0.00  0.00    +0.000 A 
ATOM     16  C   UNL     1       2.074   1.780  18.846  0.00  0.00    +0.000 A 
ATOM     17  C   UNL     1       1.151   2.815  18.796  0.00  0.00    +0.000 A 
ATOM     18  F   UNL     1      -0.125   2.587  19.134  0.00  0.00    +0.000 F 
ATOM     19  C   UNL     1       1.538   4.098  18.430  0.00  0.00    +0.000 A 
ATOM     20  C   UNL     1       2.888   4.375  18.146  0.00  0.00    +0.000 A 
ENDBRANCH   4   7
BRANCH   1  28
ATOM     21  C   UNL     1      -1.972  13.246  21.529  0.00  0.00    +0.000 C 
ATOM     22  N   UNL     1      -1.302  11.963  21.654  0.00  0.00    +0.000 N 
ATOM     23  C   UNL     1      -1.526  11.226  22.808  0.00  0.00    +0.000 A 
ATOM     24  O   UNL     1      -2.301  11.547  23.706  0.00  0.00    +0.000 OA
ATOM     25  C   UNL     1      -0.721  10.004  22.979  0.00  0.00    +0.000 A 
ATOM     26  C   UNL     1       0.117   9.577  22.032  0.00  0.00    +0.000 A 
ATOM     27  C   UNL     1       0.217  10.242  20.730  0.00  0.00    +0.000 A 
ATOM     28  C   UNL     1       0.997   9.764  19.647  0.00  0.00    +0.000 A 
ATOM     29  C   UNL     1       1.142  10.561  18.500  0.00  0.00    +0.000 A 
ATOM     30  C   UNL     1       0.510  11.788  18.383  0.00  0.00    +0.000 A 
ATOM     31  C   UNL     1      -0.291  12.245  19.426  0.00  0.00    +0.000 A 
ATOM     32  C   UNL     1      -0.455  11.487  20.597  0.00  0.00    +0.000 A 
ENDBRANCH   1  28
TORSDOF 2
ENDMDL
MODEL 2
REMARK VINA RESULT:     -10.0      1.289      1.307
REMARK  Name = 
REMARK  3 active torsions:
REMARK  status: ('A' for Active; 'I' for Inactive)
REMARK    1  A    between atoms: C_1  and  N_2
REMARK    2  A    between atoms: C_8  and  N_9
REMARK    3  A    between atoms: N_12  and  C_13
REMARK                            x       y       z     vdW  Elec       q    Type
REMARK                         _______ _______ _______ _____ _____    ______ ____
ROOT
ATOM      1  N   UNL     1       1.617   8.666  20.064  0.00  0.00    +0.000 N 
ATOM      2  C   UNL     1       2.092   7.814  19.099  0.00  0.00    +0.000 C 
ATOM      3  O   UNL     1       2.037   7.949  17.888  0.00  0.00    +0.000 OA
ATOM      4  N   UNL     1       2.697   6.739  19.703  0.00  0.00    +0.000 N 
ATOM      5  H   UNL     1       2.189   8.646  20.896  0.00  0.00    +0.000 HD
ATOM      6  H   UNL     1       2.497   6.595  20.680  0.00  0.00    +0.000 HD
ENDROOT
BRANCH   4   7
ATOM      7  C   UNL     1       3.201   5.612  18.936  0.00  0.00    +0.000 C 
ATOM      8  C   UNL     1       4.659   5.875  18.551  0.00  0.00    +0.000 C 
ATOM      9  C   UNL     1       5.236   4.600  17.948  0.00  0.00    +0.000 C 
ATOM     10  C   UNL     1       6.622   4.807  17.252  0.00  0.00    +0.000 C 
ATOM     11  C   UNL     1       5.860   5.073  15.940  0.00  0.00    +0.000 C 
ATOM     12  C   UNL     1       4.712   4.222  16.521  0.00  0.00    +0.000 C 
ATOM     13  O   UNL     1       5.245   3.537  18.939  0.00  0.00    +0.000 OA
ATOM     14  C   UNL     1       4.134   3.406  19.737  0.00  0.00    +0.000 A 
ATOM     15  C   UNL     1       4.107   2.307  20.598  0.00  0.00    +0.000 A 
ATOM     16  C   UNL     1       3.003   2.094  21.425  0.00  0.00    +0.000 A 
ATOM     17  C   UNL     1       1.916   2.953  21.345  0.00  0.00    +0.000 A 
ATOM     18  F   UNL     1       0.842   2.743  22.117  0.00  0.00    +0.000 F 
ATOM     19  C   UNL     1       1.938   4.052  20.495  0.00  0.00    +0.000 A 
ATOM     20  C   UNL     1       3.086   4.334  19.733  0.00  0.00    +0.000 A 
ENDBRANCH   4   7
BRANCH   1  28
ATOM     21  C   UNL     1      -2.537  13.218  21.288  0.00  0.00    +0.000 C 
ATOM     22  N   UNL     1      -1.740  12.045  21.606  0.00  0.00    +0.000 N 
ATOM     23  C   UNL     1      -1.889  11.486  22.867  0.00  0.00    +0.000 A 
ATOM     24  O   UNL     1      -2.693  11.870  23.714  0.00  0.00    +0.000 OA
ATOM     25  C   UNL     1      -0.965  10.394  23.219  0.00  0.00    +0.000 A 
ATOM     26  C   UNL     1      -0.088   9.906  22.340  0.00  0.00    +0.000 A 
ATOM     27  C   UNL     1      -0.056  10.358  20.947  0.00  0.00    +0.000 A 
ATOM     28  C   UNL     1       0.770   9.792  19.943  0.00  0.00    +0.000 A 
ATOM     29  C   UNL     1       0.834  10.403  18.680  0.00  0.00    +0.000 A 
ATOM     30  C   UNL     1       0.082  11.526  18.377  0.00  0.00    +0.000 A 
ATOM     31  C   UNL     1      -0.761  12.063  19.346  0.00  0.00    +0.000 A 
ATOM     32  C   UNL     1      -0.849  11.492  20.626  0.00  0.00    +0.000 A 
ENDBRANCH   1  28
TORSDOF 2
ENDMDL
MODEL 3
REMARK VINA RESULT:     -10.0      1.537      2.376
REMARK  Name = 
REMARK  3 active torsions:
REMARK  status: ('A' for Active; 'I' for Inactive)
REMARK    1  A    between atoms: C_1  and  N_2
REMARK    2  A    between atoms: C_8  and  N_9
REMARK    3  A    between atoms: N_12  and  C_13
REMARK                            x       y       z     vdW  Elec       q    Type
REMARK                         _______ _______ _______ _____ _____    ______ ____
ROOT
ATOM      1  N   UNL     1       1.513   7.847  20.984  0.00  0.00    +0.000 N 
ATOM      2  C   UNL     1       2.246   7.599  19.850  0.00  0.00    +0.000 C 
ATOM      3  O   UNL     1       2.462   8.356  18.918  0.00  0.00    +0.000 OA
ATOM      4  N   UNL     1       2.757   6.326  19.910  0.00  0.00    +0.000 N 
ATOM      5  H   UNL     1       1.880   7.349  21.782  0.00  0.00    +0.000 HD
ATOM      6  H   UNL     1       2.347   5.703  20.589  0.00  0.00    +0.000 HD
ENDROOT
BRANCH   4   7
ATOM      7  C   UNL     1       3.488   5.739  18.799  0.00  0.00    +0.000 C 
ATOM      8  C   UNL     1       4.988   5.784  19.102  0.00  0.00    +0.000 C 
ATOM      9  C   UNL     1       5.719   4.970  18.041  0.00  0.00    +0.000 C 
ATOM     10  C   UNL     1       7.271   5.165  18.061  0.00  0.00    +0.000 C 
ATOM     11  C   UNL     1       7.085   6.307  17.044  0.00  0.00    +0.000 C 
ATOM     12  C   UNL     1       5.778   5.609  16.612  0.00  0.00    +0.000 C 
ATOM     13  O   UNL     1       5.314   3.577  18.113  0.00  0.00    +0.000 OA
ATOM     14  C   UNL     1       3.978   3.314  18.295  0.00  0.00    +0.000 A 
ATOM     15  C   UNL     1       3.589   1.973  18.239  0.00  0.00    +0.000 A 
ATOM     16  C   UNL     1       2.246   1.628  18.393  0.00  0.00    +0.000 A 
ATOM     17  C   UNL     1       1.298   2.630  18.550  0.00  0.00    +0.000 A 
ATOM     18  F   UNL     1       0.005   2.309  18.675  0.00  0.00    +0.000 F 
ATOM     19  C   UNL     1       1.677   3.965  18.612  0.00  0.00    +0.000 A 
ATOM     20  C   UNL     1       3.039   4.317  18.561  0.00  0.00    +0.000 A 
ENDBRANCH   4   7
BRANCH   1  28
ATOM     21  C   UNL     1      -2.444  12.702  20.489  0.00  0.00    +0.000 C 
ATOM     22  N   UNL     1      -1.600  11.636  19.975  0.00  0.00    +0.000 N 
ATOM     23  C   UNL     1      -1.496  11.502  18.598  0.00  0.00    +0.000 A 
ATOM     24  O   UNL     1      -2.014  12.257  17.778  0.00  0.00    +0.000 OA
ATOM     25  C   UNL     1      -0.759  10.326  18.103  0.00  0.00    +0.000 A 
ATOM     26  C   UNL     1      -0.145   9.481  18.933  0.00  0.00    +0.000 A 
ATOM     27  C   UNL     1      -0.085   9.722  20.377  0.00  0.00    +0.000 A 
ATOM     28  C   UNL     1       0.653   8.926  21.290  0.00  0.00    +0.000 A 
ATOM     29  C   UNL     1       0.515   9.154  22.668  0.00  0.00    +0.000 A 
ATOM     30  C   UNL     1      -0.295  10.164  23.161  0.00  0.00    +0.000 A 
ATOM     31  C   UNL     1      -0.991  10.975  22.268  0.00  0.00    +0.000 A 
ATOM     32  C   UNL     1      -0.893  10.776  20.882  0.00  0.00    +0.000 A 
ENDBRANCH   1  28
TORSDOF 2
ENDMDL
MODEL 4
REMARK VINA RESULT:      -9.9      2.486      3.919
REMARK  Name = 
REMARK  3 active torsions:
REMARK  status: ('A' for Active; 'I' for Inactive)
REMARK    1  A    between atoms: C_1  and  N_2
REMARK    2  A    between atoms: C_8  and  N_9
REMARK    3  A    between atoms: N_12  and  C_13
REMARK                            x       y       z     vdW  Elec       q    Type
REMARK                         _______ _______ _______ _____ _____    ______ ____
ROOT
ATOM      1  N   UNL     1       1.827   9.556  17.789  0.00  0.00    +0.000 N 
ATOM      2  C   UNL     1       2.031   8.446  18.569  0.00  0.00    +0.000 C 
ATOM      3  O   UNL     1       1.853   8.332  19.771  0.00  0.00    +0.000 OA
ATOM      4  N   UNL     1       2.462   7.408  17.778  0.00  0.00    +0.000 N 
ATOM      5  H   UNL     1       1.534   9.307  16.855  0.00  0.00    +0.000 HD
ATOM      6  H   UNL     1       2.798   7.647  16.859  0.00  0.00    +0.000 HD
ENDROOT
BRANCH   4   7
ATOM      7  C   UNL     1       2.866   6.131  18.342  0.00  0.00    +0.000 C 
ATOM      8  C   UNL     1       1.772   5.093  18.075  0.00  0.00    +0.000 C 
ATOM      9  C   UNL     1       2.303   3.720  18.469  0.00  0.00    +0.000 C 
ATOM     10  C   UNL     1       1.200   2.613  18.518  0.00  0.00    +0.000 C 
ATOM     11  C   UNL     1       1.004   2.953  20.007  0.00  0.00    +0.000 C 
ATOM     12  C   UNL     1       2.460   3.464  20.006  0.00  0.00    +0.000 C 
ATOM     13  O   UNL     1       3.437   3.365  17.632  0.00  0.00    +0.000 OA
ATOM     14  C   UNL     1       4.364   4.344  17.371  0.00  0.00    +0.000 A 
ATOM     15  C   UNL     1       5.508   3.955  16.670  0.00  0.00    +0.000 A 
ATOM     16  C   UNL     1       6.505   4.889  16.386  0.00  0.00    +0.000 A 
ATOM     17  C   UNL     1       6.372   6.190  16.850  0.00  0.00    +0.000 A 
ATOM     18  F   UNL     1       7.335   7.087  16.602  0.00  0.00    +0.000 F 
ATOM     19  C   UNL     1       5.236   6.586  17.543  0.00  0.00    +0.000 A 
ATOM     20  C   UNL     1       4.179   5.680  17.746  0.00  0.00    +0.000 A 
ENDBRANCH   4   7
BRANCH   1  28
ATOM     21  C   UNL     1      -0.966  14.774  19.894  0.00  0.00    +0.000 C 
ATOM     22  N   UNL     1      -0.899  13.360  19.566  0.00  0.00    +0.000 N 
ATOM     23  C   UNL     1      -2.041  12.597  19.761  0.00  0.00    +0.000 A 
ATOM     24  O   UNL     1      -3.126  13.040  20.131  0.00  0.00    +0.000 OA
ATOM     25  C   UNL     1      -1.905  11.143  19.566  0.00  0.00    +0.000 A 
ATOM     26  C   UNL     1      -0.766  10.595  19.136  0.00  0.00    +0.000 A 
ATOM     27  C   UNL     1       0.384  11.412  18.740  0.00  0.00    +0.000 A 
ATOM     28  C   UNL     1       1.571  10.894  18.165  0.00  0.00    +0.000 A 
ATOM     29  C   UNL     1       2.670  11.747  17.968  0.00  0.00    +0.000 A 
ATOM     30  C   UNL     1       2.610  13.093  18.288  0.00  0.00    +0.000 A 
ATOM     31  C   UNL     1       1.434  13.617  18.816  0.00  0.00    +0.000 A 
ATOM     32  C   UNL     1       0.314  12.799  19.041  0.00  0.00    +0.000 A 
ENDBRANCH   1  28
TORSDOF 2
ENDMDL
MODEL 5
REMARK VINA RESULT:      -9.7      2.311      4.099
REMARK  Name = 
REMARK  3 active torsions:
REMARK  status: ('A' for Active; 'I' for Inactive)
REMARK    1  A    between atoms: C_1  and  N_2
REMARK    2  A    between atoms: C_8  and  N_9
REMARK    3  A    between atoms: N_12  and  C_13
REMARK                            x       y       z     vdW  Elec       q    Type
REMARK                         _______ _______ _______ _____ _____    ______ ____
ROOT
ATOM      1  N   UNL     1       1.780   8.368  19.873  0.00  0.00    +0.000 N 
ATOM      2  C   UNL     1       2.089   7.031  19.904  0.00  0.00    +0.000 C 
ATOM      3  O   UNL     1       1.584   6.162  20.595  0.00  0.00    +0.000 OA
ATOM      4  N   UNL     1       3.079   6.773  18.987  0.00  0.00    +0.000 N 
ATOM      5  H   UNL     1       1.907   8.760  18.950  0.00  0.00    +0.000 HD
ATOM      6  H   UNL     1       3.590   7.568  18.635  0.00  0.00    +0.000 HD
ENDROOT
BRANCH   4   7
ATOM      7  C   UNL     1       3.693   5.461  18.869  0.00  0.00    +0.000 C 
ATOM      8  C   UNL     1       2.673   4.478  18.286  0.00  0.00    +0.000 C 
ATOM      9  C   UNL     1       3.391   3.175  17.961  0.00  0.00    +0.000 C 
ATOM     10  C   UNL     1       2.423   1.992  17.628  0.00  0.00    +0.000 C 
ATOM     11  C   UNL     1       2.449   1.623  19.122  0.00  0.00    +0.000 C 
ATOM     12  C   UNL     1       3.829   2.311  19.192  0.00  0.00    +0.000 C 
ATOM     13  O   UNL     1       4.396   3.400  16.935  0.00  0.00    +0.000 OA
ATOM     14  C   UNL     1       5.168   4.531  17.043  0.00  0.00    +0.000 A 
ATOM     15  C   UNL     1       6.209   4.670  16.122  0.00  0.00    +0.000 A 
ATOM     16  C   UNL     1       7.051   5.782  16.180  0.00  0.00    +0.000 A 
ATOM     17  C   UNL     1       6.875   6.717  17.190  0.00  0.00    +0.000 A 
ATOM     18  F   UNL     1       7.693   7.774  17.269  0.00  0.00    +0.000 F 
ATOM     19  C   UNL     1       5.839   6.589  18.107  0.00  0.00    +0.000 A 
ATOM     20  C   UNL     1       4.923   5.527  17.996  0.00  0.00    +0.000 A 
ENDBRANCH   4   7
BRANCH   1  28
ATOM     21  C   UNL     1      -2.452  12.419  22.140  0.00  0.00    +0.000 C 
ATOM     22  N   UNL     1      -1.721  11.733  21.087  0.00  0.00    +0.000 N 
ATOM     23  C   UNL     1      -2.001  12.082  19.774  0.00  0.00    +0.000 A 
ATOM     24  O   UNL     1      -2.774  12.975  19.434  0.00  0.00    +0.000 OA
ATOM     25  C   UNL     1      -1.360  11.271  18.724  0.00  0.00    +0.000 A 
ATOM     26  C   UNL     1      -0.486  10.306  19.018  0.00  0.00    +0.000 A 
ATOM     27  C   UNL     1      -0.038  10.060  20.391  0.00  0.00    +0.000 A 
ATOM     28  C   UNL     1       0.975   9.133  20.747  0.00  0.00    +0.000 A 
ATOM     29  C   UNL     1       1.216   8.865  22.104  0.00  0.00    +0.000 A 
ATOM     30  C   UNL     1       0.515   9.512  23.108  0.00  0.00    +0.000 A 
ATOM     31  C   UNL     1      -0.453  10.453  22.766  0.00  0.00    +0.000 A 
ATOM     32  C   UNL     1      -0.736  10.744  21.422  0.00  0.00    +0.000 A 
ENDBRANCH   1  28
TORSDOF 2
ENDMDL
MODEL 6
REMARK VINA RESULT:      -9.7      1.336      2.282
REMARK  Name = 
REMARK  3 active torsions:
REMARK  status: ('A' for Active; 'I' for Inactive)
REMARK    1  A    between atoms: C_1  and  N_2
REMARK    2  A    between atoms: C_8  and  N_9
REMARK    3  A    between atoms: N_12  and  C_13
REMARK                            x       y       z     vdW  Elec       q    Type
REMARK                         _______ _______ _______ _____ _____    ______ ____
ROOT
ATOM      1  N   UNL     1       2.186   8.035  20.225  0.00  0.00    +0.000 N 
ATOM      2  C   UNL     1       2.346   7.482  18.979  0.00  0.00    +0.000 C 
ATOM      3  O   UNL     1       1.783   7.795  17.942  0.00  0.00    +0.000 OA
ATOM      4  N   UNL     1       3.295   6.490  19.042  0.00  0.00    +0.000 N 
ATOM      5  H   UNL     1       3.043   8.012  20.758  0.00  0.00    +0.000 HD
ATOM      6  H   UNL     1       3.533   6.148  19.960  0.00  0.00    +0.000 HD
ENDROOT
BRANCH   4   7
ATOM      7  C   UNL     1       3.602   5.648  17.898  0.00  0.00    +0.000 C 
ATOM      8  C   UNL     1       5.121   5.541  17.743  0.00  0.00    +0.000 C 
ATOM      9  C   UNL     1       5.425   4.485  16.688  0.00  0.00    +0.000 C 
ATOM     10  C   UNL     1       6.919   4.474  16.225  0.00  0.00    +0.000 C 
ATOM     11  C   UNL     1       6.522   5.459  15.110  0.00  0.00    +0.000 C 
ATOM     12  C   UNL     1       5.095   4.882  15.210  0.00  0.00    +0.000 C 
ATOM     13  O   UNL     1       4.952   3.184  17.133  0.00  0.00    +0.000 OA
ATOM     14  C   UNL     1       3.720   3.131  17.736  0.00  0.00    +0.000 A 
ATOM     15  C   UNL     1       3.227   1.861  18.046  0.00  0.00    +0.000 A 
ATOM     16  C   UNL     1       1.972   1.723  18.640  0.00  0.00    +0.000 A 
ATOM     17  C   UNL     1       1.201   2.854  18.874  0.00  0.00    +0.000 A 
ATOM     18  F   UNL     1      -0.014   2.729  19.422  0.00  0.00    +0.000 F 
ATOM     19  C   UNL     1       1.686   4.121  18.574  0.00  0.00    +0.000 A 
ATOM     20  C   UNL     1       2.989   4.278  18.068  0.00  0.00    +0.000 A 
ENDBRANCH   4   7
BRANCH   1  28
ATOM     21  C   UNL     1      -1.464  13.098  20.939  0.00  0.00    +0.000 C 
ATOM     22  N   UNL     1      -0.409  12.315  20.317  0.00  0.00    +0.000 N 
ATOM     23  C   UNL     1       0.301  12.898  19.277  0.00  0.00    +0.000 A 
ATOM     24  O   UNL     1       0.149  14.053  18.884  0.00  0.00    +0.000 OA
ATOM     25  C   UNL     1       1.258  12.034  18.565  0.00  0.00    +0.000 A 
ATOM     26  C   UNL     1       1.497  10.780  18.955  0.00  0.00    +0.000 A 
ATOM     27  C   UNL     1       0.897  10.220  20.169  0.00  0.00    +0.000 A 
ATOM     28  C   UNL     1       1.208   8.941  20.696  0.00  0.00    +0.000 A 
ATOM     29  C   UNL     1       0.461   8.441  21.775  0.00  0.00    +0.000 A 
ATOM     30  C   UNL     1      -0.550   9.183  22.364  0.00  0.00    +0.000 A 
ATOM     31  C   UNL     1      -0.833  10.457  21.877  0.00  0.00    +0.000 A 
ATOM     32  C   UNL     1      -0.119  10.992  20.792  0.00  0.00    +0.000 A 
ENDBRANCH   1  28
TORSDOF 2
ENDMDL
MODEL 7
REMARK VINA RESULT:      -9.7      2.042      3.569
REMARK  Name = 
REMARK  3 active torsions:
REMARK  status: ('A' for Active; 'I' for Inactive)
REMARK    1  A    between atoms: C_1  and  N_2
REMARK    2  A    between atoms: C_8  and  N_9
REMARK    3  A    between atoms: N_12  and  C_13
REMARK                            x       y       z     vdW  Elec       q    Type
REMARK                         _______ _______ _______ _____ _____    ______ ____
ROOT
ATOM      1  N   UNL     1       1.799   9.001  18.364  0.00  0.00    +0.000 N 
ATOM      2  C   UNL     1       2.226   7.842  18.961  0.00  0.00    +0.000 C 
ATOM      3  O   UNL     1       2.245   7.575  20.152  0.00  0.00    +0.000 OA
ATOM      4  N   UNL     1       2.630   6.955  17.993  0.00  0.00    +0.000 N 
ATOM      5  H   UNL     1       1.393   8.826  17.456  0.00  0.00    +0.000 HD
ATOM      6  H   UNL     1       2.797   7.332  17.073  0.00  0.00    +0.000 HD
ENDROOT
BRANCH   4   7
ATOM      7  C   UNL     1       3.237   5.677  18.328  0.00  0.00    +0.000 C 
ATOM      8  C   UNL     1       2.335   4.544  17.830  0.00  0.00    +0.000 C 
ATOM      9  C   UNL     1       3.085   3.227  17.986  0.00  0.00    +0.000 C 
ATOM     10  C   UNL     1       2.183   1.965  17.785  0.00  0.00    +0.000 C 
ATOM     11  C   UNL     1       1.917   1.983  19.302  0.00  0.00    +0.000 C 
ATOM     12  C   UNL     1       3.267   2.715  19.455  0.00  0.00    +0.000 C 
ATOM     13  O   UNL     1       4.271   3.225  17.146  0.00  0.00    +0.000 OA
ATOM     14  C   UNL     1       5.023   4.374  17.109  0.00  0.00    +0.000 A 
ATOM     15  C   UNL     1       6.224   4.315  16.396  0.00  0.00    +0.000 A 
ATOM     16  C   UNL     1       7.053   5.435  16.330  0.00  0.00    +0.000 A 
ATOM     17  C   UNL     1       6.699   6.587  17.019  0.00  0.00    +0.000 A 
ATOM     18  F   UNL     1       7.500   7.659  16.981  0.00  0.00    +0.000 F 
ATOM     19  C   UNL     1       5.505   6.655  17.726  0.00  0.00    +0.000 A 
ATOM     20  C   UNL     1       4.613   5.567  17.715  0.00  0.00    +0.000 A 
ENDBRANCH   4   7
BRANCH   1  28
ATOM     21  C   UNL     1      -0.523  13.458  22.133  0.00  0.00    +0.000 C 
ATOM     22  N   UNL     1      -0.303  12.090  21.696  0.00  0.00    +0.000 N 
ATOM     23  C   UNL     1      -0.905  11.074  22.425  0.00  0.00    +0.000 A 
ATOM     24  O   UNL     1      -1.664  11.248  23.375  0.00  0.00    +0.000 OA
ATOM     25  C   UNL     1      -0.546   9.694  22.056  0.00  0.00    +0.000 A 
ATOM     26  C   UNL     1       0.248   9.429  21.016  0.00  0.00    +0.000 A 
ATOM     27  C   UNL     1       0.731  10.485  20.123  0.00  0.00    +0.000 A 
ATOM     28  C   UNL     1       1.475  10.251  18.938  0.00  0.00    +0.000 A 
ATOM     29  C   UNL     1       2.020  11.342  18.241  0.00  0.00    +0.000 A 
ATOM     30  C   UNL     1       1.817  12.646  18.661  0.00  0.00    +0.000 A 
ATOM     31  C   UNL     1       1.054  12.885  19.800  0.00  0.00    +0.000 A 
ATOM     32  C   UNL     1       0.500  11.825  20.535  0.00  0.00    +0.000 A 
ENDBRANCH   1  28
TORSDOF 2
ENDMDL
MODEL 8
REMARK VINA RESULT:      -9.7      2.668      4.462
REMARK  Name = 
REMARK  3 active torsions:
REMARK  status: ('A' for Active; 'I' for Inactive)
REMARK    1  A    between atoms: C_1  and  N_2
REMARK    2  A    between atoms: C_8  and  N_9
REMARK    3  A    between atoms: N_12  and  C_13
REMARK                            x       y       z     vdW  Elec       q    Type
REMARK                         _______ _______ _______ _____ _____    ______ ____
ROOT
ATOM      1  N   UNL     1       1.629   9.013  18.560  0.00  0.00    +0.000 N 
ATOM      2  C   UNL     1       2.019   7.807  19.086  0.00  0.00    +0.000 C 
ATOM      3  O   UNL     1       1.806   7.375  20.208  0.00  0.00    +0.000 OA
ATOM      4  N   UNL     1       2.699   7.093  18.130  0.00  0.00    +0.000 N 
ATOM      5  H   UNL     1       1.444   8.946  17.569  0.00  0.00    +0.000 HD
ATOM      6  H   UNL     1       3.025   7.607  17.326  0.00  0.00    +0.000 HD
ENDROOT
BRANCH   4   7
ATOM      7  C   UNL     1       3.331   5.819  18.428  0.00  0.00    +0.000 C 
ATOM      8  C   UNL     1       2.450   4.683  17.901  0.00  0.00    +0.000 C 
ATOM      9  C   UNL     1       3.226   3.377  18.019  0.00  0.00    +0.000 C 
ATOM     10  C   UNL     1       2.347   2.104  17.785  0.00  0.00    +0.000 C 
ATOM     11  C   UNL     1       2.085   2.075  19.302  0.00  0.00    +0.000 C 
ATOM     12  C   UNL     1       3.420   2.828  19.473  0.00  0.00    +0.000 C 
ATOM     13  O   UNL     1       4.409   3.420  17.177  0.00  0.00    +0.000 OA
ATOM     14  C   UNL     1       5.139   4.584  17.170  0.00  0.00    +0.000 A 
ATOM     15  C   UNL     1       6.338   4.568  16.454  0.00  0.00    +0.000 A 
ATOM     16  C   UNL     1       7.146   5.705  16.417  0.00  0.00    +0.000 A 
ATOM     17  C   UNL     1       6.772   6.831  17.139  0.00  0.00    +0.000 A 
ATOM     18  F   UNL     1       7.552   7.918  17.129  0.00  0.00    +0.000 F 
ATOM     19  C   UNL     1       5.578   6.856  17.849  0.00  0.00    +0.000 A 
ATOM     20  C   UNL     1       4.707   5.752  17.810  0.00  0.00    +0.000 A 
ENDBRANCH   4   7
BRANCH   1  28
ATOM     21  C   UNL     1       0.507  14.910  20.414  0.00  0.00    +0.000 C 
ATOM     22  N   UNL     1       1.205  13.877  19.667  0.00  0.00    +0.000 N 
ATOM     23  C   UNL     1       2.277  14.265  18.876  0.00  0.00    +0.000 A 
ATOM     24  O   UNL     1       2.722  15.409  18.808  0.00  0.00    +0.000 OA
ATOM     25  C   UNL     1       2.872  13.228  18.015  0.00  0.00    +0.000 A 
ATOM     26  C   UNL     1       2.461  11.959  18.058  0.00  0.00    +0.000 A 
ATOM     27  C   UNL     1       1.464  11.501  19.029  0.00  0.00    +0.000 A 
ATOM     28  C   UNL     1       1.079  10.147  19.200  0.00  0.00    +0.000 A 
ATOM     29  C   UNL     1       0.005   9.840  20.050  0.00  0.00    +0.000 A 
ATOM     30  C   UNL     1      -0.668  10.824  20.756  0.00  0.00    +0.000 A 
ATOM     31  C   UNL     1      -0.269  12.151  20.623  0.00  0.00    +0.000 A 
ATOM     32  C   UNL     1       0.793  12.506  19.776  0.00  0.00    +0.000 A 
ENDBRANCH   1  28
TORSDOF 2
ENDMDL
MODEL 9
REMARK VINA RESULT:      -9.7      2.112      2.773
REMARK  Name = 
REMARK  3 active torsions:
REMARK  status: ('A' for Active; 'I' for Inactive)
REMARK    1  A    between atoms: C_1  and  N_2
REMARK    2  A    between atoms: C_8  and  N_9
REMARK    3  A    between atoms: N_12  and  C_13
REMARK                            x       y       z     vdW  Elec       q    Type
REMARK                         _______ _______ _______ _____ _____    ______ ____
ROOT
ATOM      1  N   UNL     1       1.536   8.961  19.240  0.00  0.00    +0.000 N 
ATOM      2  C   UNL     1       2.186   8.286  18.238  0.00  0.00    +0.000 C 
ATOM      3  O   UNL     1       2.377   8.652  17.089  0.00  0.00    +0.000 OA
ATOM      4  N   UNL     1       2.645   7.086  18.724  0.00  0.00    +0.000 N 
ATOM      5  H   UNL     1       1.929   8.754  20.147  0.00  0.00    +0.000 HD
ATOM      6  H   UNL     1       2.251   6.768  19.595  0.00  0.00    +0.000 HD
ENDROOT
BRANCH   4   7
ATOM      7  C   UNL     1       3.280   6.102  17.863  0.00  0.00    +0.000 C 
ATOM      8  C   UNL     1       4.799   6.278  17.930  0.00  0.00    +0.000 C 
ATOM      9  C   UNL     1       5.453   5.107  17.206  0.00  0.00    +0.000 C 
ATOM     10  C   UNL     1       6.983   5.304  16.951  0.00  0.00    +0.000 C 
ATOM     11  C   UNL     1       6.619   5.929  15.591  0.00  0.00    +0.000 C 
ATOM     12  C   UNL     1       5.315   5.106  15.646  0.00  0.00    +0.000 C 
ATOM     13  O   UNL     1       5.140   3.861  17.887  0.00  0.00    +0.000 OA
ATOM     14  C   UNL     1       3.850   3.686  18.325  0.00  0.00    +0.000 A 
ATOM     15  C   UNL     1       3.536   2.436  18.866  0.00  0.00    +0.000 A 
ATOM     16  C   UNL     1       2.240   2.174  19.314  0.00  0.00    +0.000 A 
ATOM     17  C   UNL     1       1.260   3.146  19.170  0.00  0.00    +0.000 A 
ATOM     18  F   UNL     1       0.009   2.895  19.575  0.00  0.00    +0.000 F 
ATOM     19  C   UNL     1       1.566   4.393  18.639  0.00  0.00    +0.000 A 
ATOM     20  C   UNL     1       2.890   4.703  18.278  0.00  0.00    +0.000 A 
ENDBRANCH   4   7
BRANCH   1  28
ATOM     21  C   UNL     1      -0.333  14.925  18.598  0.00  0.00    +0.000 C 
ATOM     22  N   UNL     1       0.643  13.848  18.618  0.00  0.00    +0.000 N 
ATOM     23  C   UNL     1       1.974  14.178  18.407  0.00  0.00    +0.000 A 
ATOM     24  O   UNL     1       2.399  15.323  18.268  0.00  0.00    +0.000 OA
ATOM     25  C   UNL     1       2.921  13.057  18.283  0.00  0.00    +0.000 A 
ATOM     26  C   UNL     1       2.536  11.790  18.453  0.00  0.00    +0.000 A 
ATOM     27  C   UNL     1       1.174  11.445  18.868  0.00  0.00    +0.000 A 
ATOM     28  C   UNL     1       0.743  10.131  19.180  0.00  0.00    +0.000 A 
ATOM     29  C   UNL     1      -0.620   9.891  19.415  0.00  0.00    +0.000 A 
ATOM     30  C   UNL     1      -1.553  10.915  19.388  0.00  0.00    +0.000 A 
ATOM     31  C   UNL     1      -1.131  12.215  19.122  0.00  0.00    +0.000 A 
ATOM     32  C   UNL     1       0.221  12.498  18.869  0.00  0.00    +0.000 A 
ENDBRANCH   1  28
TORSDOF 2
ENDMDL
