MODEL 1
REMARK VINA RESULT:      -7.2      0.000      0.000
REMARK  Name = 
REMARK  4 active torsions:
REMARK  status: ('A' for Active; 'I' for Inactive)
REMARK    1  A    between atoms: O_1  and  N_2
REMARK    2  A    between atoms: C_3  and  C_4
REMARK    3  A    between atoms: C_9  and  S_10
REMARK    4  A    between atoms: S_10  and  C_11
REMARK                            x       y       z     vdW  Elec       q    Type
REMARK                         _______ _______ _______ _____ _____    ______ ____
ROOT
ATOM      1  C   UNL     1       6.351   5.196  17.900  0.00  0.00    +0.000 A 
ATOM      2  C   UNL     1       7.294   4.751  16.962  0.00  0.00    +0.000 A 
ATOM      3  C   UNL     1       6.933   4.610  15.627  0.00  0.00    +0.000 A 
ATOM      4  C   UNL     1       5.632   4.907  15.274  0.00  0.00    +0.000 A 
ATOM      5  N   UNL     1       4.696   5.336  16.151  0.00  0.00    +0.000 NA
ATOM      6  C   UNL     1       5.058   5.484  17.456  0.00  0.00    +0.000 A 
ENDROOT
BRANCH   1   8
ATOM      7  N   UNL     1       8.011   5.187  19.661  0.00  0.00    +0.000 NA
ATOM      8  C   UNL     1       6.774   5.359  19.305  0.00  0.00    +0.000 C 
BRANCH   7   9
ATOM      9  O   UNL     1       8.128   5.405  21.038  0.00  0.00    +0.000 OA
ATOM     10  H   UNL     1       8.134   4.495  21.392  0.00  0.00    +0.000 HD
ENDBRANCH   7   9
ENDBRANCH   1   8
BRANCH   6  11
ATOM     11  S   UNL     1       3.795   6.214  18.478  0.00  0.00    +0.000 S 
BRANCH  11  12
ATOM     12  C   UNL     1       2.700   4.870  18.902  0.00  0.00    +0.000 A 
ATOM     13  C   UNL     1       1.967   4.996  20.092  0.00  0.00    +0.000 A 
ATOM     14  C   UNL     1       1.058   4.011  20.488  0.00  0.00    +0.000 A 
ATOM     15  C   UNL     1       0.868   2.883  19.694  0.00  0.00    +0.000 A 
ATOM     16  C   UNL     1       1.581   2.750  18.504  0.00  0.00    +0.000 A 
ATOM     17  C   UNL     1       2.487   3.740  18.107  0.00  0.00    +0.000 A 
ENDBRANCH  11  12
ENDBRANCH   6  11
TORSDOF 4
ENDMDL
MODEL 2
REMARK VINA RESULT:      -7.0      0.389      1.232
REMARK  Name = 
REMARK  4 active torsions:
REMARK  status: ('A' for Active; 'I' for Inactive)
REMARK    1  A    between atoms: O_1  and  N_2
REMARK    2  A    between atoms: C_3  and  C_4
REMARK    3  A    between atoms: C_9  and  S_10
REMARK    4  A    between atoms: S_10  and  C_11
REMARK                            x       y       z     vdW  Elec       q    Type
REMARK                         _______ _______ _______ _____ _____    ______ ____
ROOT
ATOM      1  C   UNL     1       6.425   5.146  17.885  0.00  0.00    +0.000 A 
ATOM      2  C   UNL     1       7.391   4.763  16.943  0.00  0.00    +0.000 A 
ATOM      3  C   UNL     1       7.049   4.657  15.600  0.00  0.00    +0.000 A 
ATOM      4  C   UNL     1       5.742   4.926  15.243  0.00  0.00    +0.000 A 
ATOM      5  N   UNL     1       4.785   5.296  16.123  0.00  0.00    +0.000 NA
ATOM      6  C   UNL     1       5.129   5.410  17.436  0.00  0.00    +0.000 A 
ENDROOT
BRANCH   1   8
ATOM      7  N   UNL     1       8.077   5.222  19.651  0.00  0.00    +0.000 NA
ATOM      8  C   UNL     1       6.828   5.273  19.299  0.00  0.00    +0.000 C 
BRANCH   7   9
ATOM      9  O   UNL     1       8.171   5.370  21.040  0.00  0.00    +0.000 OA
ATOM     10  H   UNL     1       7.315   5.013  21.344  0.00  0.00    +0.000 HD
ENDBRANCH   7   9
ENDBRANCH   1   8
BRANCH   6  11
ATOM     11  S   UNL     1       3.833   6.065  18.468  0.00  0.00    +0.000 S 
BRANCH  11  12
ATOM     12  C   UNL     1       2.753   4.683  18.799  0.00  0.00    +0.000 A 
ATOM     13  C   UNL     1       2.994   3.500  18.083  0.00  0.00    +0.000 A 
ATOM     14  C   UNL     1       2.223   2.355  18.301  0.00  0.00    +0.000 A 
ATOM     15  C   UNL     1       1.197   2.378  19.242  0.00  0.00    +0.000 A 
ATOM     16  C   UNL     1       0.954   3.542  19.968  0.00  0.00    +0.000 A 
ATOM     17  C   UNL     1       1.730   4.686  19.752  0.00  0.00    +0.000 A 
ENDBRANCH  11  12
ENDBRANCH   6  11
TORSDOF 4
ENDMDL
MODEL 3
REMARK VINA RESULT:      -6.8      2.646      3.450
REMARK  Name = 
REMARK  4 active torsions:
REMARK  status: ('A' for Active; 'I' for Inactive)
REMARK    1  A    between atoms: O_1  and  N_2
REMARK    2  A    between atoms: C_3  and  C_4
REMARK    3  A    between atoms: C_9  and  S_10
REMARK    4  A    between atoms: S_10  and  C_11
REMARK                            x       y       z     vdW  Elec       q    Type
REMARK                         _______ _______ _______ _____ _____    ______ ____
ROOT
ATOM      1  C   UNL     1       6.175   4.310  16.711  0.00  0.00    +0.000 A 
ATOM      2  C   UNL     1       7.401   4.858  17.115  0.00  0.00    +0.000 A 
ATOM      3  C   UNL     1       7.524   5.439  18.371  0.00  0.00    +0.000 A 
ATOM      4  C   UNL     1       6.407   5.463  19.183  0.00  0.00    +0.000 A 
ATOM      5  N   UNL     1       5.209   4.947  18.828  0.00  0.00    +0.000 NA
ATOM      6  C   UNL     1       5.098   4.368  17.599  0.00  0.00    +0.000 A 
ENDROOT
BRANCH   1   8
ATOM      7  N   UNL     1       6.610   4.240  14.332  0.00  0.00    +0.000 NA
ATOM      8  C   UNL     1       6.086   3.679  15.379  0.00  0.00    +0.000 C 
BRANCH   7   9
ATOM      9  O   UNL     1       6.381   3.431  13.213  0.00  0.00    +0.000 OA
ATOM     10  H   UNL     1       7.059   2.738  13.317  0.00  0.00    +0.000 HD
ENDBRANCH   7   9
ENDBRANCH   1   8
BRANCH   6  11
ATOM     11  S   UNL     1       3.528   3.577  17.313  0.00  0.00    +0.000 S 
BRANCH  11  12
ATOM     12  C   UNL     1       2.732   3.522  18.909  0.00  0.00    +0.000 A 
ATOM     13  C   UNL     1       3.234   2.599  19.841  0.00  0.00    +0.000 A 
ATOM     14  C   UNL     1       2.698   2.510  21.128  0.00  0.00    +0.000 A 
ATOM     15  C   UNL     1       1.649   3.346  21.503  0.00  0.00    +0.000 A 
ATOM     16  C   UNL     1       1.149   4.274  20.592  0.00  0.00    +0.000 A 
ATOM     17  C   UNL     1       1.690   4.366  19.305  0.00  0.00    +0.000 A 
ENDBRANCH  11  12
ENDBRANCH   6  11
TORSDOF 4
ENDMDL
MODEL 4
REMARK VINA RESULT:      -6.6      2.811      5.655
REMARK  Name = 
REMARK  4 active torsions:
REMARK  status: ('A' for Active; 'I' for Inactive)
REMARK    1  A    between atoms: O_1  and  N_2
REMARK    2  A    between atoms: C_3  and  C_4
REMARK    3  A    between atoms: C_9  and  S_10
REMARK    4  A    between atoms: S_10  and  C_11
REMARK                            x       y       z     vdW  Elec       q    Type
REMARK                         _______ _______ _______ _____ _____    ______ ____
ROOT
ATOM      1  C   UNL     1       3.235   3.653  19.660  0.00  0.00    +0.000 A 
ATOM      2  C   UNL     1       2.373   3.657  20.766  0.00  0.00    +0.000 A 
ATOM      3  C   UNL     1       1.648   4.800  21.079  0.00  0.00    +0.000 A 
ATOM      4  C   UNL     1       1.819   5.912  20.278  0.00  0.00    +0.000 A 
ATOM      5  N   UNL     1       2.641   5.946  19.206  0.00  0.00    +0.000 NA
ATOM      6  C   UNL     1       3.341   4.818  18.897  0.00  0.00    +0.000 A 
ENDROOT
BRANCH   1   8
ATOM      7  N   UNL     1       3.503   1.550  18.493  0.00  0.00    +0.000 NA
ATOM      8  C   UNL     1       3.972   2.414  19.341  0.00  0.00    +0.000 C 
BRANCH   7   9
ATOM      9  O   UNL     1       4.399   0.481  18.381  0.00  0.00    +0.000 OA
ATOM     10  H   UNL     1       4.050  -0.152  19.037  0.00  0.00    +0.000 HD
ENDBRANCH   7   9
ENDBRANCH   1   8
BRANCH   6  11
ATOM     11  S   UNL     1       4.255   4.930  17.372  0.00  0.00    +0.000 S 
BRANCH  11  12
ATOM     12  C   UNL     1       5.756   5.802  17.788  0.00  0.00    +0.000 A 
ATOM     13  C   UNL     1       6.542   5.262  18.818  0.00  0.00    +0.000 A 
ATOM     14  C   UNL     1       7.752   5.856  19.189  0.00  0.00    +0.000 A 
ATOM     15  C   UNL     1       8.193   7.001  18.531  0.00  0.00    +0.000 A 
ATOM     16  C   UNL     1       7.428   7.541  17.500  0.00  0.00    +0.000 A 
ATOM     17  C   UNL     1       6.219   6.943  17.126  0.00  0.00    +0.000 A 
ENDBRANCH  11  12
ENDBRANCH   6  11
TORSDOF 4
ENDMDL
MODEL 5
REMARK VINA RESULT:      -6.5      2.711      3.457
REMARK  Name = 
REMARK  4 active torsions:
REMARK  status: ('A' for Active; 'I' for Inactive)
REMARK    1  A    between atoms: O_1  and  N_2
REMARK    2  A    between atoms: C_3  and  C_4
REMARK    3  A    between atoms: C_9  and  S_10
REMARK    4  A    between atoms: S_10  and  C_11
REMARK                            x       y       z     vdW  Elec       q    Type
REMARK                         _______ _______ _______ _____ _____    ______ ____
ROOT
ATOM      1  C   UNL     1       5.971   4.689  16.586  0.00  0.00    +0.000 A 
ATOM      2  C   UNL     1       7.109   5.459  16.869  0.00  0.00    +0.000 A 
ATOM      3  C   UNL     1       7.385   5.837  18.177  0.00  0.00    +0.000 A 
ATOM      4  C   UNL     1       6.503   5.440  19.164  0.00  0.00    +0.000 A 
ATOM      5  N   UNL     1       5.397   4.701  18.928  0.00  0.00    +0.000 NA
ATOM      6  C   UNL     1       5.137   4.323  17.645  0.00  0.00    +0.000 A 
ENDROOT
BRANCH   1   8
ATOM      7  N   UNL     1       6.697   4.133  14.345  0.00  0.00    +0.000 NA
ATOM      8  C   UNL     1       5.721   4.285  15.188  0.00  0.00    +0.000 C 
BRANCH   7   9
ATOM      9  O   UNL     1       6.178   3.747  13.104  0.00  0.00    +0.000 OA
ATOM     10  H   UNL     1       5.238   3.587  13.313  0.00  0.00    +0.000 HD
ENDBRANCH   7   9
ENDBRANCH   1   8
BRANCH   6  11
ATOM     11  S   UNL     1       3.753   3.214  17.484  0.00  0.00    +0.000 S 
BRANCH  11  12
ATOM     12  C   UNL     1       2.935   3.251  19.070  0.00  0.00    +0.000 A 
ATOM     13  C   UNL     1       1.763   4.018  19.164  0.00  0.00    +0.000 A 
ATOM     14  C   UNL     1       1.035   4.079  20.356  0.00  0.00    +0.000 A 
ATOM     15  C   UNL     1       1.470   3.369  21.472  0.00  0.00    +0.000 A 
ATOM     16  C   UNL     1       2.625   2.594  21.388  0.00  0.00    +0.000 A 
ATOM     17  C   UNL     1       3.351   2.531  20.193  0.00  0.00    +0.000 A 
ENDBRANCH  11  12
ENDBRANCH   6  11
TORSDOF 4
ENDMDL
MODEL 6
REMARK VINA RESULT:      -6.5      0.974      1.112
REMARK  Name = 
REMARK  4 active torsions:
REMARK  status: ('A' for Active; 'I' for Inactive)
REMARK    1  A    between atoms: O_1  and  N_2
REMARK    2  A    between atoms: C_3  and  C_4
REMARK    3  A    between atoms: C_9  and  S_10
REMARK    4  A    between atoms: S_10  and  C_11
REMARK                            x       y       z     vdW  Elec       q    Type
REMARK                         _______ _______ _______ _____ _____    ______ ____
ROOT
ATOM      1  C   UNL     1       6.512   5.308  17.010  0.00  0.00    +0.000 A 
ATOM      2  C   UNL     1       7.459   4.995  16.024  0.00  0.00    +0.000 A 
ATOM      3  C   UNL     1       7.041   4.612  14.755  0.00  0.00    +0.000 A 
ATOM      4  C   UNL     1       5.683   4.541  14.516  0.00  0.00    +0.000 A 
ATOM      5  N   UNL     1       4.742   4.833  15.441  0.00  0.00    +0.000 NA
ATOM      6  C   UNL     1       5.157   5.220  16.680  0.00  0.00    +0.000 A 
ENDROOT
BRANCH   1   8
ATOM      7  N   UNL     1       7.631   4.920  19.120  0.00  0.00    +0.000 NA
ATOM      8  C   UNL     1       6.989   5.736  18.340  0.00  0.00    +0.000 C 
BRANCH   7   9
ATOM      9  O   UNL     1       7.964   5.583  20.306  0.00  0.00    +0.000 OA
ATOM     10  H   UNL     1       8.789   6.043  20.061  0.00  0.00    +0.000 HD
ENDBRANCH   7   9
ENDBRANCH   1   8
BRANCH   6  11
ATOM     11  S   UNL     1       3.835   5.740  17.755  0.00  0.00    +0.000 S 
BRANCH  11  12
ATOM     12  C   UNL     1       3.060   4.231  18.310  0.00  0.00    +0.000 A 
ATOM     13  C   UNL     1       1.734   4.325  18.763  0.00  0.00    +0.000 A 
ATOM     14  C   UNL     1       1.034   3.191  19.183  0.00  0.00    +0.000 A 
ATOM     15  C   UNL     1       1.652   1.943  19.154  0.00  0.00    +0.000 A 
ATOM     16  C   UNL     1       2.963   1.834  18.696  0.00  0.00    +0.000 A 
ATOM     17  C   UNL     1       3.662   2.970  18.271  0.00  0.00    +0.000 A 
ENDBRANCH  11  12
ENDBRANCH   6  11
TORSDOF 4
ENDMDL
MODEL 7
REMARK VINA RESULT:      -6.5      1.083      1.280
REMARK  Name = 
REMARK  4 active torsions:
REMARK  status: ('A' for Active; 'I' for Inactive)
REMARK    1  A    between atoms: O_1  and  N_2
REMARK    2  A    between atoms: C_3  and  C_4
REMARK    3  A    between atoms: C_9  and  S_10
REMARK    4  A    between atoms: S_10  and  C_11
REMARK                            x       y       z     vdW  Elec       q    Type
REMARK                         _______ _______ _______ _____ _____    ______ ____
ROOT
ATOM      1  C   UNL     1       6.622   5.277  17.014  0.00  0.00    +0.000 A 
ATOM      2  C   UNL     1       7.478   4.904  15.967  0.00  0.00    +0.000 A 
ATOM      3  C   UNL     1       6.949   4.506  14.745  0.00  0.00    +0.000 A 
ATOM      4  C   UNL     1       5.575   4.483  14.613  0.00  0.00    +0.000 A 
ATOM      5  N   UNL     1       4.720   4.833  15.599  0.00  0.00    +0.000 NA
ATOM      6  C   UNL     1       5.243   5.234  16.792  0.00  0.00    +0.000 A 
ENDROOT
BRANCH   1   8
ATOM      7  N   UNL     1       7.193   4.958  19.344  0.00  0.00    +0.000 NA
ATOM      8  C   UNL     1       7.217   5.718  18.291  0.00  0.00    +0.000 C 
BRANCH   7   9
ATOM      9  O   UNL     1       7.824   5.619  20.404  0.00  0.00    +0.000 OA
ATOM     10  H   UNL     1       8.764   5.401  20.253  0.00  0.00    +0.000 HD
ENDBRANCH   7   9
ENDBRANCH   1   8
BRANCH   6  11
ATOM     11  S   UNL     1       4.029   5.831  17.950  0.00  0.00    +0.000 S 
BRANCH  11  12
ATOM     12  C   UNL     1       3.068   4.397  18.403  0.00  0.00    +0.000 A 
ATOM     13  C   UNL     1       3.742   3.362  19.070  0.00  0.00    +0.000 A 
ATOM     14  C   UNL     1       3.064   2.216  19.495  0.00  0.00    +0.000 A 
ATOM     15  C   UNL     1       1.698   2.090  19.259  0.00  0.00    +0.000 A 
ATOM     16  C   UNL     1       1.015   3.114  18.607  0.00  0.00    +0.000 A 
ATOM     17  C   UNL     1       1.693   4.263  18.186  0.00  0.00    +0.000 A 
ENDBRANCH  11  12
ENDBRANCH   6  11
TORSDOF 4
ENDMDL
MODEL 8
REMARK VINA RESULT:      -6.5      2.342      5.199
REMARK  Name = 
REMARK  4 active torsions:
REMARK  status: ('A' for Active; 'I' for Inactive)
REMARK    1  A    between atoms: O_1  and  N_2
REMARK    2  A    between atoms: C_3  and  C_4
REMARK    3  A    between atoms: C_9  and  S_10
REMARK    4  A    between atoms: S_10  and  C_11
REMARK                            x       y       z     vdW  Elec       q    Type
REMARK                         _______ _______ _______ _____ _____    ______ ____
ROOT
ATOM      1  C   UNL     1       3.431   2.679  19.377  0.00  0.00    +0.000 A 
ATOM      2  C   UNL     1       2.188   2.059  19.181  0.00  0.00    +0.000 A 
ATOM      3  C   UNL     1       1.147   2.761  18.585  0.00  0.00    +0.000 A 
ATOM      4  C   UNL     1       1.380   4.070  18.214  0.00  0.00    +0.000 A 
ATOM      5  N   UNL     1       2.563   4.701  18.388  0.00  0.00    +0.000 NA
ATOM      6  C   UNL     1       3.584   4.004  18.963  0.00  0.00    +0.000 A 
ENDROOT
BRANCH   1   8
ATOM      7  N   UNL     1       4.705   1.889  21.277  0.00  0.00    +0.000 NA
ATOM      8  C   UNL     1       4.522   1.897  19.991  0.00  0.00    +0.000 C 
BRANCH   7   9
ATOM      9  O   UNL     1       5.799   1.071  21.582  0.00  0.00    +0.000 OA
ATOM     10  H   UNL     1       5.907   0.556  20.760  0.00  0.00    +0.000 HD
ENDBRANCH   7   9
ENDBRANCH   1   8
BRANCH   6  11
ATOM     11  S   UNL     1       5.134   4.881  18.984  0.00  0.00    +0.000 S 
BRANCH  11  12
ATOM     12  C   UNL     1       5.789   4.716  17.332  0.00  0.00    +0.000 A 
ATOM     13  C   UNL     1       4.961   4.109  16.376  0.00  0.00    +0.000 A 
ATOM     14  C   UNL     1       5.374   3.968  15.048  0.00  0.00    +0.000 A 
ATOM     15  C   UNL     1       6.626   4.437  14.658  0.00  0.00    +0.000 A 
ATOM     16  C   UNL     1       7.454   5.052  15.595  0.00  0.00    +0.000 A 
ATOM     17  C   UNL     1       7.037   5.196  16.923  0.00  0.00    +0.000 A 
ENDBRANCH  11  12
ENDBRANCH   6  11
TORSDOF 4
ENDMDL
MODEL 9
REMARK VINA RESULT:      -6.5      1.779      2.522
REMARK  Name = 
REMARK  4 active torsions:
REMARK  status: ('A' for Active; 'I' for Inactive)
REMARK    1  A    between atoms: O_1  and  N_2
REMARK    2  A    between atoms: C_3  and  C_4
REMARK    3  A    between atoms: C_9  and  S_10
REMARK    4  A    between atoms: S_10  and  C_11
REMARK                            x       y       z     vdW  Elec       q    Type
REMARK                         _______ _______ _______ _____ _____    ______ ____
ROOT
ATOM      1  C   UNL     1       6.235   4.888  17.572  0.00  0.00    +0.000 A 
ATOM      2  C   UNL     1       7.135   5.055  16.510  0.00  0.00    +0.000 A 
ATOM      3  C   UNL     1       6.737   4.766  15.210  0.00  0.00    +0.000 A 
ATOM      4  C   UNL     1       5.450   4.305  15.016  0.00  0.00    +0.000 A 
ATOM      5  N   UNL     1       4.557   4.130  16.015  0.00  0.00    +0.000 NA
ATOM      6  C   UNL     1       4.948   4.427  17.286  0.00  0.00    +0.000 A 
ENDROOT
BRANCH   1   8
ATOM      7  N   UNL     1       7.933   5.146  19.277  0.00  0.00    +0.000 NA
ATOM      8  C   UNL     1       6.682   5.228  18.938  0.00  0.00    +0.000 C 
BRANCH   7   9
ATOM      9  O   UNL     1       8.072   5.526  20.617  0.00  0.00    +0.000 OA
ATOM     10  H   UNL     1       8.850   5.008  20.899  0.00  0.00    +0.000 HD
ENDBRANCH   7   9
ENDBRANCH   1   8
BRANCH   6  11
ATOM     11  S   UNL     1       3.638   4.320  18.489  0.00  0.00    +0.000 S 
BRANCH  11  12
ATOM     12  C   UNL     1       2.990   5.977  18.625  0.00  0.00    +0.000 A 
ATOM     13  C   UNL     1       2.343   6.312  19.825  0.00  0.00    +0.000 A 
ATOM     14  C   UNL     1       1.835   7.596  20.036  0.00  0.00    +0.000 A 
ATOM     15  C   UNL     1       1.968   8.567  19.047  0.00  0.00    +0.000 A 
ATOM     16  C   UNL     1       2.618   8.252  17.856  0.00  0.00    +0.000 A 
ATOM     17  C   UNL     1       3.131   6.966  17.647  0.00  0.00    +0.000 A 
ENDBRANCH  11  12
ENDBRANCH   6  11
TORSDOF 4
ENDMDL
