MODEL 1
REMARK VINA RESULT:      -7.4      0.000      0.000
REMARK  Name = 
REMARK  10 active torsions:
REMARK  status: ('A' for Active; 'I' for Inactive)
REMARK    1  A    between atoms: C_1  and  O_2
REMARK    2  A    between atoms: O_2  and  C_3
REMARK    3  A    between atoms: C_3  and  C_4
REMARK    4  A    between atoms: C_6  and  N_7
REMARK    5  A    between atoms: N_12  and  C_13
REMARK    6  A    between atoms: C_13  and  C_14
REMARK    7  A    between atoms: C_22  and  O_23
REMARK    8  A    between atoms: O_23  and  C_24
REMARK    9  A    between atoms: C_25  and  O_26
REMARK   10  A    between atoms: O_26  and  C_27
REMARK                            x       y       z     vdW  Elec       q    Type
REMARK                         _______ _______ _______ _____ _____    ______ ____
ROOT
ATOM      1  N   UNL     1       2.069   7.400  19.123  0.00  0.00    +0.000 N 
ATOM      2  C   UNL     1       1.756   7.211  20.453  0.00  0.00    +0.000 A 
ATOM      3  C   UNL     1       1.273   8.185  21.214  0.00  0.00    +0.000 A 
ATOM      4  C   UNL     1       1.013   9.501  20.614  0.00  0.00    +0.000 A 
ATOM      5  O   UNL     1       0.635  10.412  21.344  0.00  0.00    +0.000 OA
ATOM      6  N   UNL     1       1.224   9.597  19.252  0.00  0.00    +0.000 N 
ATOM      7  C   UNL     1       1.874   8.627  18.489  0.00  0.00    +0.000 A 
ATOM      8  O   UNL     1       2.262   8.828  17.340  0.00  0.00    +0.000 OA
ENDROOT
BRANCH   1  11
ATOM      9  C   UNL     1       3.383   4.290  19.200  0.00  0.00    +0.000 C 
ATOM     10  O   UNL     1       2.189   5.045  18.903  0.00  0.00    +0.000 OA
ATOM     11  C   UNL     1       2.567   6.290  18.298  0.00  0.00    +0.000 C 
ATOM     12  C   UNL     1       4.097   6.276  18.098  0.00  0.00    +0.000 C 
ATOM     13  C   UNL     1       4.538   5.295  19.198  0.00  0.00    +0.000 C 
BRANCH  12  14
ATOM     14  O   UNL     1       4.466   5.752  16.806  0.00  0.00    +0.000 OA
ATOM     15  C   UNL     1       5.243   6.659  16.030  0.00  0.00    +0.000 C 
ENDBRANCH  12  14
BRANCH  13  16
ATOM     16  O   UNL     1       5.787   4.635  19.002  0.00  0.00    +0.000 OA
ATOM     17  C   UNL     1       6.920   5.460  19.242  0.00  0.00    +0.000 C 
ENDBRANCH  13  16
BRANCH   9  18
ATOM     18  C   UNL     1       3.176   3.580  20.545  0.00  0.00    +0.000 C 
BRANCH  18  20
ATOM     19  C   UNL     1       1.314   2.634  21.682  0.00  0.00    +0.000 C 
ATOM     20  O   UNL     1       1.804   3.736  20.937  0.00  0.00    +0.000 OA
ENDBRANCH  18  20
ENDBRANCH   9  18
ENDBRANCH   1  11
BRANCH   6  21
ATOM     21  C   UNL     1       0.755  10.805  18.587  0.00  0.00    +0.000 C 
BRANCH  21  22
ATOM     22  C   UNL     1      -0.747  10.754  18.361  0.00  0.00    +0.000 A 
ATOM     23  C   UNL     1      -1.303   9.818  17.473  0.00  0.00    +0.000 A 
ATOM     24  C   UNL     1      -2.675   9.809  17.213  0.00  0.00    +0.000 A 
ATOM     25  C   UNL     1      -3.508  10.735  17.836  0.00  0.00    +0.000 A 
ATOM     26  C   UNL     1      -2.971  11.665  18.723  0.00  0.00    +0.000 A 
ATOM     27  C   UNL     1      -1.597  11.680  18.982  0.00  0.00    +0.000 A 
ENDBRANCH  21  22
ENDBRANCH   6  21
TORSDOF 7
ENDMDL
MODEL 2
REMARK VINA RESULT:      -7.2      0.889      1.138
REMARK  Name = 
REMARK  10 active torsions:
REMARK  status: ('A' for Active; 'I' for Inactive)
REMARK    1  A    between atoms: C_1  and  O_2
REMARK    2  A    between atoms: O_2  and  C_3
REMARK    3  A    between atoms: C_3  and  C_4
REMARK    4  A    between atoms: C_6  and  N_7
REMARK    5  A    between atoms: N_12  and  C_13
REMARK    6  A    between atoms: C_13  and  C_14
REMARK    7  A    between atoms: C_22  and  O_23
REMARK    8  A    between atoms: O_23  and  C_24
REMARK    9  A    between atoms: C_25  and  O_26
REMARK   10  A    between atoms: O_26  and  C_27
REMARK                            x       y       z     vdW  Elec       q    Type
REMARK                         _______ _______ _______ _____ _____    ______ ____
ROOT
ATOM      1  N   UNL     1       2.241   7.396  18.883  0.00  0.00    +0.000 N 
ATOM      2  C   UNL     1       1.885   7.006  20.158  0.00  0.00    +0.000 A 
ATOM      3  C   UNL     1       1.329   7.842  21.026  0.00  0.00    +0.000 A 
ATOM      4  C   UNL     1       1.035   9.219  20.608  0.00  0.00    +0.000 A 
ATOM      5  O   UNL     1       0.588  10.000  21.442  0.00  0.00    +0.000 OA
ATOM      6  N   UNL     1       1.295   9.517  19.284  0.00  0.00    +0.000 N 
ATOM      7  C   UNL     1       2.017   8.693  18.422  0.00  0.00    +0.000 A 
ATOM      8  O   UNL     1       2.440   9.071  17.331  0.00  0.00    +0.000 OA
ENDROOT
BRANCH   1  11
ATOM      9  C   UNL     1       2.481   4.124  18.080  0.00  0.00    +0.000 C 
ATOM     10  O   UNL     1       1.879   5.378  17.696  0.00  0.00    +0.000 OA
ATOM     11  C   UNL     1       2.821   6.435  17.933  0.00  0.00    +0.000 C 
ATOM     12  C   UNL     1       4.146   5.796  18.395  0.00  0.00    +0.000 C 
ATOM     13  C   UNL     1       3.649   4.475  19.006  0.00  0.00    +0.000 C 
BRANCH  12  14
ATOM     14  O   UNL     1       5.025   5.517  17.287  0.00  0.00    +0.000 OA
ATOM     15  C   UNL     1       5.017   6.535  16.291  0.00  0.00    +0.000 C 
ENDBRANCH  12  14
BRANCH  13  16
ATOM     16  O   UNL     1       4.591   3.404  19.065  0.00  0.00    +0.000 OA
ATOM     17  C   UNL     1       4.380   2.509  20.149  0.00  0.00    +0.000 C 
ENDBRANCH  13  16
BRANCH   9  18
ATOM     18  C   UNL     1       1.399   3.259  18.741  0.00  0.00    +0.000 C 
BRANCH  18  20
ATOM     19  C   UNL     1       1.092   2.972  21.082  0.00  0.00    +0.000 C 
ATOM     20  O   UNL     1       1.024   3.868  19.985  0.00  0.00    +0.000 OA
ENDBRANCH  18  20
ENDBRANCH   9  18
ENDBRANCH   1  11
BRANCH   6  21
ATOM     21  C   UNL     1       0.798  10.789  18.776  0.00  0.00    +0.000 C 
BRANCH  21  22
ATOM     22  C   UNL     1      -0.687  10.710  18.467  0.00  0.00    +0.000 A 
ATOM     23  C   UNL     1      -1.168   9.812  17.500  0.00  0.00    +0.000 A 
ATOM     24  C   UNL     1      -2.523   9.780  17.167  0.00  0.00    +0.000 A 
ATOM     25  C   UNL     1      -3.416  10.645  17.795  0.00  0.00    +0.000 A 
ATOM     26  C   UNL     1      -2.954  11.538  18.759  0.00  0.00    +0.000 A 
ATOM     27  C   UNL     1      -1.596  11.575  19.092  0.00  0.00    +0.000 A 
ENDBRANCH  21  22
ENDBRANCH   6  21
TORSDOF 7
ENDMDL
MODEL 3
REMARK VINA RESULT:      -7.2      0.617      1.206
REMARK  Name = 
REMARK  10 active torsions:
REMARK  status: ('A' for Active; 'I' for Inactive)
REMARK    1  A    between atoms: C_1  and  O_2
REMARK    2  A    between atoms: O_2  and  C_3
REMARK    3  A    between atoms: C_3  and  C_4
REMARK    4  A    between atoms: C_6  and  N_7
REMARK    5  A    between atoms: N_12  and  C_13
REMARK    6  A    between atoms: C_13  and  C_14
REMARK    7  A    between atoms: C_22  and  O_23
REMARK    8  A    between atoms: O_23  and  C_24
REMARK    9  A    between atoms: C_25  and  O_26
REMARK   10  A    between atoms: O_26  and  C_27
REMARK                            x       y       z     vdW  Elec       q    Type
REMARK                         _______ _______ _______ _____ _____    ______ ____
ROOT
ATOM      1  N   UNL     1       2.020   7.508  19.114  0.00  0.00    +0.000 N 
ATOM      2  C   UNL     1       1.691   7.284  20.434  0.00  0.00    +0.000 A 
ATOM      3  C   UNL     1       1.206   8.240  21.217  0.00  0.00    +0.000 A 
ATOM      4  C   UNL     1       0.962   9.573  20.651  0.00  0.00    +0.000 A 
ATOM      5  O   UNL     1       0.581  10.466  21.403  0.00  0.00    +0.000 OA
ATOM      6  N   UNL     1       1.188   9.706  19.295  0.00  0.00    +0.000 N 
ATOM      7  C   UNL     1       1.840   8.753  18.513  0.00  0.00    +0.000 A 
ATOM      8  O   UNL     1       2.242   8.984  17.374  0.00  0.00    +0.000 OA
ENDROOT
BRANCH   1  11
ATOM      9  C   UNL     1       3.182   4.337  19.107  0.00  0.00    +0.000 C 
ATOM     10  O   UNL     1       2.047   5.164  18.775  0.00  0.00    +0.000 OA
ATOM     11  C   UNL     1       2.521   6.418  18.263  0.00  0.00    +0.000 C 
ATOM     12  C   UNL     1       4.058   6.338  18.161  0.00  0.00    +0.000 C 
ATOM     13  C   UNL     1       4.379   5.283  19.232  0.00  0.00    +0.000 C 
BRANCH  12  14
ATOM     14  O   UNL     1       4.487   5.864  16.869  0.00  0.00    +0.000 OA
ATOM     15  C   UNL     1       5.403   6.741  16.220  0.00  0.00    +0.000 C 
ENDBRANCH  12  14
BRANCH  13  16
ATOM     16  O   UNL     1       5.608   4.573  19.080  0.00  0.00    +0.000 OA
ATOM     17  C   UNL     1       6.762   5.348  19.373  0.00  0.00    +0.000 C 
ENDBRANCH  13  16
BRANCH   9  18
ATOM     18  C   UNL     1       2.854   3.570  20.395  0.00  0.00    +0.000 C 
BRANCH  18  20
ATOM     19  C   UNL     1       3.061   1.791  18.832  0.00  0.00    +0.000 C 
ATOM     20  O   UNL     1       2.476   2.231  20.046  0.00  0.00    +0.000 OA
ENDBRANCH  18  20
ENDBRANCH   9  18
ENDBRANCH   1  11
BRANCH   6  21
ATOM     21  C   UNL     1       0.734  10.935  18.659  0.00  0.00    +0.000 C 
BRANCH  21  22
ATOM     22  C   UNL     1      -0.751  10.870  18.344  0.00  0.00    +0.000 A 
ATOM     23  C   UNL     1      -1.649  11.757  18.959  0.00  0.00    +0.000 A 
ATOM     24  C   UNL     1      -3.022  11.661  18.723  0.00  0.00    +0.000 A 
ATOM     25  C   UNL     1      -3.515  10.677  17.869  0.00  0.00    +0.000 A 
ATOM     26  C   UNL     1      -2.635   9.793  17.248  0.00  0.00    +0.000 A 
ATOM     27  C   UNL     1      -1.260   9.885  17.486  0.00  0.00    +0.000 A 
ENDBRANCH  21  22
ENDBRANCH   6  21
TORSDOF 7
ENDMDL
MODEL 4
REMARK VINA RESULT:      -7.2      2.103      7.436
REMARK  Name = 
REMARK  10 active torsions:
REMARK  status: ('A' for Active; 'I' for Inactive)
REMARK    1  A    between atoms: C_1  and  O_2
REMARK    2  A    between atoms: O_2  and  C_3
REMARK    3  A    between atoms: C_3  and  C_4
REMARK    4  A    between atoms: C_6  and  N_7
REMARK    5  A    between atoms: N_12  and  C_13
REMARK    6  A    between atoms: C_13  and  C_14
REMARK    7  A    between atoms: C_22  and  O_23
REMARK    8  A    between atoms: O_23  and  C_24
REMARK    9  A    between atoms: C_25  and  O_26
REMARK   10  A    between atoms: O_26  and  C_27
REMARK                            x       y       z     vdW  Elec       q    Type
REMARK                         _______ _______ _______ _____ _____    ______ ____
ROOT
ATOM      1  N   UNL     1       1.041   9.090  19.630  0.00  0.00    +0.000 N 
ATOM      2  C   UNL     1       1.239   9.462  18.316  0.00  0.00    +0.000 A 
ATOM      3  C   UNL     1       2.138   8.871  17.539  0.00  0.00    +0.000 A 
ATOM      4  C   UNL     1       2.919   7.748  18.074  0.00  0.00    +0.000 A 
ATOM      5  O   UNL     1       3.795   7.257  17.368  0.00  0.00    +0.000 OA
ATOM      6  N   UNL     1       2.589   7.335  19.351  0.00  0.00    +0.000 N 
ATOM      7  C   UNL     1       1.762   8.050  20.216  0.00  0.00    +0.000 A 
ATOM      8  O   UNL     1       1.670   7.797  21.415  0.00  0.00    +0.000 OA
ENDROOT
BRANCH   1  11
ATOM      9  C   UNL     1      -1.185  11.627  19.754  0.00  0.00    +0.000 C 
ATOM     10  O   UNL     1      -1.053  10.197  19.606  0.00  0.00    +0.000 OA
ATOM     11  C   UNL     1       0.011   9.741  20.454  0.00  0.00    +0.000 C 
ATOM     12  C   UNL     1       0.514  10.945  21.276  0.00  0.00    +0.000 C 
ATOM     13  C   UNL     1       0.133  12.119  20.358  0.00  0.00    +0.000 C 
BRANCH  12  14
ATOM     14  O   UNL     1      -0.182  11.067  22.533  0.00  0.00    +0.000 OA
ATOM     15  C   UNL     1      -0.466   9.813  23.144  0.00  0.00    +0.000 C 
ENDBRANCH  12  14
BRANCH  13  16
ATOM     16  O   UNL     1      -0.038  13.390  20.984  0.00  0.00    +0.000 OA
ATOM     17  C   UNL     1       0.873  14.383  20.532  0.00  0.00    +0.000 C 
ENDBRANCH  13  16
BRANCH   9  18
ATOM     18  C   UNL     1      -1.500  12.222  18.374  0.00  0.00    +0.000 C 
BRANCH  18  20
ATOM     19  C   UNL     1      -3.446  11.372  17.305  0.00  0.00    +0.000 C 
ATOM     20  O   UNL     1      -2.061  11.191  17.550  0.00  0.00    +0.000 OA
ENDBRANCH  18  20
ENDBRANCH   9  18
ENDBRANCH   1  11
BRANCH   6  21
ATOM     21  C   UNL     1       3.171   6.085  19.820  0.00  0.00    +0.000 C 
BRANCH  21  22
ATOM     22  C   UNL     1       2.257   4.910  19.517  0.00  0.00    +0.000 A 
ATOM     23  C   UNL     1       1.470   4.339  20.530  0.00  0.00    +0.000 A 
ATOM     24  C   UNL     1       0.677   3.220  20.273  0.00  0.00    +0.000 A 
ATOM     25  C   UNL     1       0.658   2.657  18.999  0.00  0.00    +0.000 A 
ATOM     26  C   UNL     1       1.430   3.216  17.983  0.00  0.00    +0.000 A 
ATOM     27  C   UNL     1       2.229   4.335  18.239  0.00  0.00    +0.000 A 
ENDBRANCH  21  22
ENDBRANCH   6  21
TORSDOF 7
ENDMDL
MODEL 5
REMARK VINA RESULT:      -7.2      0.871      1.444
REMARK  Name = 
REMARK  10 active torsions:
REMARK  status: ('A' for Active; 'I' for Inactive)
REMARK    1  A    between atoms: C_1  and  O_2
REMARK    2  A    between atoms: O_2  and  C_3
REMARK    3  A    between atoms: C_3  and  C_4
REMARK    4  A    between atoms: C_6  and  N_7
REMARK    5  A    between atoms: N_12  and  C_13
REMARK    6  A    between atoms: C_13  and  C_14
REMARK    7  A    between atoms: C_22  and  O_23
REMARK    8  A    between atoms: O_23  and  C_24
REMARK    9  A    between atoms: C_25  and  O_26
REMARK   10  A    between atoms: O_26  and  C_27
REMARK                            x       y       z     vdW  Elec       q    Type
REMARK                         _______ _______ _______ _____ _____    ______ ____
ROOT
ATOM      1  N   UNL     1       2.070   7.625  19.081  0.00  0.00    +0.000 N 
ATOM      2  C   UNL     1       1.723   7.359  20.389  0.00  0.00    +0.000 A 
ATOM      3  C   UNL     1       1.181   8.277  21.179  0.00  0.00    +0.000 A 
ATOM      4  C   UNL     1       0.892   9.610  20.635  0.00  0.00    +0.000 A 
ATOM      5  O   UNL     1       0.457  10.470  21.396  0.00  0.00    +0.000 OA
ATOM      6  N   UNL     1       1.142   9.781  19.287  0.00  0.00    +0.000 N 
ATOM      7  C   UNL     1       1.851   8.874  18.501  0.00  0.00    +0.000 A 
ATOM      8  O   UNL     1       2.267   9.145  17.377  0.00  0.00    +0.000 OA
ENDROOT
BRANCH   1  11
ATOM      9  C   UNL     1       2.273   4.290  18.581  0.00  0.00    +0.000 C 
ATOM     10  O   UNL     1       1.682   5.510  18.086  0.00  0.00    +0.000 OA
ATOM     11  C   UNL     1       2.635   6.575  18.220  0.00  0.00    +0.000 C 
ATOM     12  C   UNL     1       3.957   5.967  18.733  0.00  0.00    +0.000 C 
ATOM     13  C   UNL     1       3.450   4.713  19.465  0.00  0.00    +0.000 C 
BRANCH  12  14
ATOM     14  O   UNL     1       4.827   5.578  17.651  0.00  0.00    +0.000 OA
ATOM     15  C   UNL     1       4.947   6.572  16.638  0.00  0.00    +0.000 C 
ENDBRANCH  12  14
BRANCH  13  16
ATOM     16  O   UNL     1       4.382   3.642  19.618  0.00  0.00    +0.000 OA
ATOM     17  C   UNL     1       4.081   2.499  18.828  0.00  0.00    +0.000 C 
ENDBRANCH  13  16
BRANCH   9  18
ATOM     18  C   UNL     1       1.186   3.501  19.324  0.00  0.00    +0.000 C 
BRANCH  18  20
ATOM     19  C   UNL     1       1.398   2.742  21.567  0.00  0.00    +0.000 C 
ATOM     20  O   UNL     1       1.230   3.861  20.712  0.00  0.00    +0.000 OA
ENDBRANCH  18  20
ENDBRANCH   9  18
ENDBRANCH   1  11
BRANCH   6  21
ATOM     21  C   UNL     1       0.650  11.003  18.666  0.00  0.00    +0.000 C 
BRANCH  21  22
ATOM     22  C   UNL     1      -0.831  10.892  18.342  0.00  0.00    +0.000 A 
ATOM     23  C   UNL     1      -1.759  11.759  18.943  0.00  0.00    +0.000 A 
ATOM     24  C   UNL     1      -3.126  11.621  18.698  0.00  0.00    +0.000 A 
ATOM     25  C   UNL     1      -3.584  10.616  17.850  0.00  0.00    +0.000 A 
ATOM     26  C   UNL     1      -2.674   9.753  17.242  0.00  0.00    +0.000 A 
ATOM     27  C   UNL     1      -1.304   9.886  17.489  0.00  0.00    +0.000 A 
ENDBRANCH  21  22
ENDBRANCH   6  21
TORSDOF 7
ENDMDL
MODEL 6
REMARK VINA RESULT:      -6.9      2.126      7.423
REMARK  Name = 
REMARK  10 active torsions:
REMARK  status: ('A' for Active; 'I' for Inactive)
REMARK    1  A    between atoms: C_1  and  O_2
REMARK    2  A    between atoms: O_2  and  C_3
REMARK    3  A    between atoms: C_3  and  C_4
REMARK    4  A    between atoms: C_6  and  N_7
REMARK    5  A    between atoms: N_12  and  C_13
REMARK    6  A    between atoms: C_13  and  C_14
REMARK    7  A    between atoms: C_22  and  O_23
REMARK    8  A    between atoms: O_23  and  C_24
REMARK    9  A    between atoms: C_25  and  O_26
REMARK   10  A    between atoms: O_26  and  C_27
REMARK                            x       y       z     vdW  Elec       q    Type
REMARK                         _______ _______ _______ _____ _____    ______ ____
ROOT
ATOM      1  N   UNL     1       1.062   9.046  19.624  0.00  0.00    +0.000 N 
ATOM      2  C   UNL     1       1.236   9.419  18.308  0.00  0.00    +0.000 A 
ATOM      3  C   UNL     1       2.139   8.846  17.521  0.00  0.00    +0.000 A 
ATOM      4  C   UNL     1       2.950   7.741  18.049  0.00  0.00    +0.000 A 
ATOM      5  O   UNL     1       3.829   7.268  17.334  0.00  0.00    +0.000 OA
ATOM      6  N   UNL     1       2.644   7.324  19.331  0.00  0.00    +0.000 N 
ATOM      7  C   UNL     1       1.811   8.023  20.203  0.00  0.00    +0.000 A 
ATOM      8  O   UNL     1       1.739   7.771  21.405  0.00  0.00    +0.000 OA
ENDROOT
BRANCH   1  11
ATOM      9  C   UNL     1      -1.322  11.437  19.712  0.00  0.00    +0.000 C 
ATOM     10  O   UNL     1      -1.101  10.013  19.638  0.00  0.00    +0.000 OA
ATOM     11  C   UNL     1       0.027   9.676  20.458  0.00  0.00    +0.000 C 
ATOM     12  C   UNL     1       0.484  10.957  21.187  0.00  0.00    +0.000 C 
ATOM     13  C   UNL     1      -0.015  12.048  20.225  0.00  0.00    +0.000 C 
BRANCH  12  14
ATOM     14  O   UNL     1      -0.163  11.107  22.467  0.00  0.00    +0.000 OA
ATOM     15  C   UNL     1      -0.451   9.865  23.103  0.00  0.00    +0.000 C 
ENDBRANCH  12  14
BRANCH  13  16
ATOM     16  O   UNL     1      -0.243  13.339  20.787  0.00  0.00    +0.000 OA
ATOM     17  C   UNL     1       0.820  14.259  20.569  0.00  0.00    +0.000 C 
ENDBRANCH  13  16
BRANCH   9  18
ATOM     18  C   UNL     1      -1.736  11.929  18.318  0.00  0.00    +0.000 C 
BRANCH  18  20
ATOM     19  C   UNL     1      -3.876  12.192  19.322  0.00  0.00    +0.000 C 
ATOM     20  O   UNL     1      -3.155  11.763  18.179  0.00  0.00    +0.000 OA
ENDBRANCH  18  20
ENDBRANCH   9  18
ENDBRANCH   1  11
BRANCH   6  21
ATOM     21  C   UNL     1       3.259   6.088  19.795  0.00  0.00    +0.000 C 
BRANCH  21  22
ATOM     22  C   UNL     1       2.358   4.896  19.523  0.00  0.00    +0.000 A 
ATOM     23  C   UNL     1       2.256   4.359  18.229  0.00  0.00    +0.000 A 
ATOM     24  C   UNL     1       1.383   3.304  17.960  0.00  0.00    +0.000 A 
ATOM     25  C   UNL     1       0.599   2.771  18.981  0.00  0.00    +0.000 A 
ATOM     26  C   UNL     1       0.694   3.289  20.271  0.00  0.00    +0.000 A 
ATOM     27  C   UNL     1       1.565   4.349  20.542  0.00  0.00    +0.000 A 
ENDBRANCH  21  22
ENDBRANCH   6  21
TORSDOF 7
ENDMDL
MODEL 7
REMARK VINA RESULT:      -6.9      2.306      7.549
REMARK  Name = 
REMARK  10 active torsions:
REMARK  status: ('A' for Active; 'I' for Inactive)
REMARK    1  A    between atoms: C_1  and  O_2
REMARK    2  A    between atoms: O_2  and  C_3
REMARK    3  A    between atoms: C_3  and  C_4
REMARK    4  A    between atoms: C_6  and  N_7
REMARK    5  A    between atoms: N_12  and  C_13
REMARK    6  A    between atoms: C_13  and  C_14
REMARK    7  A    between atoms: C_22  and  O_23
REMARK    8  A    between atoms: O_23  and  C_24
REMARK    9  A    between atoms: C_25  and  O_26
REMARK   10  A    between atoms: O_26  and  C_27
REMARK                            x       y       z     vdW  Elec       q    Type
REMARK                         _______ _______ _______ _____ _____    ______ ____
ROOT
ATOM      1  N   UNL     1       0.979   9.172  19.768  0.00  0.00    +0.000 N 
ATOM      2  C   UNL     1       1.073   9.606  18.461  0.00  0.00    +0.000 A 
ATOM      3  C   UNL     1       1.924   9.069  17.595  0.00  0.00    +0.000 A 
ATOM      4  C   UNL     1       2.763   7.941  18.020  0.00  0.00    +0.000 A 
ATOM      5  O   UNL     1       3.595   7.502  17.232  0.00  0.00    +0.000 OA
ATOM      6  N   UNL     1       2.536   7.466  19.298  0.00  0.00    +0.000 N 
ATOM      7  C   UNL     1       1.760   8.123  20.252  0.00  0.00    +0.000 A 
ATOM      8  O   UNL     1       1.761   7.816  21.442  0.00  0.00    +0.000 OA
ENDROOT
BRANCH   1  11
ATOM      9  C   UNL     1      -1.045  11.822  20.306  0.00  0.00    +0.000 C 
ATOM     10  O   UNL     1      -1.023  10.427  19.936  0.00  0.00    +0.000 OA
ATOM     11  C   UNL     1       0.000   9.763  20.692  0.00  0.00    +0.000 C 
ATOM     12  C   UNL     1       0.592  10.782  21.688  0.00  0.00    +0.000 C 
ATOM     13  C   UNL     1       0.305  12.111  20.968  0.00  0.00    +0.000 C 
BRANCH  12  14
ATOM     14  O   UNL     1      -0.096  10.759  22.954  0.00  0.00    +0.000 OA
ATOM     15  C   UNL     1      -0.528   9.457  23.339  0.00  0.00    +0.000 C 
ENDBRANCH  12  14
BRANCH  13  16
ATOM     16  O   UNL     1       0.232  13.278  21.787  0.00  0.00    +0.000 OA
ATOM     17  C   UNL     1       1.328  14.167  21.623  0.00  0.00    +0.000 C 
ENDBRANCH  13  16
BRANCH   9  18
ATOM     18  C   UNL     1      -1.309  12.648  19.040  0.00  0.00    +0.000 C 
BRANCH  18  20
ATOM     19  C   UNL     1      -0.104  14.605  18.430  0.00  0.00    +0.000 C 
ATOM     20  O   UNL     1      -0.063  13.196  18.585  0.00  0.00    +0.000 OA
ENDBRANCH  18  20
ENDBRANCH   9  18
ENDBRANCH   1  11
BRANCH   6  21
ATOM     21  C   UNL     1       3.174   6.210  19.667  0.00  0.00    +0.000 C 
BRANCH  21  22
ATOM     22  C   UNL     1       2.253   5.031  19.399  0.00  0.00    +0.000 A 
ATOM     23  C   UNL     1       1.512   4.454  20.443  0.00  0.00    +0.000 A 
ATOM     24  C   UNL     1       0.714   3.331  20.216  0.00  0.00    +0.000 A 
ATOM     25  C   UNL     1       0.645   2.771  18.942  0.00  0.00    +0.000 A 
ATOM     26  C   UNL     1       1.371   3.337  17.896  0.00  0.00    +0.000 A 
ATOM     27  C   UNL     1       2.175   4.459  18.122  0.00  0.00    +0.000 A 
ENDBRANCH  21  22
ENDBRANCH   6  21
TORSDOF 7
ENDMDL
MODEL 8
REMARK VINA RESULT:      -6.7      1.776      7.303
REMARK  Name = 
REMARK  10 active torsions:
REMARK  status: ('A' for Active; 'I' for Inactive)
REMARK    1  A    between atoms: C_1  and  O_2
REMARK    2  A    between atoms: O_2  and  C_3
REMARK    3  A    between atoms: C_3  and  C_4
REMARK    4  A    between atoms: C_6  and  N_7
REMARK    5  A    between atoms: N_12  and  C_13
REMARK    6  A    between atoms: C_13  and  C_14
REMARK    7  A    between atoms: C_22  and  O_23
REMARK    8  A    between atoms: O_23  and  C_24
REMARK    9  A    between atoms: C_25  and  O_26
REMARK   10  A    between atoms: O_26  and  C_27
REMARK                            x       y       z     vdW  Elec       q    Type
REMARK                         _______ _______ _______ _____ _____    ______ ____
ROOT
ATOM      1  N   UNL     1       1.821   8.126  19.687  0.00  0.00    +0.000 N 
ATOM      2  C   UNL     1       1.408   7.296  20.708  0.00  0.00    +0.000 A 
ATOM      3  C   UNL     1       1.584   5.981  20.669  0.00  0.00    +0.000 A 
ATOM      4  C   UNL     1       2.288   5.387  19.525  0.00  0.00    +0.000 A 
ATOM      5  O   UNL     1       2.381   4.164  19.467  0.00  0.00    +0.000 OA
ATOM      6  N   UNL     1       2.791   6.276  18.595  0.00  0.00    +0.000 N 
ATOM      7  C   UNL     1       2.472   7.633  18.557  0.00  0.00    +0.000 A 
ATOM      8  O   UNL     1       2.734   8.355  17.597  0.00  0.00    +0.000 OA
ENDROOT
BRANCH   1  11
ATOM      9  C   UNL     1       0.050  10.595  21.163  0.00  0.00    +0.000 C 
ATOM     10  O   UNL     1       1.335   9.938  21.134  0.00  0.00    +0.000 OA
ATOM     11  C   UNL     1       1.643   9.583  19.778  0.00  0.00    +0.000 C 
ATOM     12  C   UNL     1       0.530  10.151  18.873  0.00  0.00    +0.000 C 
ATOM     13  C   UNL     1      -0.652  10.221  19.855  0.00  0.00    +0.000 C 
BRANCH  12  14
ATOM     14  O   UNL     1       0.845  11.476  18.400  0.00  0.00    +0.000 OA
ATOM     15  C   UNL     1       2.244  11.708  18.261  0.00  0.00    +0.000 C 
ENDBRANCH  12  14
BRANCH  13  16
ATOM     16  O   UNL     1      -1.684  11.157  19.546  0.00  0.00    +0.000 OA
ATOM     17  C   UNL     1      -2.439  10.821  18.389  0.00  0.00    +0.000 C 
ENDBRANCH  13  16
BRANCH   9  18
ATOM     18  C   UNL     1      -0.693  10.134  22.424  0.00  0.00    +0.000 C 
BRANCH  18  20
ATOM     19  C   UNL     1      -2.184  11.854  23.112  0.00  0.00    +0.000 C 
ATOM     20  O   UNL     1      -0.901  11.273  23.273  0.00  0.00    +0.000 OA
ENDBRANCH  18  20
ENDBRANCH   9  18
ENDBRANCH   1  11
BRANCH   6  21
ATOM     21  C   UNL     1       3.692   5.745  17.581  0.00  0.00    +0.000 C 
BRANCH  21  22
ATOM     22  C   UNL     1       5.142   6.021  17.941  0.00  0.00    +0.000 A 
ATOM     23  C   UNL     1       5.912   6.905  17.169  0.00  0.00    +0.000 A 
ATOM     24  C   UNL     1       7.262   7.114  17.456  0.00  0.00    +0.000 A 
ATOM     25  C   UNL     1       7.860   6.442  18.519  0.00  0.00    +0.000 A 
ATOM     26  C   UNL     1       7.107   5.566  19.297  0.00  0.00    +0.000 A 
ATOM     27  C   UNL     1       5.755   5.351  19.009  0.00  0.00    +0.000 A 
ENDBRANCH  21  22
ENDBRANCH   6  21
TORSDOF 7
ENDMDL
MODEL 9
REMARK VINA RESULT:      -6.6      1.781      7.192
REMARK  Name = 
REMARK  10 active torsions:
REMARK  status: ('A' for Active; 'I' for Inactive)
REMARK    1  A    between atoms: C_1  and  O_2
REMARK    2  A    between atoms: O_2  and  C_3
REMARK    3  A    between atoms: C_3  and  C_4
REMARK    4  A    between atoms: C_6  and  N_7
REMARK    5  A    between atoms: N_12  and  C_13
REMARK    6  A    between atoms: C_13  and  C_14
REMARK    7  A    between atoms: C_22  and  O_23
REMARK    8  A    between atoms: O_23  and  C_24
REMARK    9  A    between atoms: C_25  and  O_26
REMARK   10  A    between atoms: O_26  and  C_27
REMARK                            x       y       z     vdW  Elec       q    Type
REMARK                         _______ _______ _______ _____ _____    ______ ____
ROOT
ATOM      1  N   UNL     1       2.042   7.603  19.775  0.00  0.00    +0.000 N 
ATOM      2  C   UNL     1       1.554   6.667  20.663  0.00  0.00    +0.000 A 
ATOM      3  C   UNL     1       1.690   5.362  20.464  0.00  0.00    +0.000 A 
ATOM      4  C   UNL     1       2.429   4.890  19.285  0.00  0.00    +0.000 A 
ATOM      5  O   UNL     1       2.486   3.682  19.075  0.00  0.00    +0.000 OA
ATOM      6  N   UNL     1       3.005   5.871  18.500  0.00  0.00    +0.000 N 
ATOM      7  C   UNL     1       2.732   7.232  18.621  0.00  0.00    +0.000 A 
ATOM      8  O   UNL     1       3.063   8.059  17.774  0.00  0.00    +0.000 OA
ENDROOT
BRANCH   1  11
ATOM      9  C   UNL     1       0.234   9.937  21.415  0.00  0.00    +0.000 C 
ATOM     10  O   UNL     1       1.494   9.232  21.405  0.00  0.00    +0.000 OA
ATOM     11  C   UNL     1       1.907   9.043  20.044  0.00  0.00    +0.000 C 
ATOM     12  C   UNL     1       0.897   9.773  19.134  0.00  0.00    +0.000 C 
ATOM     13  C   UNL     1      -0.364   9.768  20.016  0.00  0.00    +0.000 C 
BRANCH  12  14
ATOM     14  O   UNL     1       1.297  11.132  18.868  0.00  0.00    +0.000 OA
ATOM     15  C   UNL     1       2.315  11.237  17.878  0.00  0.00    +0.000 C 
ENDBRANCH  12  14
BRANCH  13  16
ATOM     16  O   UNL     1      -1.332  10.781  19.750  0.00  0.00    +0.000 OA
ATOM     17  C   UNL     1      -1.999  10.629  18.503  0.00  0.00    +0.000 C 
ENDBRANCH  13  16
BRANCH   9  18
ATOM     18  C   UNL     1      -0.631   9.351  22.539  0.00  0.00    +0.000 C 
BRANCH  18  20
ATOM     19  C   UNL     1      -1.632  11.420  23.150  0.00  0.00    +0.000 C 
ATOM     20  O   UNL     1      -0.795  10.350  23.557  0.00  0.00    +0.000 OA
ENDBRANCH  18  20
ENDBRANCH   9  18
ENDBRANCH   1  11
BRANCH   6  21
ATOM     21  C   UNL     1       3.936   5.438  17.467  0.00  0.00    +0.000 C 
BRANCH  21  22
ATOM     22  C   UNL     1       5.367   5.787  17.841  0.00  0.00    +0.000 A 
ATOM     23  C   UNL     1       5.957   5.240  18.992  0.00  0.00    +0.000 A 
ATOM     24  C   UNL     1       7.248   5.607  19.375  0.00  0.00    +0.000 A 
ATOM     25  C   UNL     1       7.967   6.525  18.613  0.00  0.00    +0.000 A 
ATOM     26  C   UNL     1       7.396   7.071  17.466  0.00  0.00    +0.000 A 
ATOM     27  C   UNL     1       6.101   6.709  17.082  0.00  0.00    +0.000 A 
ENDBRANCH  21  22
ENDBRANCH   6  21
TORSDOF 7
ENDMDL
