MODEL 1
REMARK VINA RESULT:      -8.6      0.000      0.000
REMARK  Name = 
REMARK  4 active torsions:
REMARK  status: ('A' for Active; 'I' for Inactive)
REMARK    1  A    between atoms: C_1  and  N_2
REMARK    2  A    between atoms: C_8  and  C_9
REMARK    3  A    between atoms: N_14  and  C_15
REMARK    4  A    between atoms: C_15  and  C_16
REMARK                            x       y       z     vdW  Elec       q    Type
REMARK                         _______ _______ _______ _____ _____    ______ ____
ROOT
ATOM      1  C   UNL     1       2.377   6.109  19.741  0.00  0.00    +0.000 A 
ATOM      2  C   UNL     1       2.025   5.093  20.712  0.00  0.00    +0.000 A 
ATOM      3  C   UNL     1       2.599   3.885  20.690  0.00  0.00    +0.000 A 
ATOM      4  C   UNL     1       3.626   3.558  19.668  0.00  0.00    +0.000 A 
ATOM      5  O   UNL     1       4.156   2.450  19.691  0.00  0.00    +0.000 OA
ATOM      6  N   UNL     1       3.909   4.563  18.745  0.00  0.00    +0.000 N 
ATOM      7  C   UNL     1       3.281   5.804  18.792  0.00  0.00    +0.000 A 
ENDROOT
BRANCH   1  15
ATOM      8  C   UNL     1      -0.185   9.670  23.254  0.00  0.00    +0.000 C 
ATOM      9  N   UNL     1       0.166  10.074  21.914  0.00  0.00    +0.000 N 
ATOM     10  N   UNL     1      -0.144  11.318  21.495  0.00  0.00    +0.000 NA
ATOM     11  C   UNL     1       0.290  11.338  20.233  0.00  0.00    +0.000 A 
ATOM     12  C   UNL     1       0.872  10.114  19.837  0.00  0.00    +0.000 A 
ATOM     13  C   UNL     1       1.459   9.612  18.663  0.00  0.00    +0.000 A 
ATOM     14  C   UNL     1       1.937   8.295  18.659  0.00  0.00    +0.000 A 
ATOM     15  C   UNL     1       1.841   7.481  19.797  0.00  0.00    +0.000 A 
ATOM     16  C   UNL     1       1.266   7.978  20.977  0.00  0.00    +0.000 A 
ATOM     17  C   UNL     1       0.784   9.299  20.961  0.00  0.00    +0.000 A 
ENDBRANCH   1  15
BRANCH   6  18
ATOM     18  C   UNL     1       4.985   4.329  17.777  0.00  0.00    +0.000 C 
BRANCH  18  19
ATOM     19  C   UNL     1       6.103   5.345  17.906  0.00  0.00    +0.000 A 
ATOM     20  C   UNL     1       7.050   5.236  18.935  0.00  0.00    +0.000 A 
ATOM     21  C   UNL     1       8.021   6.224  19.118  0.00  0.00    +0.000 A 
ATOM     22  C   UNL     1       8.063   7.326  18.268  0.00  0.00    +0.000 A 
ATOM     23  C   UNL     1       7.152   7.429  17.218  0.00  0.00    +0.000 A 
ATOM     24  C   UNL     1       6.178   6.445  17.037  0.00  0.00    +0.000 A 
ENDBRANCH  18  19
ENDBRANCH   6  18
TORSDOF 3
ENDMDL
MODEL 2
REMARK VINA RESULT:      -8.5      1.361      2.018
REMARK  Name = 
REMARK  4 active torsions:
REMARK  status: ('A' for Active; 'I' for Inactive)
REMARK    1  A    between atoms: C_1  and  N_2
REMARK    2  A    between atoms: C_8  and  C_9
REMARK    3  A    between atoms: N_14  and  C_15
REMARK    4  A    between atoms: C_15  and  C_16
REMARK                            x       y       z     vdW  Elec       q    Type
REMARK                         _______ _______ _______ _____ _____    ______ ____
ROOT
ATOM      1  C   UNL     1       2.803   6.047  19.467  0.00  0.00    +0.000 A 
ATOM      2  C   UNL     1       2.205   4.948  20.199  0.00  0.00    +0.000 A 
ATOM      3  C   UNL     1       2.842   3.780  20.338  0.00  0.00    +0.000 A 
ATOM      4  C   UNL     1       4.192   3.584  19.750  0.00  0.00    +0.000 A 
ATOM      5  O   UNL     1       4.764   2.510  19.919  0.00  0.00    +0.000 OA
ATOM      6  N   UNL     1       4.710   4.664  19.037  0.00  0.00    +0.000 N 
ATOM      7  C   UNL     1       4.010   5.860  18.903  0.00  0.00    +0.000 A 
ENDROOT
BRANCH   1  15
ATOM      8  C   UNL     1      -0.009   9.775  22.594  0.00  0.00    +0.000 C 
ATOM      9  N   UNL     1       0.320  10.059  21.219  0.00  0.00    +0.000 N 
ATOM     10  N   UNL     1      -0.070  11.229  20.672  0.00  0.00    +0.000 NA
ATOM     11  C   UNL     1       0.367  11.146  19.415  0.00  0.00    +0.000 A 
ATOM     12  C   UNL     1       1.032   9.930  19.147  0.00  0.00    +0.000 A 
ATOM     13  C   UNL     1       1.657   9.349  18.031  0.00  0.00    +0.000 A 
ATOM     14  C   UNL     1       2.222   8.073  18.164  0.00  0.00    +0.000 A 
ATOM     15  C   UNL     1       2.176   7.378  19.381  0.00  0.00    +0.000 A 
ATOM     16  C   UNL     1       1.563   7.956  20.504  0.00  0.00    +0.000 A 
ATOM     17  C   UNL     1       0.994   9.232  20.351  0.00  0.00    +0.000 A 
ENDBRANCH   1  15
BRANCH   6  18
ATOM     18  C   UNL     1       6.078   4.561  18.521  0.00  0.00    +0.000 C 
BRANCH  18  19
ATOM     19  C   UNL     1       6.121   4.560  17.006  0.00  0.00    +0.000 A 
ATOM     20  C   UNL     1       5.102   3.943  16.264  0.00  0.00    +0.000 A 
ATOM     21  C   UNL     1       5.188   3.853  14.873  0.00  0.00    +0.000 A 
ATOM     22  C   UNL     1       6.288   4.387  14.206  0.00  0.00    +0.000 A 
ATOM     23  C   UNL     1       7.289   5.035  14.926  0.00  0.00    +0.000 A 
ATOM     24  C   UNL     1       7.207   5.123  16.318  0.00  0.00    +0.000 A 
ENDBRANCH  18  19
ENDBRANCH   6  18
TORSDOF 3
ENDMDL
MODEL 3
REMARK VINA RESULT:      -8.5      0.213      1.004
REMARK  Name = 
REMARK  4 active torsions:
REMARK  status: ('A' for Active; 'I' for Inactive)
REMARK    1  A    between atoms: C_1  and  N_2
REMARK    2  A    between atoms: C_8  and  C_9
REMARK    3  A    between atoms: N_14  and  C_15
REMARK    4  A    between atoms: C_15  and  C_16
REMARK                            x       y       z     vdW  Elec       q    Type
REMARK                         _______ _______ _______ _____ _____    ______ ____
ROOT
ATOM      1  C   UNL     1       2.287   6.082  19.890  0.00  0.00    +0.000 A 
ATOM      2  C   UNL     1       1.840   5.089  20.845  0.00  0.00    +0.000 A 
ATOM      3  C   UNL     1       2.384   3.867  20.879  0.00  0.00    +0.000 A 
ATOM      4  C   UNL     1       3.475   3.501  19.938  0.00  0.00    +0.000 A 
ATOM      5  O   UNL     1       3.974   2.382  20.013  0.00  0.00    +0.000 OA
ATOM      6  N   UNL     1       3.849   4.486  19.026  0.00  0.00    +0.000 N 
ATOM      7  C   UNL     1       3.249   5.743  19.012  0.00  0.00    +0.000 A 
ENDROOT
BRANCH   1  15
ATOM      8  C   UNL     1      -0.293   9.802  23.220  0.00  0.00    +0.000 C 
ATOM      9  N   UNL     1       0.107  10.159  21.881  0.00  0.00    +0.000 N 
ATOM     10  N   UNL     1      -0.160  11.397  21.417  0.00  0.00    +0.000 NA
ATOM     11  C   UNL     1       0.312  11.370  20.170  0.00  0.00    +0.000 A 
ATOM     12  C   UNL     1       0.876  10.122  19.826  0.00  0.00    +0.000 A 
ATOM     13  C   UNL     1       1.485   9.573  18.686  0.00  0.00    +0.000 A 
ATOM     14  C   UNL     1       1.932   8.245  18.734  0.00  0.00    +0.000 A 
ATOM     15  C   UNL     1       1.782   7.468  19.891  0.00  0.00    +0.000 A 
ATOM     16  C   UNL     1       1.184   8.012  21.038  0.00  0.00    +0.000 A 
ATOM     17  C   UNL     1       0.735   9.342  20.970  0.00  0.00    +0.000 A 
ENDBRANCH   1  15
BRANCH   6  18
ATOM     18  C   UNL     1       4.986   4.214  18.142  0.00  0.00    +0.000 C 
BRANCH  18  19
ATOM     19  C   UNL     1       6.012   5.330  18.168  0.00  0.00    +0.000 A 
ATOM     20  C   UNL     1       6.021   6.313  17.166  0.00  0.00    +0.000 A 
ATOM     21  C   UNL     1       7.025   7.284  17.130  0.00  0.00    +0.000 A 
ATOM     22  C   UNL     1       8.025   7.290  18.100  0.00  0.00    +0.000 A 
ATOM     23  C   UNL     1       8.007   6.343  19.121  0.00  0.00    +0.000 A 
ATOM     24  C   UNL     1       7.007   5.368  19.156  0.00  0.00    +0.000 A 
ENDBRANCH  18  19
ENDBRANCH   6  18
TORSDOF 3
ENDMDL
MODEL 4
REMARK VINA RESULT:      -8.5      1.215      1.838
REMARK  Name = 
REMARK  4 active torsions:
REMARK  status: ('A' for Active; 'I' for Inactive)
REMARK    1  A    between atoms: C_1  and  N_2
REMARK    2  A    between atoms: C_8  and  C_9
REMARK    3  A    between atoms: N_14  and  C_15
REMARK    4  A    between atoms: C_15  and  C_16
REMARK                            x       y       z     vdW  Elec       q    Type
REMARK                         _______ _______ _______ _____ _____    ______ ____
ROOT
ATOM      1  C   UNL     1       2.568   6.090  19.598  0.00  0.00    +0.000 A 
ATOM      2  C   UNL     1       1.846   4.993  20.210  0.00  0.00    +0.000 A 
ATOM      3  C   UNL     1       2.401   3.781  20.331  0.00  0.00    +0.000 A 
ATOM      4  C   UNL     1       3.783   3.533  19.847  0.00  0.00    +0.000 A 
ATOM      5  O   UNL     1       4.275   2.418  19.999  0.00  0.00    +0.000 OA
ATOM      6  N   UNL     1       4.422   4.616  19.246  0.00  0.00    +0.000 N 
ATOM      7  C   UNL     1       3.808   5.859  19.126  0.00  0.00    +0.000 A 
ENDROOT
BRANCH   1  15
ATOM      8  C   UNL     1      -0.116   9.879  22.763  0.00  0.00    +0.000 C 
ATOM      9  N   UNL     1       0.280  10.190  21.411  0.00  0.00    +0.000 N 
ATOM     10  N   UNL     1      -0.016  11.400  20.895  0.00  0.00    +0.000 NA
ATOM     11  C   UNL     1       0.460  11.333  19.651  0.00  0.00    +0.000 A 
ATOM     12  C   UNL     1       1.057  10.087  19.361  0.00  0.00    +0.000 A 
ATOM     13  C   UNL     1       1.683   9.506  18.246  0.00  0.00    +0.000 A 
ATOM     14  C   UNL     1       2.163   8.193  18.351  0.00  0.00    +0.000 A 
ATOM     15  C   UNL     1       2.029   7.461  19.539  0.00  0.00    +0.000 A 
ATOM     16  C   UNL     1       1.414   8.037  20.661  0.00  0.00    +0.000 A 
ATOM     17  C   UNL     1       0.932   9.352  20.537  0.00  0.00    +0.000 A 
ENDBRANCH   1  15
BRANCH   6  18
ATOM     18  C   UNL     1       5.822   4.456  18.841  0.00  0.00    +0.000 C 
BRANCH  18  19
ATOM     19  C   UNL     1       5.984   4.436  17.334  0.00  0.00    +0.000 A 
ATOM     20  C   UNL     1       7.160   4.916  16.737  0.00  0.00    +0.000 A 
ATOM     21  C   UNL     1       7.273   4.993  15.347  0.00  0.00    +0.000 A 
ATOM     22  C   UNL     1       6.217   4.580  14.537  0.00  0.00    +0.000 A 
ATOM     23  C   UNL     1       5.059   4.066  15.115  0.00  0.00    +0.000 A 
ATOM     24  C   UNL     1       4.941   3.994  16.506  0.00  0.00    +0.000 A 
ENDBRANCH  18  19
ENDBRANCH   6  18
TORSDOF 3
ENDMDL
MODEL 5
REMARK VINA RESULT:      -8.3      1.915      4.065
REMARK  Name = 
REMARK  4 active torsions:
REMARK  status: ('A' for Active; 'I' for Inactive)
REMARK    1  A    between atoms: C_1  and  N_2
REMARK    2  A    between atoms: C_8  and  C_9
REMARK    3  A    between atoms: N_14  and  C_15
REMARK    4  A    between atoms: C_15  and  C_16
REMARK                            x       y       z     vdW  Elec       q    Type
REMARK                         _______ _______ _______ _____ _____    ______ ____
ROOT
ATOM      1  C   UNL     1       3.089   7.063  17.940  0.00  0.00    +0.000 A 
ATOM      2  C   UNL     1       4.276   7.415  17.187  0.00  0.00    +0.000 A 
ATOM      3  C   UNL     1       5.070   6.472  16.666  0.00  0.00    +0.000 A 
ATOM      4  C   UNL     1       4.745   5.032  16.841  0.00  0.00    +0.000 A 
ATOM      5  O   UNL     1       5.477   4.191  16.327  0.00  0.00    +0.000 OA
ATOM      6  N   UNL     1       3.606   4.752  17.593  0.00  0.00    +0.000 N 
ATOM      7  C   UNL     1       2.811   5.760  18.131  0.00  0.00    +0.000 A 
ENDROOT
BRANCH   1  15
ATOM      8  C   UNL     1       0.951   9.073  22.733  0.00  0.00    +0.000 C 
ATOM      9  N   UNL     1       0.569   9.632  21.460  0.00  0.00    +0.000 N 
ATOM     10  N   UNL     1      -0.329  10.638  21.420  0.00  0.00    +0.000 NA
ATOM     11  C   UNL     1      -0.465  10.882  20.115  0.00  0.00    +0.000 A 
ATOM     12  C   UNL     1       0.336  10.038  19.315  0.00  0.00    +0.000 A 
ATOM     13  C   UNL     1       0.562   9.873  17.939  0.00  0.00    +0.000 A 
ATOM     14  C   UNL     1       1.464   8.886  17.518  0.00  0.00    +0.000 A 
ATOM     15  C   UNL     1       2.138   8.073  18.440  0.00  0.00    +0.000 A 
ATOM     16  C   UNL     1       1.926   8.238  19.818  0.00  0.00    +0.000 A 
ATOM     17  C   UNL     1       1.012   9.226  20.222  0.00  0.00    +0.000 A 
ENDBRANCH   1  15
BRANCH   6  18
ATOM     18  C   UNL     1       3.184   3.353  17.713  0.00  0.00    +0.000 C 
BRANCH  18  19
ATOM     19  C   UNL     1       2.568   3.053  19.065  0.00  0.00    +0.000 A 
ATOM     20  C   UNL     1       1.177   3.108  19.243  0.00  0.00    +0.000 A 
ATOM     21  C   UNL     1       0.612   2.931  20.508  0.00  0.00    +0.000 A 
ATOM     22  C   UNL     1       1.431   2.688  21.609  0.00  0.00    +0.000 A 
ATOM     23  C   UNL     1       2.810   2.594  21.441  0.00  0.00    +0.000 A 
ATOM     24  C   UNL     1       3.377   2.775  20.177  0.00  0.00    +0.000 A 
ENDBRANCH  18  19
ENDBRANCH   6  18
TORSDOF 3
ENDMDL
MODEL 6
REMARK VINA RESULT:      -8.3      3.171      7.804
REMARK  Name = 
REMARK  4 active torsions:
REMARK  status: ('A' for Active; 'I' for Inactive)
REMARK    1  A    between atoms: C_1  and  N_2
REMARK    2  A    between atoms: C_8  and  C_9
REMARK    3  A    between atoms: N_14  and  C_15
REMARK    4  A    between atoms: C_15  and  C_16
REMARK                            x       y       z     vdW  Elec       q    Type
REMARK                         _______ _______ _______ _____ _____    ______ ____
ROOT
ATOM      1  C   UNL     1       1.474   8.329  20.385  0.00  0.00    +0.000 A 
ATOM      2  C   UNL     1       1.205   8.511  21.797  0.00  0.00    +0.000 A 
ATOM      3  C   UNL     1       0.599   9.615  22.249  0.00  0.00    +0.000 A 
ATOM      4  C   UNL     1       0.176  10.683  21.306  0.00  0.00    +0.000 A 
ATOM      5  O   UNL     1      -0.403  11.671  21.748  0.00  0.00    +0.000 OA
ATOM      6  N   UNL     1       0.481  10.466  19.963  0.00  0.00    +0.000 N 
ATOM      7  C   UNL     1       1.125   9.310  19.532  0.00  0.00    +0.000 A 
ENDROOT
BRANCH   1  15
ATOM      8  C   UNL     1       2.053   2.874  21.606  0.00  0.00    +0.000 C 
ATOM      9  N   UNL     1       2.556   3.413  20.366  0.00  0.00    +0.000 N 
ATOM     10  N   UNL     1       3.190   2.599  19.498  0.00  0.00    +0.000 NA
ATOM     11  C   UNL     1       3.536   3.415  18.501  0.00  0.00    +0.000 A 
ATOM     12  C   UNL     1       3.132   4.750  18.724  0.00  0.00    +0.000 A 
ATOM     13  C   UNL     1       3.242   5.964  18.026  0.00  0.00    +0.000 A 
ATOM     14  C   UNL     1       2.695   7.121  18.598  0.00  0.00    +0.000 A 
ATOM     15  C   UNL     1       2.046   7.083  19.840  0.00  0.00    +0.000 A 
ATOM     16  C   UNL     1       1.923   5.873  20.540  0.00  0.00    +0.000 A 
ATOM     17  C   UNL     1       2.484   4.724  19.956  0.00  0.00    +0.000 A 
ENDBRANCH   1  15
BRANCH   6  18
ATOM     18  C   UNL     1      -0.001  11.439  18.979  0.00  0.00    +0.000 C 
BRANCH  18  19
ATOM     19  C   UNL     1      -1.391  11.104  18.475  0.00  0.00    +0.000 A 
ATOM     20  C   UNL     1      -1.578  10.102  17.511  0.00  0.00    +0.000 A 
ATOM     21  C   UNL     1      -2.843   9.859  16.971  0.00  0.00    +0.000 A 
ATOM     22  C   UNL     1      -3.938  10.608  17.395  0.00  0.00    +0.000 A 
ATOM     23  C   UNL     1      -3.774  11.581  18.378  0.00  0.00    +0.000 A 
ATOM     24  C   UNL     1      -2.509  11.829  18.916  0.00  0.00    +0.000 A 
ENDBRANCH  18  19
ENDBRANCH   6  18
TORSDOF 3
ENDMDL
MODEL 7
REMARK VINA RESULT:      -8.2      1.309      1.839
REMARK  Name = 
REMARK  4 active torsions:
REMARK  status: ('A' for Active; 'I' for Inactive)
REMARK    1  A    between atoms: C_1  and  N_2
REMARK    2  A    between atoms: C_8  and  C_9
REMARK    3  A    between atoms: N_14  and  C_15
REMARK    4  A    between atoms: C_15  and  C_16
REMARK                            x       y       z     vdW  Elec       q    Type
REMARK                         _______ _______ _______ _____ _____    ______ ____
ROOT
ATOM      1  C   UNL     1       2.204   6.093  19.442  0.00  0.00    +0.000 A 
ATOM      2  C   UNL     1       2.118   5.436  20.730  0.00  0.00    +0.000 A 
ATOM      3  C   UNL     1       2.498   4.162  20.885  0.00  0.00    +0.000 A 
ATOM      4  C   UNL     1       3.029   3.389  19.733  0.00  0.00    +0.000 A 
ATOM      5  O   UNL     1       3.396   2.231  19.912  0.00  0.00    +0.000 OA
ATOM      6  N   UNL     1       3.067   4.062  18.513  0.00  0.00    +0.000 N 
ATOM      7  C   UNL     1       2.651   5.384  18.388  0.00  0.00    +0.000 A 
ENDROOT
BRANCH   1  15
ATOM      8  C   UNL     1      -0.055  10.469  22.149  0.00  0.00    +0.000 C 
ATOM      9  N   UNL     1       0.474  10.615  20.815  0.00  0.00    +0.000 N 
ATOM     10  N   UNL     1       0.406  11.816  20.203  0.00  0.00    +0.000 NA
ATOM     11  C   UNL     1       0.947  11.585  19.006  0.00  0.00    +0.000 A 
ATOM     12  C   UNL     1       1.358  10.245  18.841  0.00  0.00    +0.000 A 
ATOM     13  C   UNL     1       1.958   9.495  17.816  0.00  0.00    +0.000 A 
ATOM     14  C   UNL     1       2.217   8.136  18.039  0.00  0.00    +0.000 A 
ATOM     15  C   UNL     1       1.892   7.522  19.257  0.00  0.00    +0.000 A 
ATOM     16  C   UNL     1       1.302   8.266  20.290  0.00  0.00    +0.000 A 
ATOM     17  C   UNL     1       1.042   9.626  20.047  0.00  0.00    +0.000 A 
ENDBRANCH   1  15
BRANCH   6  18
ATOM     18  C   UNL     1       3.674   3.380  17.365  0.00  0.00    +0.000 C 
BRANCH  18  19
ATOM     19  C   UNL     1       4.934   4.074  16.887  0.00  0.00    +0.000 A 
ATOM     20  C   UNL     1       5.093   4.413  15.535  0.00  0.00    +0.000 A 
ATOM     21  C   UNL     1       6.292   4.960  15.073  0.00  0.00    +0.000 A 
ATOM     22  C   UNL     1       7.343   5.185  15.959  0.00  0.00    +0.000 A 
ATOM     23  C   UNL     1       7.187   4.889  17.311  0.00  0.00    +0.000 A 
ATOM     24  C   UNL     1       5.990   4.337  17.774  0.00  0.00    +0.000 A 
ENDBRANCH  18  19
ENDBRANCH   6  18
TORSDOF 3
ENDMDL
MODEL 8
REMARK VINA RESULT:      -8.2      1.195      1.501
REMARK  Name = 
REMARK  4 active torsions:
REMARK  status: ('A' for Active; 'I' for Inactive)
REMARK    1  A    between atoms: C_1  and  N_2
REMARK    2  A    between atoms: C_8  and  C_9
REMARK    3  A    between atoms: N_14  and  C_15
REMARK    4  A    between atoms: C_15  and  C_16
REMARK                            x       y       z     vdW  Elec       q    Type
REMARK                         _______ _______ _______ _____ _____    ______ ____
ROOT
ATOM      1  C   UNL     1       2.245   5.966  19.518  0.00  0.00    +0.000 A 
ATOM      2  C   UNL     1       2.125   5.313  20.805  0.00  0.00    +0.000 A 
ATOM      3  C   UNL     1       2.510   4.043  20.977  0.00  0.00    +0.000 A 
ATOM      4  C   UNL     1       3.082   3.270  19.844  0.00  0.00    +0.000 A 
ATOM      5  O   UNL     1       3.453   2.116  20.040  0.00  0.00    +0.000 OA
ATOM      6  N   UNL     1       3.153   3.939  18.624  0.00  0.00    +0.000 N 
ATOM      7  C   UNL     1       2.730   5.257  18.481  0.00  0.00    +0.000 A 
ENDROOT
BRANCH   1  15
ATOM      8  C   UNL     1      -0.053  10.355  22.170  0.00  0.00    +0.000 C 
ATOM      9  N   UNL     1       0.484  10.492  20.838  0.00  0.00    +0.000 N 
ATOM     10  N   UNL     1       0.414  11.687  20.215  0.00  0.00    +0.000 NA
ATOM     11  C   UNL     1       0.965  11.448  19.023  0.00  0.00    +0.000 A 
ATOM     12  C   UNL     1       1.384  10.108  18.873  0.00  0.00    +0.000 A 
ATOM     13  C   UNL     1       1.994   9.352  17.859  0.00  0.00    +0.000 A 
ATOM     14  C   UNL     1       2.258   7.996  18.096  0.00  0.00    +0.000 A 
ATOM     15  C   UNL     1       1.927   7.392  19.317  0.00  0.00    +0.000 A 
ATOM     16  C   UNL     1       1.327   8.142  20.340  0.00  0.00    +0.000 A 
ATOM     17  C   UNL     1       1.062   9.499  20.083  0.00  0.00    +0.000 A 
ENDBRANCH   1  15
BRANCH   6  18
ATOM     18  C   UNL     1       3.800   3.258  17.498  0.00  0.00    +0.000 C 
BRANCH  18  19
ATOM     19  C   UNL     1       5.037   3.991  17.019  0.00  0.00    +0.000 A 
ATOM     20  C   UNL     1       6.018   4.407  17.932  0.00  0.00    +0.000 A 
ATOM     21  C   UNL     1       7.109   5.170  17.508  0.00  0.00    +0.000 A 
ATOM     22  C   UNL     1       7.237   5.517  16.165  0.00  0.00    +0.000 A 
ATOM     23  C   UNL     1       6.291   5.080  15.241  0.00  0.00    +0.000 A 
ATOM     24  C   UNL     1       5.197   4.321  15.664  0.00  0.00    +0.000 A 
ENDBRANCH  18  19
ENDBRANCH   6  18
TORSDOF 3
ENDMDL
MODEL 9
REMARK VINA RESULT:      -8.2      3.044      7.853
REMARK  Name = 
REMARK  4 active torsions:
REMARK  status: ('A' for Active; 'I' for Inactive)
REMARK    1  A    between atoms: C_1  and  N_2
REMARK    2  A    between atoms: C_8  and  C_9
REMARK    3  A    between atoms: N_14  and  C_15
REMARK    4  A    between atoms: C_15  and  C_16
REMARK                            x       y       z     vdW  Elec       q    Type
REMARK                         _______ _______ _______ _____ _____    ______ ____
ROOT
ATOM      1  C   UNL     1       1.771   8.104  19.650  0.00  0.00    +0.000 A 
ATOM      2  C   UNL     1       1.372   7.925  21.030  0.00  0.00    +0.000 A 
ATOM      3  C   UNL     1       0.614   8.833  21.656  0.00  0.00    +0.000 A 
ATOM      4  C   UNL     1       0.153  10.051  20.941  0.00  0.00    +0.000 A 
ATOM      5  O   UNL     1      -0.565  10.852  21.533  0.00  0.00    +0.000 OA
ATOM      6  N   UNL     1       0.586  10.184  19.623  0.00  0.00    +0.000 N 
ATOM      7  C   UNL     1       1.386   9.224  19.010  0.00  0.00    +0.000 A 
ENDROOT
BRANCH   1  15
ATOM      8  C   UNL     1       2.479   2.537  19.362  0.00  0.00    +0.000 C 
ATOM      9  N   UNL     1       3.168   3.419  18.452  0.00  0.00    +0.000 N 
ATOM     10  N   UNL     1       4.007   2.900  17.533  0.00  0.00    +0.000 NA
ATOM     11  C   UNL     1       4.477   3.976  16.898  0.00  0.00    +0.000 A 
ATOM     12  C   UNL     1       3.950   5.183  17.406  0.00  0.00    +0.000 A 
ATOM     13  C   UNL     1       4.106   6.549  17.118  0.00  0.00    +0.000 A 
ATOM     14  C   UNL     1       3.384   7.483  17.873  0.00  0.00    +0.000 A 
ATOM     15  C   UNL     1       2.518   7.078  18.899  0.00  0.00    +0.000 A 
ATOM     16  C   UNL     1       2.348   5.715  19.187  0.00  0.00    +0.000 A 
ATOM     17  C   UNL     1       3.085   4.792  18.425  0.00  0.00    +0.000 A 
ENDBRANCH   1  15
BRANCH   6  18
ATOM     18  C   UNL     1       0.080  11.316  18.840  0.00  0.00    +0.000 C 
BRANCH  18  19
ATOM     19  C   UNL     1      -1.325  11.074  18.325  0.00  0.00    +0.000 A 
ATOM     20  C   UNL     1      -2.395  11.863  18.776  0.00  0.00    +0.000 A 
ATOM     21  C   UNL     1      -3.705  11.580  18.382  0.00  0.00    +0.000 A 
ATOM     22  C   UNL     1      -3.960  10.512  17.525  0.00  0.00    +0.000 A 
ATOM     23  C   UNL     1      -2.904   9.744  17.039  0.00  0.00    +0.000 A 
ATOM     24  C   UNL     1      -1.594  10.023  17.436  0.00  0.00    +0.000 A 
ENDBRANCH  18  19
ENDBRANCH   6  18
TORSDOF 3
ENDMDL
