MODEL 1
REMARK VINA RESULT:      -8.3      0.000      0.000
REMARK  Name = 
REMARK  5 active torsions:
REMARK  status: ('A' for Active; 'I' for Inactive)
REMARK    1  A    between atoms: C_2  and  C_3
REMARK    2  A    between atoms: C_3  and  N_4
REMARK    3  A    between atoms: N_14  and  C_15
REMARK    4  A    between atoms: C_15  and  C_16
REMARK    5  A    between atoms: N_18  and  C_19
REMARK                            x       y       z     vdW  Elec       q    Type
REMARK                         _______ _______ _______ _____ _____    ______ ____
ROOT
ATOM      1  O   UNL     1       7.623   5.856  16.129  0.00  0.00    +0.000 OA
ATOM      2  C   UNL     1       6.718   6.239  16.865  0.00  0.00    +0.000 C 
ATOM      3  N   UNL     1       6.969   6.956  18.004  0.00  0.00    +0.000 N 
ATOM      4  H   UNL     1       6.211   7.208  18.635  0.00  0.00    +0.000 HD
ENDROOT
BRANCH   2   5
ATOM      5  C   UNL     1       5.225   5.963  16.612  0.00  0.00    +0.000 C 
BRANCH   5   6
ATOM      6  N   UNL     1       4.630   4.998  17.552  0.00  0.00    +0.000 NA
ATOM      7  C   UNL     1       4.253   3.725  16.915  0.00  0.00    +0.000 C 
ATOM      8  C   UNL     1       2.741   3.481  16.782  0.00  0.00    +0.000 C 
ATOM      9  C   UNL     1       2.120   3.596  18.146  0.00  0.00    +0.000 A 
ATOM     10  C   UNL     1       1.106   2.739  18.579  0.00  0.00    +0.000 A 
ATOM     11  C   UNL     1       0.594   2.872  19.868  0.00  0.00    +0.000 A 
ATOM     12  C   UNL     1       1.085   3.865  20.718  0.00  0.00    +0.000 A 
ATOM     13  C   UNL     1       2.080   4.740  20.278  0.00  0.00    +0.000 A 
ATOM     14  C   UNL     1       2.605   4.612  18.988  0.00  0.00    +0.000 A 
ATOM     15  C   UNL     1       3.604   5.597  18.419  0.00  0.00    +0.000 C 
ENDBRANCH   5   6
ENDBRANCH   2   5
BRANCH   3  16
ATOM     16  C   UNL     1       8.308   7.300  18.446  0.00  0.00    +0.000 C 
BRANCH  16  17
ATOM     17  C   UNL     1       8.428   8.816  18.306  0.00  0.00    +0.000 C 
ATOM     18  O   UNL     1       7.791   9.400  17.428  0.00  0.00    +0.000 OA
ATOM     19  N   UNL     1       9.299   9.408  19.204  0.00  0.00    +0.000 N 
ATOM     20  H   UNL     1       9.891   8.796  19.755  0.00  0.00    +0.000 HD
BRANCH  19  21
ATOM     21  C   UNL     1       9.589  10.790  19.258  0.00  0.00    +0.000 A 
ATOM     22  C   UNL     1       9.718  11.586  18.113  0.00  0.00    +0.000 A 
ATOM     23  C   UNL     1      10.097  12.926  18.212  0.00  0.00    +0.000 A 
ATOM     24  C   UNL     1      10.329  13.477  19.464  0.00  0.00    +0.000 A 
ATOM     25  F   UNL     1      10.723  14.755  19.558  0.00  0.00    +0.000 F 
ATOM     26  C   UNL     1      10.156  12.720  20.616  0.00  0.00    +0.000 A 
ATOM     27  C   UNL     1       9.774  11.381  20.516  0.00  0.00    +0.000 A 
ENDBRANCH  19  21
ENDBRANCH  16  17
ENDBRANCH   3  16
TORSDOF 5
ENDMDL
MODEL 2
REMARK VINA RESULT:      -8.2      1.059      1.429
REMARK  Name = 
REMARK  5 active torsions:
REMARK  status: ('A' for Active; 'I' for Inactive)
REMARK    1  A    between atoms: C_2  and  C_3
REMARK    2  A    between atoms: C_3  and  N_4
REMARK    3  A    between atoms: N_14  and  C_15
REMARK    4  A    between atoms: C_15  and  C_16
REMARK    5  A    between atoms: N_18  and  C_19
REMARK                            x       y       z     vdW  Elec       q    Type
REMARK                         _______ _______ _______ _____ _____    ______ ____
ROOT
ATOM      1  O   UNL     1       7.432   6.198  16.541  0.00  0.00    +0.000 OA
ATOM      2  C   UNL     1       6.677   6.990  17.097  0.00  0.00    +0.000 C 
ATOM      3  N   UNL     1       7.148   8.070  17.793  0.00  0.00    +0.000 N 
ATOM      4  H   UNL     1       6.511   8.679  18.302  0.00  0.00    +0.000 HD
ENDROOT
BRANCH   2   5
ATOM      5  C   UNL     1       5.142   6.870  17.089  0.00  0.00    +0.000 C 
BRANCH   5   6
ATOM      6  N   UNL     1       4.624   5.799  17.958  0.00  0.00    +0.000 NA
ATOM      7  C   UNL     1       4.641   4.474  17.317  0.00  0.00    +0.000 C 
ATOM      8  C   UNL     1       3.262   3.902  16.953  0.00  0.00    +0.000 C 
ATOM      9  C   UNL     1       2.414   3.881  18.195  0.00  0.00    +0.000 A 
ATOM     10  C   UNL     1       1.553   2.823  18.493  0.00  0.00    +0.000 A 
ATOM     11  C   UNL     1       0.819   2.842  19.677  0.00  0.00    +0.000 A 
ATOM     12  C   UNL     1       0.938   3.920  20.557  0.00  0.00    +0.000 A 
ATOM     13  C   UNL     1       1.778   4.992  20.248  0.00  0.00    +0.000 A 
ATOM     14  C   UNL     1       2.523   4.980  19.065  0.00  0.00    +0.000 A 
ATOM     15  C   UNL     1       3.364   6.160  18.626  0.00  0.00    +0.000 C 
ENDBRANCH   5   6
ENDBRANCH   2   5
BRANCH   3  16
ATOM     16  C   UNL     1       8.563   8.355  17.953  0.00  0.00    +0.000 C 
BRANCH  16  17
ATOM     17  C   UNL     1       8.655   9.789  18.468  0.00  0.00    +0.000 C 
ATOM     18  O   UNL     1       8.112  10.700  17.840  0.00  0.00    +0.000 OA
ATOM     19  N   UNL     1       9.392   9.935  19.630  0.00  0.00    +0.000 N 
ATOM     20  H   UNL     1       9.931   9.136  19.947  0.00  0.00    +0.000 HD
BRANCH  19  21
ATOM     21  C   UNL     1       9.632  11.164  20.287  0.00  0.00    +0.000 A 
ATOM     22  C   UNL     1       8.854  11.619  21.359  0.00  0.00    +0.000 A 
ATOM     23  C   UNL     1       9.070  12.881  21.914  0.00  0.00    +0.000 A 
ATOM     24  C   UNL     1      10.083  13.683  21.409  0.00  0.00    +0.000 A 
ATOM     25  F   UNL     1      10.271  14.907  21.921  0.00  0.00    +0.000 F 
ATOM     26  C   UNL     1      10.900  13.231  20.381  0.00  0.00    +0.000 A 
ATOM     27  C   UNL     1      10.685  11.967  19.827  0.00  0.00    +0.000 A 
ENDBRANCH  19  21
ENDBRANCH  16  17
ENDBRANCH   3  16
TORSDOF 5
ENDMDL
MODEL 3
REMARK VINA RESULT:      -8.0      0.987      1.324
REMARK  Name = 
REMARK  5 active torsions:
REMARK  status: ('A' for Active; 'I' for Inactive)
REMARK    1  A    between atoms: C_2  and  C_3
REMARK    2  A    between atoms: C_3  and  N_4
REMARK    3  A    between atoms: N_14  and  C_15
REMARK    4  A    between atoms: C_15  and  C_16
REMARK    5  A    between atoms: N_18  and  C_19
REMARK                            x       y       z     vdW  Elec       q    Type
REMARK                         _______ _______ _______ _____ _____    ______ ____
ROOT
ATOM      1  O   UNL     1       7.805   4.593  17.937  0.00  0.00    +0.000 OA
ATOM      2  C   UNL     1       6.938   5.437  17.726  0.00  0.00    +0.000 C 
ATOM      3  N   UNL     1       7.127   6.758  18.031  0.00  0.00    +0.000 N 
ATOM      4  H   UNL     1       6.374   7.432  17.910  0.00  0.00    +0.000 HD
ENDROOT
BRANCH   2   5
ATOM      5  C   UNL     1       5.561   5.125  17.114  0.00  0.00    +0.000 C 
BRANCH   5   6
ATOM      6  N   UNL     1       4.777   4.142  17.882  0.00  0.00    +0.000 NA
ATOM      7  C   UNL     1       3.768   3.443  17.069  0.00  0.00    +0.000 C 
ATOM      8  C   UNL     1       2.308   3.816  17.371  0.00  0.00    +0.000 C 
ATOM      9  C   UNL     1       2.055   3.595  18.837  0.00  0.00    +0.000 A 
ATOM     10  C   UNL     1       0.861   3.051  19.315  0.00  0.00    +0.000 A 
ATOM     11  C   UNL     1       0.699   2.836  20.682  0.00  0.00    +0.000 A 
ATOM     12  C   UNL     1       1.721   3.173  21.570  0.00  0.00    +0.000 A 
ATOM     13  C   UNL     1       2.906   3.743  21.097  0.00  0.00    +0.000 A 
ATOM     14  C   UNL     1       3.081   3.957  19.727  0.00  0.00    +0.000 A 
ATOM     15  C   UNL     1       4.294   4.670  19.168  0.00  0.00    +0.000 C 
ENDBRANCH   5   6
ENDBRANCH   2   5
BRANCH   3  16
ATOM     16  C   UNL     1       8.342   7.265  18.644  0.00  0.00    +0.000 C 
BRANCH  16  17
ATOM     17  C   UNL     1       8.364   8.767  18.370  0.00  0.00    +0.000 C 
ATOM     18  O   UNL     1       7.558   9.255  17.576  0.00  0.00    +0.000 OA
ATOM     19  N   UNL     1       9.348   9.460  19.053  0.00  0.00    +0.000 N 
ATOM     20  H   UNL     1      10.055   8.916  19.535  0.00  0.00    +0.000 HD
BRANCH  19  21
ATOM     21  C   UNL     1       9.577  10.851  18.950  0.00  0.00    +0.000 A 
ATOM     22  C   UNL     1       9.051  11.779  19.857  0.00  0.00    +0.000 A 
ATOM     23  C   UNL     1       9.226  13.150  19.661  0.00  0.00    +0.000 A 
ATOM     24  C   UNL     1       9.948  13.594  18.564  0.00  0.00    +0.000 A 
ATOM     25  F   UNL     1      10.090  14.911  18.358  0.00  0.00    +0.000 F 
ATOM     26  C   UNL     1      10.523  12.690  17.679  0.00  0.00    +0.000 A 
ATOM     27  C   UNL     1      10.350  11.319  17.878  0.00  0.00    +0.000 A 
ENDBRANCH  19  21
ENDBRANCH  16  17
ENDBRANCH   3  16
TORSDOF 5
ENDMDL
MODEL 4
REMARK VINA RESULT:      -8.0      0.896      1.626
REMARK  Name = 
REMARK  5 active torsions:
REMARK  status: ('A' for Active; 'I' for Inactive)
REMARK    1  A    between atoms: C_2  and  C_3
REMARK    2  A    between atoms: C_3  and  N_4
REMARK    3  A    between atoms: N_14  and  C_15
REMARK    4  A    between atoms: C_15  and  C_16
REMARK    5  A    between atoms: N_18  and  C_19
REMARK                            x       y       z     vdW  Elec       q    Type
REMARK                         _______ _______ _______ _____ _____    ______ ____
ROOT
ATOM      1  O   UNL     1       7.781   4.858  16.633  0.00  0.00    +0.000 OA
ATOM      2  C   UNL     1       6.927   5.735  16.536  0.00  0.00    +0.000 C 
ATOM      3  N   UNL     1       6.993   6.891  17.265  0.00  0.00    +0.000 N 
ATOM      4  H   UNL     1       6.242   7.577  17.219  0.00  0.00    +0.000 HD
ENDROOT
BRANCH   2   5
ATOM      5  C   UNL     1       5.700   5.644  15.610  0.00  0.00    +0.000 C 
BRANCH   5   6
ATOM      6  N   UNL     1       4.473   5.196  16.291  0.00  0.00    +0.000 NA
ATOM      7  C   UNL     1       3.966   6.169  17.272  0.00  0.00    +0.000 C 
ATOM      8  C   UNL     1       4.110   5.753  18.744  0.00  0.00    +0.000 C 
ATOM      9  C   UNL     1       3.445   4.418  18.928  0.00  0.00    +0.000 A 
ATOM     10  C   UNL     1       2.687   4.111  20.060  0.00  0.00    +0.000 A 
ATOM     11  C   UNL     1       2.065   2.868  20.158  0.00  0.00    +0.000 A 
ATOM     12  C   UNL     1       2.207   1.931  19.134  0.00  0.00    +0.000 A 
ATOM     13  C   UNL     1       2.986   2.225  18.013  0.00  0.00    +0.000 A 
ATOM     14  C   UNL     1       3.611   3.471  17.902  0.00  0.00    +0.000 A 
ATOM     15  C   UNL     1       4.554   3.805  16.766  0.00  0.00    +0.000 C 
ENDBRANCH   5   6
ENDBRANCH   2   5
BRANCH   3  16
ATOM     16  C   UNL     1       8.051   7.167  18.220  0.00  0.00    +0.000 C 
BRANCH  16  17
ATOM     17  C   UNL     1       8.276   8.677  18.183  0.00  0.00    +0.000 C 
ATOM     18  O   UNL     1       7.751   9.352  17.296  0.00  0.00    +0.000 OA
ATOM     19  N   UNL     1       9.106   9.158  19.181  0.00  0.00    +0.000 N 
ATOM     20  H   UNL     1       9.612   8.477  19.738  0.00  0.00    +0.000 HD
BRANCH  19  21
ATOM     21  C   UNL     1       9.476  10.512  19.343  0.00  0.00    +0.000 A 
ATOM     22  C   UNL     1       9.881  11.324  18.276  0.00  0.00    +0.000 A 
ATOM     23  C   UNL     1      10.327  12.628  18.498  0.00  0.00    +0.000 A 
ATOM     24  C   UNL     1      10.348  13.129  19.790  0.00  0.00    +0.000 A 
ATOM     25  F   UNL     1      10.805  14.371  20.008  0.00  0.00    +0.000 F 
ATOM     26  C   UNL     1       9.902  12.360  20.858  0.00  0.00    +0.000 A 
ATOM     27  C   UNL     1       9.453  11.057  20.634  0.00  0.00    +0.000 A 
ENDBRANCH  19  21
ENDBRANCH  16  17
ENDBRANCH   3  16
TORSDOF 5
ENDMDL
MODEL 5
REMARK VINA RESULT:      -7.9      3.478     10.041
REMARK  Name = 
REMARK  5 active torsions:
REMARK  status: ('A' for Active; 'I' for Inactive)
REMARK    1  A    between atoms: C_2  and  C_3
REMARK    2  A    between atoms: C_3  and  N_4
REMARK    3  A    between atoms: N_14  and  C_15
REMARK    4  A    between atoms: C_15  and  C_16
REMARK    5  A    between atoms: N_18  and  C_19
REMARK                            x       y       z     vdW  Elec       q    Type
REMARK                         _______ _______ _______ _____ _____    ______ ____
ROOT
ATOM      1  O   UNL     1       7.369   9.029  17.340  0.00  0.00    +0.000 OA
ATOM      2  C   UNL     1       8.087   8.403  18.115  0.00  0.00    +0.000 C 
ATOM      3  N   UNL     1       7.932   7.058  18.316  0.00  0.00    +0.000 N 
ATOM      4  H   UNL     1       8.494   6.569  19.010  0.00  0.00    +0.000 HD
ENDROOT
BRANCH   2   5
ATOM      5  C   UNL     1       9.220   9.036  18.943  0.00  0.00    +0.000 C 
BRANCH   5   6
ATOM      6  N   UNL     1       9.098  10.495  19.101  0.00  0.00    +0.000 NA
ATOM      7  C   UNL     1       9.834  11.253  18.076  0.00  0.00    +0.000 C 
ATOM      8  C   UNL     1      11.082  11.995  18.579  0.00  0.00    +0.000 C 
ATOM      9  C   UNL     1      10.676  12.894  19.713  0.00  0.00    +0.000 A 
ATOM     10  C   UNL     1      11.197  14.180  19.871  0.00  0.00    +0.000 A 
ATOM     11  C   UNL     1      10.755  14.980  20.923  0.00  0.00    +0.000 A 
ATOM     12  C   UNL     1       9.803  14.494  21.820  0.00  0.00    +0.000 A 
ATOM     13  C   UNL     1       9.300  13.198  21.681  0.00  0.00    +0.000 A 
ATOM     14  C   UNL     1       9.732  12.389  20.626  0.00  0.00    +0.000 A 
ATOM     15  C   UNL     1       9.307  10.943  20.487  0.00  0.00    +0.000 C 
ENDBRANCH   5   6
ENDBRANCH   2   5
BRANCH   3  16
ATOM     16  C   UNL     1       6.905   6.270  17.659  0.00  0.00    +0.000 C 
BRANCH  16  17
ATOM     17  C   UNL     1       6.114   5.586  18.771  0.00  0.00    +0.000 C 
ATOM     18  O   UNL     1       6.673   5.301  19.832  0.00  0.00    +0.000 OA
ATOM     19  N   UNL     1       4.793   5.321  18.456  0.00  0.00    +0.000 N 
ATOM     20  H   UNL     1       4.507   5.446  17.491  0.00  0.00    +0.000 HD
BRANCH  19  21
ATOM     21  C   UNL     1       3.869   4.681  19.314  0.00  0.00    +0.000 A 
ATOM     22  C   UNL     1       2.856   5.371  19.992  0.00  0.00    +0.000 A 
ATOM     23  C   UNL     1       2.027   4.711  20.902  0.00  0.00    +0.000 A 
ATOM     24  C   UNL     1       2.199   3.352  21.119  0.00  0.00    +0.000 A 
ATOM     25  F   UNL     1       1.424   2.725  22.014  0.00  0.00    +0.000 F 
ATOM     26  C   UNL     1       3.164   2.638  20.419  0.00  0.00    +0.000 A 
ATOM     27  C   UNL     1       3.991   3.298  19.507  0.00  0.00    +0.000 A 
ENDBRANCH  19  21
ENDBRANCH  16  17
ENDBRANCH   3  16
TORSDOF 5
ENDMDL
MODEL 6
REMARK VINA RESULT:      -7.9      1.776      2.518
REMARK  Name = 
REMARK  5 active torsions:
REMARK  status: ('A' for Active; 'I' for Inactive)
REMARK    1  A    between atoms: C_2  and  C_3
REMARK    2  A    between atoms: C_3  and  N_4
REMARK    3  A    between atoms: N_14  and  C_15
REMARK    4  A    between atoms: C_15  and  C_16
REMARK    5  A    between atoms: N_18  and  C_19
REMARK                            x       y       z     vdW  Elec       q    Type
REMARK                         _______ _______ _______ _____ _____    ______ ____
ROOT
ATOM      1  O   UNL     1       8.476   7.002  18.827  0.00  0.00    +0.000 OA
ATOM      2  C   UNL     1       7.810   7.689  18.059  0.00  0.00    +0.000 C 
ATOM      3  N   UNL     1       8.008   9.038  17.940  0.00  0.00    +0.000 N 
ATOM      4  H   UNL     1       7.403   9.602  17.347  0.00  0.00    +0.000 HD
ENDROOT
BRANCH   2   5
ATOM      5  C   UNL     1       6.690   7.137  17.158  0.00  0.00    +0.000 C 
BRANCH   5   6
ATOM      6  N   UNL     1       5.857   6.110  17.806  0.00  0.00    +0.000 NA
ATOM      7  C   UNL     1       6.202   4.740  17.394  0.00  0.00    +0.000 C 
ATOM      8  C   UNL     1       5.161   4.039  16.506  0.00  0.00    +0.000 C 
ATOM      9  C   UNL     1       3.837   4.063  17.217  0.00  0.00    +0.000 A 
ATOM     10  C   UNL     1       2.963   2.974  17.203  0.00  0.00    +0.000 A 
ATOM     11  C   UNL     1       1.765   3.041  17.910  0.00  0.00    +0.000 A 
ATOM     12  C   UNL     1       1.435   4.196  18.622  0.00  0.00    +0.000 A 
ATOM     13  C   UNL     1       2.296   5.297  18.616  0.00  0.00    +0.000 A 
ATOM     14  C   UNL     1       3.503   5.237  17.914  0.00  0.00    +0.000 A 
ATOM     15  C   UNL     1       4.421   6.434  17.781  0.00  0.00    +0.000 C 
ENDBRANCH   5   6
ENDBRANCH   2   5
BRANCH   3  16
ATOM     16  C   UNL     1       8.993   9.767  18.720  0.00  0.00    +0.000 C 
BRANCH  16  17
ATOM     17  C   UNL     1       9.013  11.188  18.161  0.00  0.00    +0.000 C 
ATOM     18  O   UNL     1       8.084  11.580  17.454  0.00  0.00    +0.000 OA
ATOM     19  N   UNL     1      10.137  11.922  18.501  0.00  0.00    +0.000 N 
ATOM     20  H   UNL     1      10.906  11.426  18.938  0.00  0.00    +0.000 HD
BRANCH  19  21
ATOM     21  C   UNL     1      10.390  13.251  18.090  0.00  0.00    +0.000 A 
ATOM     22  C   UNL     1      11.139  13.565  16.949  0.00  0.00    +0.000 A 
ATOM     23  C   UNL     1      11.442  14.892  16.636  0.00  0.00    +0.000 A 
ATOM     24  C   UNL     1      10.975  15.908  17.455  0.00  0.00    +0.000 A 
ATOM     25  F   UNL     1      11.291  17.180  17.172  0.00  0.00    +0.000 F 
ATOM     26  C   UNL     1      10.187  15.623  18.563  0.00  0.00    +0.000 A 
ATOM     27  C   UNL     1       9.882  14.295  18.874  0.00  0.00    +0.000 A 
ENDBRANCH  19  21
ENDBRANCH  16  17
ENDBRANCH   3  16
TORSDOF 5
ENDMDL
MODEL 7
REMARK VINA RESULT:      -7.9      3.636     10.225
REMARK  Name = 
REMARK  5 active torsions:
REMARK  status: ('A' for Active; 'I' for Inactive)
REMARK    1  A    between atoms: C_2  and  C_3
REMARK    2  A    between atoms: C_3  and  N_4
REMARK    3  A    between atoms: N_14  and  C_15
REMARK    4  A    between atoms: C_15  and  C_16
REMARK    5  A    between atoms: N_18  and  C_19
REMARK                            x       y       z     vdW  Elec       q    Type
REMARK                         _______ _______ _______ _____ _____    ______ ____
ROOT
ATOM      1  O   UNL     1       8.006   7.212  16.538  0.00  0.00    +0.000 OA
ATOM      2  C   UNL     1       7.764   7.702  17.638  0.00  0.00    +0.000 C 
ATOM      3  N   UNL     1       7.458   6.925  18.722  0.00  0.00    +0.000 N 
ATOM      4  H   UNL     1       7.196   7.351  19.608  0.00  0.00    +0.000 HD
ENDROOT
BRANCH   2   5
ATOM      5  C   UNL     1       7.766   9.213  17.928  0.00  0.00    +0.000 C 
BRANCH   5   6
ATOM      6  N   UNL     1       9.090   9.749  18.287  0.00  0.00    +0.000 NA
ATOM      7  C   UNL     1       9.300   9.849  19.741  0.00  0.00    +0.000 C 
ATOM      8  C   UNL     1       9.333  11.279  20.302  0.00  0.00    +0.000 C 
ATOM      9  C   UNL     1      10.383  12.057  19.559  0.00  0.00    +0.000 A 
ATOM     10  C   UNL     1      11.230  12.966  20.198  0.00  0.00    +0.000 A 
ATOM     11  C   UNL     1      12.208  13.631  19.462  0.00  0.00    +0.000 A 
ATOM     12  C   UNL     1      12.333  13.399  18.091  0.00  0.00    +0.000 A 
ATOM     13  C   UNL     1      11.469  12.512  17.445  0.00  0.00    +0.000 A 
ATOM     14  C   UNL     1      10.488  11.834  18.175  0.00  0.00    +0.000 A 
ATOM     15  C   UNL     1       9.455  10.947  17.513  0.00  0.00    +0.000 C 
ENDBRANCH   5   6
ENDBRANCH   2   5
BRANCH   3  16
ATOM     16  C   UNL     1       7.370   5.477  18.661  0.00  0.00    +0.000 C 
BRANCH  16  17
ATOM     17  C   UNL     1       5.888   5.144  18.513  0.00  0.00    +0.000 C 
ATOM     18  O   UNL     1       5.099   6.017  18.144  0.00  0.00    +0.000 OA
ATOM     19  N   UNL     1       5.556   3.842  18.845  0.00  0.00    +0.000 N 
ATOM     20  H   UNL     1       6.266   3.279  19.301  0.00  0.00    +0.000 HD
BRANCH  19  21
ATOM     21  C   UNL     1       4.249   3.305  18.804  0.00  0.00    +0.000 A 
ATOM     22  C   UNL     1       3.736   2.632  17.688  0.00  0.00    +0.000 A 
ATOM     23  C   UNL     1       2.408   2.202  17.659  0.00  0.00    +0.000 A 
ATOM     24  C   UNL     1       1.596   2.427  18.760  0.00  0.00    +0.000 A 
ATOM     25  F   UNL     1       0.313   2.042  18.721  0.00  0.00    +0.000 F 
ATOM     26  C   UNL     1       2.097   3.047  19.898  0.00  0.00    +0.000 A 
ATOM     27  C   UNL     1       3.427   3.474  19.927  0.00  0.00    +0.000 A 
ENDBRANCH  19  21
ENDBRANCH  16  17
ENDBRANCH   3  16
TORSDOF 5
ENDMDL
MODEL 8
REMARK VINA RESULT:      -7.9      3.573      9.932
REMARK  Name = 
REMARK  5 active torsions:
REMARK  status: ('A' for Active; 'I' for Inactive)
REMARK    1  A    between atoms: C_2  and  C_3
REMARK    2  A    between atoms: C_3  and  N_4
REMARK    3  A    between atoms: N_14  and  C_15
REMARK    4  A    between atoms: C_15  and  C_16
REMARK    5  A    between atoms: N_18  and  C_19
REMARK                            x       y       z     vdW  Elec       q    Type
REMARK                         _______ _______ _______ _____ _____    ______ ____
ROOT
ATOM      1  O   UNL     1       6.670   7.239  16.478  0.00  0.00    +0.000 OA
ATOM      2  C   UNL     1       7.246   7.636  17.487  0.00  0.00    +0.000 C 
ATOM      3  N   UNL     1       7.804   6.770  18.389  0.00  0.00    +0.000 N 
ATOM      4  H   UNL     1       8.220   7.115  19.251  0.00  0.00    +0.000 HD
ENDROOT
BRANCH   2   5
ATOM      5  C   UNL     1       7.403   9.121  17.862  0.00  0.00    +0.000 C 
BRANCH   5   6
ATOM      6  N   UNL     1       8.788   9.513  18.174  0.00  0.00    +0.000 NA
ATOM      7  C   UNL     1       9.113   9.402  19.606  0.00  0.00    +0.000 C 
ATOM      8  C   UNL     1       9.299  10.738  20.342  0.00  0.00    +0.000 C 
ATOM      9  C   UNL     1      10.348  11.537  19.620  0.00  0.00    +0.000 A 
ATOM     10  C   UNL     1      11.309  12.291  20.296  0.00  0.00    +0.000 A 
ATOM     11  C   UNL     1      12.278  12.982  19.573  0.00  0.00    +0.000 A 
ATOM     12  C   UNL     1      12.283  12.928  18.178  0.00  0.00    +0.000 A 
ATOM     13  C   UNL     1      11.306  12.196  17.498  0.00  0.00    +0.000 A 
ATOM     14  C   UNL     1      10.332  11.495  18.215  0.00  0.00    +0.000 A 
ATOM     15  C   UNL     1       9.187  10.776  17.533  0.00  0.00    +0.000 C 
ENDBRANCH   5   6
ENDBRANCH   2   5
BRANCH   3  16
ATOM     16  C   UNL     1       7.743   5.327  18.244  0.00  0.00    +0.000 C 
BRANCH  16  17
ATOM     17  C   UNL     1       6.331   4.915  18.655  0.00  0.00    +0.000 C 
ATOM     18  O   UNL     1       5.992   4.994  19.837  0.00  0.00    +0.000 OA
ATOM     19  N   UNL     1       5.544   4.452  17.616  0.00  0.00    +0.000 N 
ATOM     20  H   UNL     1       5.998   4.272  16.728  0.00  0.00    +0.000 HD
BRANCH  19  21
ATOM     21  C   UNL     1       4.211   3.999  17.751  0.00  0.00    +0.000 A 
ATOM     22  C   UNL     1       3.109   4.862  17.741  0.00  0.00    +0.000 A 
ATOM     23  C   UNL     1       1.819   4.379  17.972  0.00  0.00    +0.000 A 
ATOM     24  C   UNL     1       1.630   3.023  18.193  0.00  0.00    +0.000 A 
ATOM     25  F   UNL     1       0.397   2.563  18.446  0.00  0.00    +0.000 F 
ATOM     26  C   UNL     1       2.703   2.141  18.157  0.00  0.00    +0.000 A 
ATOM     27  C   UNL     1       3.992   2.625  17.923  0.00  0.00    +0.000 A 
ENDBRANCH  19  21
ENDBRANCH  16  17
ENDBRANCH   3  16
TORSDOF 5
ENDMDL
MODEL 9
REMARK VINA RESULT:      -7.8      3.527     10.304
REMARK  Name = 
REMARK  5 active torsions:
REMARK  status: ('A' for Active; 'I' for Inactive)
REMARK    1  A    between atoms: C_2  and  C_3
REMARK    2  A    between atoms: C_3  and  N_4
REMARK    3  A    between atoms: N_14  and  C_15
REMARK    4  A    between atoms: C_15  and  C_16
REMARK    5  A    between atoms: N_18  and  C_19
REMARK                            x       y       z     vdW  Elec       q    Type
REMARK                         _______ _______ _______ _____ _____    ______ ____
ROOT
ATOM      1  O   UNL     1       7.661   9.109  17.266  0.00  0.00    +0.000 OA
ATOM      2  C   UNL     1       8.274   8.766  18.274  0.00  0.00    +0.000 C 
ATOM      3  N   UNL     1       8.347   7.457  18.664  0.00  0.00    +0.000 N 
ATOM      4  H   UNL     1       8.803   7.200  19.537  0.00  0.00    +0.000 HD
ENDROOT
BRANCH   2   5
ATOM      5  C   UNL     1       9.013   9.743  19.206  0.00  0.00    +0.000 C 
BRANCH   5   6
ATOM      6  N   UNL     1       9.392  11.011  18.561  0.00  0.00    +0.000 NA
ATOM      7  C   UNL     1      10.727  10.969  17.941  0.00  0.00    +0.000 C 
ATOM      8  C   UNL     1      11.806  11.804  18.649  0.00  0.00    +0.000 C 
ATOM      9  C   UNL     1      11.315  13.221  18.758  0.00  0.00    +0.000 A 
ATOM     10  C   UNL     1      12.155  14.319  18.563  0.00  0.00    +0.000 A 
ATOM     11  C   UNL     1      11.635  15.609  18.642  0.00  0.00    +0.000 A 
ATOM     12  C   UNL     1      10.282  15.802  18.925  0.00  0.00    +0.000 A 
ATOM     13  C   UNL     1       9.445  14.706  19.147  0.00  0.00    +0.000 A 
ATOM     14  C   UNL     1       9.956  13.407  19.065  0.00  0.00    +0.000 A 
ATOM     15  C   UNL     1       9.125  12.188  19.403  0.00  0.00    +0.000 C 
ENDBRANCH   5   6
ENDBRANCH   2   5
BRANCH   3  16
ATOM     16  C   UNL     1       7.695   6.377  17.945  0.00  0.00    +0.000 C 
BRANCH  16  17
ATOM     17  C   UNL     1       6.801   5.667  18.959  0.00  0.00    +0.000 C 
ATOM     18  O   UNL     1       7.241   5.396  20.078  0.00  0.00    +0.000 OA
ATOM     19  N   UNL     1       5.535   5.362  18.493  0.00  0.00    +0.000 N 
ATOM     20  H   UNL     1       5.360   5.479  17.501  0.00  0.00    +0.000 HD
BRANCH  19  21
ATOM     21  C   UNL     1       4.537   4.693  19.238  0.00  0.00    +0.000 A 
ATOM     22  C   UNL     1       4.497   3.300  19.377  0.00  0.00    +0.000 A 
ATOM     23  C   UNL     1       3.439   2.678  20.045  0.00  0.00    +0.000 A 
ATOM     24  C   UNL     1       2.430   3.454  20.593  0.00  0.00    +0.000 A 
ATOM     25  F   UNL     1       1.399   2.856  21.206  0.00  0.00    +0.000 F 
ATOM     26  C   UNL     1       2.476   4.840  20.512  0.00  0.00    +0.000 A 
ATOM     27  C   UNL     1       3.536   5.462  19.846  0.00  0.00    +0.000 A 
ENDBRANCH  19  21
ENDBRANCH  16  17
ENDBRANCH   3  16
TORSDOF 5
ENDMDL
