MODEL 1
REMARK VINA RESULT:      -5.5      0.000      0.000
REMARK  Name = 
REMARK  6 active torsions:
REMARK  status: ('A' for Active; 'I' for Inactive)
REMARK    1  A    between atoms: O_1  and  C_2
REMARK    2  A    between atoms: C_2  and  C_3
REMARK    3  A    between atoms: C_3  and  O_4
REMARK    4  A    between atoms: C_3  and  C_5
REMARK    5  A    between atoms: C_5  and  O_6
REMARK    6  A    between atoms: O_6  and  C_7
REMARK                            x       y       z     vdW  Elec       q    Type
REMARK                         _______ _______ _______ _____ _____    ______ ____
ROOT
ATOM      1  O   UNL     1       4.912   5.702  16.633  0.00  0.00    +0.000 OA
ENDROOT
BRANCH   1   2
ATOM      2  C   UNL     1       3.876   5.017  17.212  0.00  0.00    +0.000 A 
ATOM      3  C   UNL     1       2.901   5.565  18.051  0.00  0.00    +0.000 A 
ATOM      4  C   UNL     1       1.885   4.757  18.575  0.00  0.00    +0.000 A 
ATOM      5  C   UNL     1       1.845   3.400  18.262  0.00  0.00    +0.000 A 
ATOM      6 CL   UNL     1       0.590   2.414  18.901  0.00  0.00    +0.000 Cl
ATOM      7  C   UNL     1       2.813   2.842  17.432  0.00  0.00    +0.000 A 
ATOM      8  C   UNL     1       3.829   3.653  16.911  0.00  0.00    +0.000 A 
ENDBRANCH   1   2
BRANCH   1   9
ATOM      9  C   UNL     1       5.798   6.393  17.528  0.00  0.00    +0.000 C 
BRANCH   9  10
ATOM     10  C   UNL     1       7.249   6.002  17.217  0.00  0.00    +0.000 C 
BRANCH  10  11
ATOM     11  O   UNL     1       7.511   6.158  15.818  0.00  0.00    +0.000 OA
ATOM     12  H   UNL     1       6.719   5.832  15.351  0.00  0.00    +0.000 HD
ENDBRANCH  10  11
BRANCH  10  13
ATOM     13  C   UNL     1       7.580   4.567  17.636  0.00  0.00    +0.000 C 
BRANCH  13  14
ATOM     14  O   UNL     1       6.738   4.142  18.701  0.00  0.00    +0.000 OA
ATOM     15  H   UNL     1       7.159   3.359  19.097  0.00  0.00    +0.000 HD
ENDBRANCH  13  14
ENDBRANCH  10  13
ENDBRANCH   9  10
ENDBRANCH   1   9
TORSDOF 6
ENDMDL
MODEL 2
REMARK VINA RESULT:      -5.4      1.894      2.489
REMARK  Name = 
REMARK  6 active torsions:
REMARK  status: ('A' for Active; 'I' for Inactive)
REMARK    1  A    between atoms: O_1  and  C_2
REMARK    2  A    between atoms: C_2  and  C_3
REMARK    3  A    between atoms: C_3  and  O_4
REMARK    4  A    between atoms: C_3  and  C_5
REMARK    5  A    between atoms: C_5  and  O_6
REMARK    6  A    between atoms: O_6  and  C_7
REMARK                            x       y       z     vdW  Elec       q    Type
REMARK                         _______ _______ _______ _____ _____    ______ ____
ROOT
ATOM      1  O   UNL     1       4.260   4.179  16.490  0.00  0.00    +0.000 OA
ENDROOT
BRANCH   1   2
ATOM      2  C   UNL     1       3.631   3.824  17.655  0.00  0.00    +0.000 A 
ATOM      3  C   UNL     1       4.263   3.423  18.835  0.00  0.00    +0.000 A 
ATOM      4  C   UNL     1       3.505   3.091  19.964  0.00  0.00    +0.000 A 
ATOM      5  C   UNL     1       2.114   3.159  19.912  0.00  0.00    +0.000 A 
ATOM      6 CL   UNL     1       1.188   2.759  21.304  0.00  0.00    +0.000 Cl
ATOM      7  C   UNL     1       1.474   3.552  18.740  0.00  0.00    +0.000 A 
ATOM      8  C   UNL     1       2.235   3.881  17.613  0.00  0.00    +0.000 A 
ENDBRANCH   1   2
BRANCH   1   9
ATOM      9  C   UNL     1       5.473   4.936  16.626  0.00  0.00    +0.000 C 
BRANCH   9  10
ATOM     10  C   UNL     1       6.619   4.197  15.919  0.00  0.00    +0.000 C 
BRANCH  10  11
ATOM     11  O   UNL     1       7.854   4.438  16.603  0.00  0.00    +0.000 OA
ATOM     12  H   UNL     1       7.816   3.923  17.430  0.00  0.00    +0.000 HD
ENDBRANCH  10  11
BRANCH  10  13
ATOM     13  C   UNL     1       6.768   4.599  14.450  0.00  0.00    +0.000 C 
BRANCH  13  14
ATOM     14  O   UNL     1       7.807   5.557  14.288  0.00  0.00    +0.000 OA
ATOM     15  H   UNL     1       7.382   6.388  14.013  0.00  0.00    +0.000 HD
ENDBRANCH  13  14
ENDBRANCH  10  13
ENDBRANCH   9  10
ENDBRANCH   1   9
TORSDOF 6
ENDMDL
MODEL 3
REMARK VINA RESULT:      -5.3      1.519      2.036
REMARK  Name = 
REMARK  6 active torsions:
REMARK  status: ('A' for Active; 'I' for Inactive)
REMARK    1  A    between atoms: O_1  and  C_2
REMARK    2  A    between atoms: C_2  and  C_3
REMARK    3  A    between atoms: C_3  and  O_4
REMARK    4  A    between atoms: C_3  and  C_5
REMARK    5  A    between atoms: C_5  and  O_6
REMARK    6  A    between atoms: O_6  and  C_7
REMARK                            x       y       z     vdW  Elec       q    Type
REMARK                         _______ _______ _______ _____ _____    ______ ____
ROOT
ATOM      1  O   UNL     1       5.669   5.301  18.841  0.00  0.00    +0.000 OA
ENDROOT
BRANCH   1   2
ATOM      2  C   UNL     1       4.445   4.690  18.759  0.00  0.00    +0.000 A 
ATOM      3  C   UNL     1       3.336   5.170  18.057  0.00  0.00    +0.000 A 
ATOM      4  C   UNL     1       2.139   4.445  18.046  0.00  0.00    +0.000 A 
ATOM      5  C   UNL     1       2.050   3.239  18.738  0.00  0.00    +0.000 A 
ATOM      6 CL   UNL     1       0.580   2.348  18.714  0.00  0.00    +0.000 Cl
ATOM      7  C   UNL     1       3.146   2.754  19.445  0.00  0.00    +0.000 A 
ATOM      8  C   UNL     1       4.341   3.482  19.456  0.00  0.00    +0.000 A 
ENDBRANCH   1   2
BRANCH   1   9
ATOM      9  C   UNL     1       6.271   5.689  17.596  0.00  0.00    +0.000 C 
BRANCH   9  10
ATOM     10  C   UNL     1       6.778   4.441  16.861  0.00  0.00    +0.000 C 
BRANCH  10  11
ATOM     11  O   UNL     1       8.121   4.146  17.261  0.00  0.00    +0.000 OA
ATOM     12  H   UNL     1       8.482   4.968  17.641  0.00  0.00    +0.000 HD
ENDBRANCH  10  11
BRANCH  10  13
ATOM     13  C   UNL     1       6.725   4.586  15.338  0.00  0.00    +0.000 C 
BRANCH  13  14
ATOM     14  O   UNL     1       7.770   5.431  14.871  0.00  0.00    +0.000 OA
ATOM     15  H   UNL     1       8.076   5.947  15.637  0.00  0.00    +0.000 HD
ENDBRANCH  13  14
ENDBRANCH  10  13
ENDBRANCH   9  10
ENDBRANCH   1   9
TORSDOF 6
ENDMDL
MODEL 4
REMARK VINA RESULT:      -5.3      1.221      1.726
REMARK  Name = 
REMARK  6 active torsions:
REMARK  status: ('A' for Active; 'I' for Inactive)
REMARK    1  A    between atoms: O_1  and  C_2
REMARK    2  A    between atoms: C_2  and  C_3
REMARK    3  A    between atoms: C_3  and  O_4
REMARK    4  A    between atoms: C_3  and  C_5
REMARK    5  A    between atoms: C_5  and  O_6
REMARK    6  A    between atoms: O_6  and  C_7
REMARK                            x       y       z     vdW  Elec       q    Type
REMARK                         _______ _______ _______ _____ _____    ______ ____
ROOT
ATOM      1  O   UNL     1       4.364   5.774  16.836  0.00  0.00    +0.000 OA
ENDROOT
BRANCH   1   2
ATOM      2  C   UNL     1       3.551   5.121  17.726  0.00  0.00    +0.000 A 
ATOM      3  C   UNL     1       2.698   4.055  17.424  0.00  0.00    +0.000 A 
ATOM      4  C   UNL     1       1.921   3.467  18.428  0.00  0.00    +0.000 A 
ATOM      5  C   UNL     1       1.994   3.945  19.734  0.00  0.00    +0.000 A 
ATOM      6 CL   UNL     1       1.043   3.213  20.965  0.00  0.00    +0.000 Cl
ATOM      7  C   UNL     1       2.835   5.009  20.045  0.00  0.00    +0.000 A 
ATOM      8  C   UNL     1       3.610   5.596  19.038  0.00  0.00    +0.000 A 
ENDBRANCH   1   2
BRANCH   1   9
ATOM      9  C   UNL     1       5.367   4.976  16.186  0.00  0.00    +0.000 C 
BRANCH   9  10
ATOM     10  C   UNL     1       6.752   5.584  16.444  0.00  0.00    +0.000 C 
BRANCH  10  11
ATOM     11  O   UNL     1       7.563   5.479  15.268  0.00  0.00    +0.000 OA
ATOM     12  H   UNL     1       8.479   5.354  15.576  0.00  0.00    +0.000 HD
ENDBRANCH  10  11
BRANCH  10  13
ATOM     13  C   UNL     1       7.479   4.926  17.620  0.00  0.00    +0.000 C 
BRANCH  13  14
ATOM     14  O   UNL     1       6.634   3.994  18.282  0.00  0.00    +0.000 OA
ATOM     15  H   UNL     1       7.213   3.308  18.658  0.00  0.00    +0.000 HD
ENDBRANCH  13  14
ENDBRANCH  10  13
ENDBRANCH   9  10
ENDBRANCH   1   9
TORSDOF 6
ENDMDL
MODEL 5
REMARK VINA RESULT:      -5.3      1.904      2.338
REMARK  Name = 
REMARK  6 active torsions:
REMARK  status: ('A' for Active; 'I' for Inactive)
REMARK    1  A    between atoms: O_1  and  C_2
REMARK    2  A    between atoms: C_2  and  C_3
REMARK    3  A    between atoms: C_3  and  O_4
REMARK    4  A    between atoms: C_3  and  C_5
REMARK    5  A    between atoms: C_5  and  O_6
REMARK    6  A    between atoms: O_6  and  C_7
REMARK                            x       y       z     vdW  Elec       q    Type
REMARK                         _______ _______ _______ _____ _____    ______ ____
ROOT
ATOM      1  O   UNL     1       4.988   5.722  18.136  0.00  0.00    +0.000 OA
ENDROOT
BRANCH   1   2
ATOM      2  C   UNL     1       4.121   5.099  18.995  0.00  0.00    +0.000 A 
ATOM      3  C   UNL     1       3.093   5.718  19.711  0.00  0.00    +0.000 A 
ATOM      4  C   UNL     1       2.267   4.966  20.555  0.00  0.00    +0.000 A 
ATOM      5  C   UNL     1       2.471   3.593  20.683  0.00  0.00    +0.000 A 
ATOM      6 CL   UNL     1       1.449   2.672  21.715  0.00  0.00    +0.000 Cl
ATOM      7  C   UNL     1       3.495   2.967  19.980  0.00  0.00    +0.000 A 
ATOM      8  C   UNL     1       4.320   3.723  19.138  0.00  0.00    +0.000 A 
ENDBRANCH   1   2
BRANCH   1   9
ATOM      9  C   UNL     1       5.719   4.871  17.239  0.00  0.00    +0.000 C 
BRANCH   9  10
ATOM     10  C   UNL     1       7.213   5.216  17.310  0.00  0.00    +0.000 C 
BRANCH  10  11
ATOM     11  O   UNL     1       7.911   4.226  18.074  0.00  0.00    +0.000 OA
ATOM     12  H   UNL     1       7.281   3.898  18.741  0.00  0.00    +0.000 HD
ENDBRANCH  10  11
BRANCH  10  13
ATOM     13  C   UNL     1       7.476   6.598  17.913  0.00  0.00    +0.000 C 
BRANCH  13  14
ATOM     14  O   UNL     1       7.120   7.628  16.998  0.00  0.00    +0.000 OA
ATOM     15  H   UNL     1       6.260   7.977  17.290  0.00  0.00    +0.000 HD
ENDBRANCH  13  14
ENDBRANCH  10  13
ENDBRANCH   9  10
ENDBRANCH   1   9
TORSDOF 6
ENDMDL
MODEL 6
REMARK VINA RESULT:      -5.2      1.493      1.784
REMARK  Name = 
REMARK  6 active torsions:
REMARK  status: ('A' for Active; 'I' for Inactive)
REMARK    1  A    between atoms: O_1  and  C_2
REMARK    2  A    between atoms: C_2  and  C_3
REMARK    3  A    between atoms: C_3  and  O_4
REMARK    4  A    between atoms: C_3  and  C_5
REMARK    5  A    between atoms: C_5  and  O_6
REMARK    6  A    between atoms: O_6  and  C_7
REMARK                            x       y       z     vdW  Elec       q    Type
REMARK                         _______ _______ _______ _____ _____    ______ ____
ROOT
ATOM      1  O   UNL     1       4.272   5.067  16.740  0.00  0.00    +0.000 OA
ENDROOT
BRANCH   1   2
ATOM      2  C   UNL     1       3.646   4.493  17.816  0.00  0.00    +0.000 A 
ATOM      3  C   UNL     1       4.278   3.824  18.868  0.00  0.00    +0.000 A 
ATOM      4  C   UNL     1       3.523   3.286  19.917  0.00  0.00    +0.000 A 
ATOM      5  C   UNL     1       2.136   3.417  19.914  0.00  0.00    +0.000 A 
ATOM      6 CL   UNL     1       1.215   2.762  21.210  0.00  0.00    +0.000 Cl
ATOM      7  C   UNL     1       1.496   4.076  18.869  0.00  0.00    +0.000 A 
ATOM      8  C   UNL     1       2.253   4.611  17.821  0.00  0.00    +0.000 A 
ENDBRANCH   1   2
BRANCH   1   9
ATOM      9  C   UNL     1       5.544   4.510  16.371  0.00  0.00    +0.000 C 
BRANCH   9  10
ATOM     10  C   UNL     1       6.620   5.603  16.438  0.00  0.00    +0.000 C 
BRANCH  10  11
ATOM     11  O   UNL     1       7.489   5.507  15.303  0.00  0.00    +0.000 OA
ATOM     12  H   UNL     1       7.449   6.370  14.852  0.00  0.00    +0.000 HD
ENDBRANCH  10  11
BRANCH  10  13
ATOM     13  C   UNL     1       7.453   5.538  17.720  0.00  0.00    +0.000 C 
BRANCH  13  14
ATOM     14  O   UNL     1       7.825   4.198  18.017  0.00  0.00    +0.000 OA
ATOM     15  H   UNL     1       7.000   3.686  18.086  0.00  0.00    +0.000 HD
ENDBRANCH  13  14
ENDBRANCH  10  13
ENDBRANCH   9  10
ENDBRANCH   1   9
TORSDOF 6
ENDMDL
MODEL 7
REMARK VINA RESULT:      -5.2      1.356      2.286
REMARK  Name = 
REMARK  6 active torsions:
REMARK  status: ('A' for Active; 'I' for Inactive)
REMARK    1  A    between atoms: O_1  and  C_2
REMARK    2  A    between atoms: C_2  and  C_3
REMARK    3  A    between atoms: C_3  and  O_4
REMARK    4  A    between atoms: C_3  and  C_5
REMARK    5  A    between atoms: C_5  and  O_6
REMARK    6  A    between atoms: O_6  and  C_7
REMARK                            x       y       z     vdW  Elec       q    Type
REMARK                         _______ _______ _______ _____ _____    ______ ____
ROOT
ATOM      1  O   UNL     1       4.033   6.048  17.223  0.00  0.00    +0.000 OA
ENDROOT
BRANCH   1   2
ATOM      2  C   UNL     1       3.281   5.268  18.063  0.00  0.00    +0.000 A 
ATOM      3  C   UNL     1       2.391   4.266  17.668  0.00  0.00    +0.000 A 
ATOM      4  C   UNL     1       1.684   3.531  18.628  0.00  0.00    +0.000 A 
ATOM      5  C   UNL     1       1.868   3.801  19.982  0.00  0.00    +0.000 A 
ATOM      6 CL   UNL     1       1.004   2.890  21.158  0.00  0.00    +0.000 Cl
ATOM      7  C   UNL     1       2.747   4.800  20.386  0.00  0.00    +0.000 A 
ATOM      8  C   UNL     1       3.450   5.534  19.424  0.00  0.00    +0.000 A 
ENDBRANCH   1   2
BRANCH   1   9
ATOM      9  C   UNL     1       5.453   6.031  17.438  0.00  0.00    +0.000 C 
BRANCH   9  10
ATOM     10  C   UNL     1       6.001   4.631  17.129  0.00  0.00    +0.000 C 
BRANCH  10  11
ATOM     11  O   UNL     1       6.616   4.075  18.296  0.00  0.00    +0.000 OA
ATOM     12  H   UNL     1       7.153   3.320  17.991  0.00  0.00    +0.000 HD
ENDBRANCH  10  11
BRANCH  10  13
ATOM     13  C   UNL     1       7.009   4.629  15.977  0.00  0.00    +0.000 C 
BRANCH  13  14
ATOM     14  O   UNL     1       7.498   5.941  15.727  0.00  0.00    +0.000 OA
ATOM     15  H   UNL     1       7.510   6.404  16.583  0.00  0.00    +0.000 HD
ENDBRANCH  13  14
ENDBRANCH  10  13
ENDBRANCH   9  10
ENDBRANCH   1   9
TORSDOF 6
ENDMDL
MODEL 8
REMARK VINA RESULT:      -5.2      1.211      1.744
REMARK  Name = 
REMARK  6 active torsions:
REMARK  status: ('A' for Active; 'I' for Inactive)
REMARK    1  A    between atoms: O_1  and  C_2
REMARK    2  A    between atoms: C_2  and  C_3
REMARK    3  A    between atoms: C_3  and  O_4
REMARK    4  A    between atoms: C_3  and  C_5
REMARK    5  A    between atoms: C_5  and  O_6
REMARK    6  A    between atoms: O_6  and  C_7
REMARK                            x       y       z     vdW  Elec       q    Type
REMARK                         _______ _______ _______ _____ _____    ______ ____
ROOT
ATOM      1  O   UNL     1       4.775   5.370  16.632  0.00  0.00    +0.000 OA
ENDROOT
BRANCH   1   2
ATOM      2  C   UNL     1       3.815   4.975  17.527  0.00  0.00    +0.000 A 
ATOM      3  C   UNL     1       3.370   5.713  18.628  0.00  0.00    +0.000 A 
ATOM      4  C   UNL     1       2.375   5.199  19.467  0.00  0.00    +0.000 A 
ATOM      5  C   UNL     1       1.825   3.946  19.206  0.00  0.00    +0.000 A 
ATOM      6 CL   UNL     1       0.596   3.323  20.235  0.00  0.00    +0.000 Cl
ATOM      7  C   UNL     1       2.264   3.200  18.117  0.00  0.00    +0.000 A 
ATOM      8  C   UNL     1       3.261   3.716  17.281  0.00  0.00    +0.000 A 
ENDBRANCH   1   2
BRANCH   1   9
ATOM      9  C   UNL     1       5.794   4.407  16.323  0.00  0.00    +0.000 C 
BRANCH   9  10
ATOM     10  C   UNL     1       7.177   5.041  16.529  0.00  0.00    +0.000 C 
BRANCH  10  11
ATOM     11  O   UNL     1       8.049   4.115  17.188  0.00  0.00    +0.000 OA
ATOM     12  H   UNL     1       8.219   3.396  16.552  0.00  0.00    +0.000 HD
ENDBRANCH  10  11
BRANCH  10  13
ATOM     13  C   UNL     1       7.120   6.342  17.333  0.00  0.00    +0.000 C 
BRANCH  13  14
ATOM     14  O   UNL     1       7.847   7.375  16.679  0.00  0.00    +0.000 OA
ATOM     15  H   UNL     1       7.617   8.207  17.128  0.00  0.00    +0.000 HD
ENDBRANCH  13  14
ENDBRANCH  10  13
ENDBRANCH   9  10
ENDBRANCH   1   9
TORSDOF 6
ENDMDL
MODEL 9
REMARK VINA RESULT:      -5.2      1.331      1.857
REMARK  Name = 
REMARK  6 active torsions:
REMARK  status: ('A' for Active; 'I' for Inactive)
REMARK    1  A    between atoms: O_1  and  C_2
REMARK    2  A    between atoms: C_2  and  C_3
REMARK    3  A    between atoms: C_3  and  O_4
REMARK    4  A    between atoms: C_3  and  C_5
REMARK    5  A    between atoms: C_5  and  O_6
REMARK    6  A    between atoms: O_6  and  C_7
REMARK                            x       y       z     vdW  Elec       q    Type
REMARK                         _______ _______ _______ _____ _____    ______ ____
ROOT
ATOM      1  O   UNL     1       5.008   5.124  17.149  0.00  0.00    +0.000 OA
ENDROOT
BRANCH   1   2
ATOM      2  C   UNL     1       4.138   4.555  18.043  0.00  0.00    +0.000 A 
ATOM      3  C   UNL     1       3.625   3.257  17.971  0.00  0.00    +0.000 A 
ATOM      4  C   UNL     1       2.746   2.789  18.955  0.00  0.00    +0.000 A 
ATOM      5  C   UNL     1       2.379   3.621  20.010  0.00  0.00    +0.000 A 
ATOM      6 CL   UNL     1       1.305   3.039  21.221  0.00  0.00    +0.000 Cl
ATOM      7  C   UNL     1       2.879   4.917  20.089  0.00  0.00    +0.000 A 
ATOM      8  C   UNL     1       3.756   5.382  19.103  0.00  0.00    +0.000 A 
ENDBRANCH   1   2
BRANCH   1   9
ATOM      9  C   UNL     1       5.450   6.457  17.451  0.00  0.00    +0.000 C 
BRANCH   9  10
ATOM     10  C   UNL     1       6.985   6.503  17.436  0.00  0.00    +0.000 C 
BRANCH  10  11
ATOM     11  O   UNL     1       7.475   6.136  16.141  0.00  0.00    +0.000 OA
ATOM     12  H   UNL     1       8.354   6.548  16.053  0.00  0.00    +0.000 HD
ENDBRANCH  10  11
BRANCH  10  13
ATOM     13  C   UNL     1       7.616   5.592  18.492  0.00  0.00    +0.000 C 
BRANCH  13  14
ATOM     14  O   UNL     1       7.710   4.254  18.019  0.00  0.00    +0.000 OA
ATOM     15  H   UNL     1       6.875   4.060  17.559  0.00  0.00    +0.000 HD
ENDBRANCH  13  14
ENDBRANCH  10  13
ENDBRANCH   9  10
ENDBRANCH   1   9
TORSDOF 6
ENDMDL
