MODEL 1
REMARK VINA RESULT:      -8.5      0.000      0.000
REMARK  Name = 
REMARK  4 active torsions:
REMARK  status: ('A' for Active; 'I' for Inactive)
REMARK    1  A    between atoms: S_2  and  C_4
REMARK    2  A    between atoms: S_2  and  N_10
REMARK    3  A    between atoms: C_12  and  C_13
REMARK    4  A    between atoms: C_13  and  N_14
REMARK                            x       y       z     vdW  Elec       q    Type
REMARK                         _______ _______ _______ _____ _____    ______ ____
ROOT
ATOM      1  N   UNL     1       4.911   5.888  17.050  0.00  0.00    +0.000 N 
ATOM      2  C   UNL     1       5.241   5.555  18.355  0.00  0.00    +0.000 A 
ATOM      3  C   UNL     1       3.987   5.102  18.545  0.00  0.00    +0.000 A 
ATOM      4  C   UNL     1       3.457   6.352  18.546  0.00  0.00    +0.000 A 
ATOM      5  C   UNL     1       2.508   6.699  19.551  0.00  0.00    +0.000 A 
ATOM      6  C   UNL     1       1.850   7.867  19.592  0.00  0.00    +0.000 A 
ATOM      7  C   UNL     1       2.152   8.640  18.519  0.00  0.00    +0.000 A 
ATOM      8  C   UNL     1       3.108   8.212  17.450  0.00  0.00    +0.000 A 
ATOM      9  C   UNL     1       4.017   7.058  17.213  0.00  0.00    +0.000 A 
ENDROOT
BRANCH   1  11
ATOM     10  O   UNL     1       6.781   4.006  16.909  0.00  0.00    +0.000 OA
ATOM     11  S   UNL     1       6.496   5.274  16.251  0.00  0.00    +0.000 S 
ATOM     12  O   UNL     1       7.458   6.366  16.380  0.00  0.00    +0.000 OA
BRANCH  11  13
ATOM     13  C   UNL     1       6.466   4.924  14.567  0.00  0.00    +0.000 A 
ATOM     14  C   UNL     1       5.583   4.005  14.055  0.00  0.00    +0.000 A 
ATOM     15  C   UNL     1       5.894   3.430  12.836  0.00  0.00    +0.000 A 
ATOM     16  C   UNL     1       7.040   3.840  12.146  0.00  0.00    +0.000 A 
ATOM     17  C   UNL     1       7.811   4.919  12.596  0.00  0.00    +0.000 A 
ATOM     18  C   UNL     1       7.493   5.506  13.803  0.00  0.00    +0.000 A 
ENDBRANCH  11  13
ENDBRANCH   1  11
BRANCH   3  19
ATOM     19  C   UNL     1       3.124   3.986  18.181  0.00  0.00    +0.000 C 
BRANCH  19  20
ATOM     20  N   UNL     1       3.402   2.842  19.020  0.00  0.00    +0.000 NA
ATOM     21  C   UNL     1       3.079   3.166  20.427  0.00  0.00    +0.000 C 
ATOM     22  C   UNL     1       1.599   3.561  20.619  0.00  0.00    +0.000 C 
ATOM     23  N   UNL     1       0.667   2.554  20.078  0.00  0.00    +0.000 NA
ATOM     24  C   UNL     1       1.029   2.131  18.713  0.00  0.00    +0.000 C 
ATOM     25  C   UNL     1       2.520   1.746  18.582  0.00  0.00    +0.000 C 
ATOM     26  H   UNL     1      -0.274   2.937  20.075  0.00  0.00    +0.000 HD
ENDBRANCH  19  20
ENDBRANCH   3  19
TORSDOF 4
ENDMDL
MODEL 2
REMARK VINA RESULT:      -8.4      2.618      3.334
REMARK  Name = 
REMARK  4 active torsions:
REMARK  status: ('A' for Active; 'I' for Inactive)
REMARK    1  A    between atoms: S_2  and  C_4
REMARK    2  A    between atoms: S_2  and  N_10
REMARK    3  A    between atoms: C_12  and  C_13
REMARK    4  A    between atoms: C_13  and  N_14
REMARK                            x       y       z     vdW  Elec       q    Type
REMARK                         _______ _______ _______ _____ _____    ______ ____
ROOT
ATOM      1  N   UNL     1       3.454   6.830  17.638  0.00  0.00    +0.000 N 
ATOM      2  C   UNL     1       3.995   6.583  18.891  0.00  0.00    +0.000 A 
ATOM      3  C   UNL     1       2.796   6.130  19.307  0.00  0.00    +0.000 A 
ATOM      4  C   UNL     1       2.248   7.372  19.318  0.00  0.00    +0.000 A 
ATOM      5  C   UNL     1       1.465   7.771  20.438  0.00  0.00    +0.000 A 
ATOM      6  C   UNL     1       0.797   8.934  20.514  0.00  0.00    +0.000 A 
ATOM      7  C   UNL     1       0.909   9.640  19.361  0.00  0.00    +0.000 A 
ATOM      8  C   UNL     1       1.691   9.156  18.181  0.00  0.00    +0.000 A 
ATOM      9  C   UNL     1       2.573   7.998  17.871  0.00  0.00    +0.000 A 
ENDROOT
BRANCH   1  11
ATOM     10  O   UNL     1       4.946   7.028  15.449  0.00  0.00    +0.000 OA
ATOM     11  S   UNL     1       4.904   6.183  16.635  0.00  0.00    +0.000 S 
ATOM     12  O   UNL     1       4.669   4.750  16.470  0.00  0.00    +0.000 OA
BRANCH  11  13
ATOM     13  C   UNL     1       6.474   6.284  17.330  0.00  0.00    +0.000 A 
ATOM     14  C   UNL     1       6.990   5.240  18.058  0.00  0.00    +0.000 A 
ATOM     15  C   UNL     1       8.004   5.524  18.954  0.00  0.00    +0.000 A 
ATOM     16  C   UNL     1       8.507   6.827  19.045  0.00  0.00    +0.000 A 
ATOM     17  C   UNL     1       8.101   7.825  18.151  0.00  0.00    +0.000 A 
ATOM     18  C   UNL     1       7.102   7.539  17.244  0.00  0.00    +0.000 A 
ENDBRANCH  11  13
ENDBRANCH   1  11
BRANCH   3  19
ATOM     19  C   UNL     1       1.909   4.985  19.154  0.00  0.00    +0.000 C 
BRANCH  19  20
ATOM     20  N   UNL     1       2.124   4.037  20.225  0.00  0.00    +0.000 NA
ATOM     21  C   UNL     1       0.968   3.117  20.314  0.00  0.00    +0.000 C 
ATOM     22  C   UNL     1       0.735   2.329  19.007  0.00  0.00    +0.000 C 
ATOM     23  N   UNL     1       1.944   1.620  18.548  0.00  0.00    +0.000 NA
ATOM     24  C   UNL     1       3.138   2.486  18.552  0.00  0.00    +0.000 C 
ATOM     25  C   UNL     1       3.320   3.247  19.885  0.00  0.00    +0.000 C 
ATOM     26  H   UNL     1       1.788   1.265  17.609  0.00  0.00    +0.000 HD
ENDBRANCH  19  20
ENDBRANCH   3  19
TORSDOF 4
ENDMDL
MODEL 3
REMARK VINA RESULT:      -8.4      0.563      1.128
REMARK  Name = 
REMARK  4 active torsions:
REMARK  status: ('A' for Active; 'I' for Inactive)
REMARK    1  A    between atoms: S_2  and  C_4
REMARK    2  A    between atoms: S_2  and  N_10
REMARK    3  A    between atoms: C_12  and  C_13
REMARK    4  A    between atoms: C_13  and  N_14
REMARK                            x       y       z     vdW  Elec       q    Type
REMARK                         _______ _______ _______ _____ _____    ______ ____
ROOT
ATOM      1  N   UNL     1       5.268   5.922  17.147  0.00  0.00    +0.000 N 
ATOM      2  C   UNL     1       5.534   5.582  18.465  0.00  0.00    +0.000 A 
ATOM      3  C   UNL     1       4.306   5.037  18.561  0.00  0.00    +0.000 A 
ATOM      4  C   UNL     1       3.687   6.245  18.550  0.00  0.00    +0.000 A 
ATOM      5  C   UNL     1       2.652   6.499  19.494  0.00  0.00    +0.000 A 
ATOM      6  C   UNL     1       1.908   7.616  19.513  0.00  0.00    +0.000 A 
ATOM      7  C   UNL     1       2.224   8.434  18.477  0.00  0.00    +0.000 A 
ATOM      8  C   UNL     1       3.277   8.101  17.468  0.00  0.00    +0.000 A 
ATOM      9  C   UNL     1       4.281   7.021  17.271  0.00  0.00    +0.000 A 
ENDROOT
BRANCH   1  11
ATOM     10  O   UNL     1       7.448   4.417  17.349  0.00  0.00    +0.000 OA
ATOM     11  S   UNL     1       6.942   5.442  16.446  0.00  0.00    +0.000 S 
ATOM     12  O   UNL     1       7.690   6.689  16.307  0.00  0.00    +0.000 OA
BRANCH  11  13
ATOM     13  C   UNL     1       6.987   4.737  14.877  0.00  0.00    +0.000 A 
ATOM     14  C   UNL     1       7.850   5.207  13.919  0.00  0.00    +0.000 A 
ATOM     15  C   UNL     1       7.541   4.947  12.596  0.00  0.00    +0.000 A 
ATOM     16  C   UNL     1       6.417   4.175  12.284  0.00  0.00    +0.000 A 
ATOM     17  C   UNL     1       5.670   3.542  13.285  0.00  0.00    +0.000 A 
ATOM     18  C   UNL     1       5.987   3.786  14.606  0.00  0.00    +0.000 A 
ENDBRANCH  11  13
ENDBRANCH   1  11
BRANCH   3  19
ATOM     19  C   UNL     1       3.553   3.871  18.118  0.00  0.00    +0.000 C 
BRANCH  19  20
ATOM     20  N   UNL     1       4.024   2.682  18.793  0.00  0.00    +0.000 NA
ATOM     21  C   UNL     1       3.955   2.882  20.258  0.00  0.00    +0.000 C 
ATOM     22  C   UNL     1       2.523   3.183  20.748  0.00  0.00    +0.000 C 
ATOM     23  N   UNL     1       1.546   2.173  20.303  0.00  0.00    +0.000 NA
ATOM     24  C   UNL     1       1.664   1.873  18.864  0.00  0.00    +0.000 C 
ATOM     25  C   UNL     1       3.119   1.578  18.432  0.00  0.00    +0.000 C 
ATOM     26  H   UNL     1       0.606   2.505  20.502  0.00  0.00    +0.000 HD
ENDBRANCH  19  20
ENDBRANCH   3  19
TORSDOF 4
ENDMDL
MODEL 4
REMARK VINA RESULT:      -8.0      2.596      3.220
REMARK  Name = 
REMARK  4 active torsions:
REMARK  status: ('A' for Active; 'I' for Inactive)
REMARK    1  A    between atoms: S_2  and  C_4
REMARK    2  A    between atoms: S_2  and  N_10
REMARK    3  A    between atoms: C_12  and  C_13
REMARK    4  A    between atoms: C_13  and  N_14
REMARK                            x       y       z     vdW  Elec       q    Type
REMARK                         _______ _______ _______ _____ _____    ______ ____
ROOT
ATOM      1  N   UNL     1       3.476   6.940  17.507  0.00  0.00    +0.000 N 
ATOM      2  C   UNL     1       3.998   6.764  18.779  0.00  0.00    +0.000 A 
ATOM      3  C   UNL     1       2.789   6.350  19.206  0.00  0.00    +0.000 A 
ATOM      4  C   UNL     1       2.255   7.596  19.134  0.00  0.00    +0.000 A 
ATOM      5  C   UNL     1       1.462   8.072  20.218  0.00  0.00    +0.000 A 
ATOM      6  C   UNL     1       0.808   9.243  20.214  0.00  0.00    +0.000 A 
ATOM      7  C   UNL     1       0.942   9.878  19.023  0.00  0.00    +0.000 A 
ATOM      8  C   UNL     1       1.734   9.314  17.885  0.00  0.00    +0.000 A 
ATOM      9  C   UNL     1       2.606   8.130  17.657  0.00  0.00    +0.000 A 
ENDROOT
BRANCH   1  11
ATOM     10  O   UNL     1       5.023   7.016  15.349  0.00  0.00    +0.000 OA
ATOM     11  S   UNL     1       4.930   6.218  16.564  0.00  0.00    +0.000 S 
ATOM     12  O   UNL     1       4.661   4.787  16.447  0.00  0.00    +0.000 OA
BRANCH  11  13
ATOM     13  C   UNL     1       6.486   6.304  17.293  0.00  0.00    +0.000 A 
ATOM     14  C   UNL     1       6.974   5.257  18.036  0.00  0.00    +0.000 A 
ATOM     15  C   UNL     1       7.971   5.533  18.953  0.00  0.00    +0.000 A 
ATOM     16  C   UNL     1       8.487   6.831  19.049  0.00  0.00    +0.000 A 
ATOM     17  C   UNL     1       8.113   7.830  18.142  0.00  0.00    +0.000 A 
ATOM     18  C   UNL     1       7.130   7.552  17.215  0.00  0.00    +0.000 A 
ENDBRANCH  11  13
ENDBRANCH   1  11
BRANCH   3  19
ATOM     19  C   UNL     1       1.890   5.207  19.111  0.00  0.00    +0.000 C 
BRANCH  19  20
ATOM     20  N   UNL     1       2.645   3.974  19.108  0.00  0.00    +0.000 NA
ATOM     21  C   UNL     1       3.173   3.711  20.465  0.00  0.00    +0.000 C 
ATOM     22  C   UNL     1       2.055   3.594  21.523  0.00  0.00    +0.000 C 
ATOM     23  N   UNL     1       1.024   2.607  21.154  0.00  0.00    +0.000 NA
ATOM     24  C   UNL     1       0.555   2.778  19.766  0.00  0.00    +0.000 C 
ATOM     25  C   UNL     1       1.717   2.887  18.752  0.00  0.00    +0.000 C 
ATOM     26  H   UNL     1       0.236   2.693  21.789  0.00  0.00    +0.000 HD
ENDBRANCH  19  20
ENDBRANCH   3  19
TORSDOF 4
ENDMDL
MODEL 5
REMARK VINA RESULT:      -7.8      2.522      6.569
REMARK  Name = 
REMARK  4 active torsions:
REMARK  status: ('A' for Active; 'I' for Inactive)
REMARK    1  A    between atoms: S_2  and  C_4
REMARK    2  A    between atoms: S_2  and  N_10
REMARK    3  A    between atoms: C_12  and  C_13
REMARK    4  A    between atoms: C_13  and  N_14
REMARK                            x       y       z     vdW  Elec       q    Type
REMARK                         _______ _______ _______ _____ _____    ______ ____
ROOT
ATOM      1  N   UNL     1       4.475   5.008  17.696  0.00  0.00    +0.000 N 
ATOM      2  C   UNL     1       4.084   6.286  17.326  0.00  0.00    +0.000 A 
ATOM      3  C   UNL     1       5.098   6.327  16.440  0.00  0.00    +0.000 A 
ATOM      4  C   UNL     1       6.040   6.435  17.412  0.00  0.00    +0.000 A 
ATOM      5  C   UNL     1       7.078   7.400  17.263  0.00  0.00    +0.000 A 
ATOM      6  C   UNL     1       8.112   7.528  18.109  0.00  0.00    +0.000 A 
ATOM      7  C   UNL     1       8.077   6.578  19.077  0.00  0.00    +0.000 A 
ATOM      8  C   UNL     1       7.001   5.541  19.161  0.00  0.00    +0.000 A 
ATOM      9  C   UNL     1       5.733   5.239  18.444  0.00  0.00    +0.000 A 
ENDROOT
BRANCH   1  11
ATOM     10  O   UNL     1       2.689   3.323  16.683  0.00  0.00    +0.000 OA
ATOM     11  S   UNL     1       2.754   4.263  17.793  0.00  0.00    +0.000 S 
ATOM     12  O   UNL     1       1.829   5.394  17.813  0.00  0.00    +0.000 OA
BRANCH  11  13
ATOM     13  C   UNL     1       2.348   3.352  19.195  0.00  0.00    +0.000 A 
ATOM     14  C   UNL     1       1.084   3.406  19.728  0.00  0.00    +0.000 A 
ATOM     15  C   UNL     1       0.933   3.054  21.056  0.00  0.00    +0.000 A 
ATOM     16  C   UNL     1       2.039   2.603  21.785  0.00  0.00    +0.000 A 
ATOM     17  C   UNL     1       3.272   2.368  21.163  0.00  0.00    +0.000 A 
ATOM     18  C   UNL     1       3.419   2.701  19.833  0.00  0.00    +0.000 A 
ENDBRANCH  11  13
ENDBRANCH   1  11
BRANCH   3  19
ATOM     19  C   UNL     1       5.493   5.772  15.153  0.00  0.00    +0.000 C 
BRANCH  19  20
ATOM     20  N   UNL     1       6.384   4.648  15.342  0.00  0.00    +0.000 NA
ATOM     21  C   UNL     1       5.785   3.434  14.746  0.00  0.00    +0.000 C 
ATOM     22  C   UNL     1       5.513   3.588  13.235  0.00  0.00    +0.000 C 
ATOM     23  N   UNL     1       6.707   4.016  12.483  0.00  0.00    +0.000 NA
ATOM     24  C   UNL     1       7.388   5.160  13.115  0.00  0.00    +0.000 C 
ATOM     25  C   UNL     1       7.635   4.948  14.626  0.00  0.00    +0.000 C 
ATOM     26  H   UNL     1       6.435   4.265  11.536  0.00  0.00    +0.000 HD
ENDBRANCH  19  20
ENDBRANCH   3  19
TORSDOF 4
ENDMDL
MODEL 6
REMARK VINA RESULT:      -7.8      3.163      5.551
REMARK  Name = 
REMARK  4 active torsions:
REMARK  status: ('A' for Active; 'I' for Inactive)
REMARK    1  A    between atoms: S_2  and  C_4
REMARK    2  A    between atoms: S_2  and  N_10
REMARK    3  A    between atoms: C_12  and  C_13
REMARK    4  A    between atoms: C_13  and  N_14
REMARK                            x       y       z     vdW  Elec       q    Type
REMARK                         _______ _______ _______ _____ _____    ______ ____
ROOT
ATOM      1  N   UNL     1       2.169   5.961  19.938  0.00  0.00    +0.000 N 
ATOM      2  C   UNL     1       1.906   5.662  18.611  0.00  0.00    +0.000 A 
ATOM      3  C   UNL     1       2.966   6.407  18.244  0.00  0.00    +0.000 A 
ATOM      4  C   UNL     1       2.345   7.575  18.548  0.00  0.00    +0.000 A 
ATOM      5  C   UNL     1       2.419   8.658  17.626  0.00  0.00    +0.000 A 
ATOM      6  C   UNL     1       1.928   9.884  17.863  0.00  0.00    +0.000 A 
ATOM      7  C   UNL     1       1.418   9.975  19.117  0.00  0.00    +0.000 A 
ATOM      8  C   UNL     1       1.416   8.829  20.080  0.00  0.00    +0.000 A 
ATOM      9  C   UNL     1       1.791   7.390  20.048  0.00  0.00    +0.000 A 
ENDROOT
BRANCH   1  11
ATOM     10  O   UNL     1       0.424   4.035  20.489  0.00  0.00    +0.000 OA
ATOM     11  S   UNL     1       1.859   4.241  20.624  0.00  0.00    +0.000 S 
ATOM     12  O   UNL     1       2.450   4.230  21.961  0.00  0.00    +0.000 OA
BRANCH  11  13
ATOM     13  C   UNL     1       2.594   2.909  19.820  0.00  0.00    +0.000 A 
ATOM     14  C   UNL     1       3.815   2.429  20.225  0.00  0.00    +0.000 A 
ATOM     15  C   UNL     1       4.555   1.706  19.307  0.00  0.00    +0.000 A 
ATOM     16  C   UNL     1       4.021   1.436  18.042  0.00  0.00    +0.000 A 
ATOM     17  C   UNL     1       2.696   1.764  17.728  0.00  0.00    +0.000 A 
ATOM     18  C   UNL     1       1.950   2.470  18.649  0.00  0.00    +0.000 A 
ENDBRANCH  11  13
ENDBRANCH   1  11
BRANCH   3  19
ATOM     19  C   UNL     1       4.423   6.377  18.254  0.00  0.00    +0.000 C 
BRANCH  19  20
ATOM     20  N   UNL     1       4.899   5.041  17.970  0.00  0.00    +0.000 NA
ATOM     21  C   UNL     1       4.860   4.800  16.510  0.00  0.00    +0.000 C 
ATOM     22  C   UNL     1       5.728   5.803  15.721  0.00  0.00    +0.000 C 
ATOM     23  N   UNL     1       7.117   5.864  16.213  0.00  0.00    +0.000 NA
ATOM     24  C   UNL     1       7.187   5.996  17.680  0.00  0.00    +0.000 C 
ATOM     25  C   UNL     1       6.301   4.966  18.416  0.00  0.00    +0.000 C 
ATOM     26  H   UNL     1       7.591   6.652  15.779  0.00  0.00    +0.000 HD
ENDBRANCH  19  20
ENDBRANCH   3  19
TORSDOF 4
ENDMDL
MODEL 7
REMARK VINA RESULT:      -7.8      0.857      1.442
REMARK  Name = 
REMARK  4 active torsions:
REMARK  status: ('A' for Active; 'I' for Inactive)
REMARK    1  A    between atoms: S_2  and  C_4
REMARK    2  A    between atoms: S_2  and  N_10
REMARK    3  A    between atoms: C_12  and  C_13
REMARK    4  A    between atoms: C_13  and  N_14
REMARK                            x       y       z     vdW  Elec       q    Type
REMARK                         _______ _______ _______ _____ _____    ______ ____
ROOT
ATOM      1  N   UNL     1       4.965   6.311  17.508  0.00  0.00    +0.000 N 
ATOM      2  C   UNL     1       5.251   6.155  18.856  0.00  0.00    +0.000 A 
ATOM      3  C   UNL     1       4.048   5.573  19.032  0.00  0.00    +0.000 A 
ATOM      4  C   UNL     1       3.377   6.742  18.873  0.00  0.00    +0.000 A 
ATOM      5  C   UNL     1       2.335   7.069  19.786  0.00  0.00    +0.000 A 
ATOM      6  C   UNL     1       1.543   8.147  19.669  0.00  0.00    +0.000 A 
ATOM      7  C   UNL     1       1.818   8.839  18.535  0.00  0.00    +0.000 A 
ATOM      8  C   UNL     1       2.882   8.425  17.567  0.00  0.00    +0.000 A 
ATOM      9  C   UNL     1       3.932   7.373  17.500  0.00  0.00    +0.000 A 
ENDROOT
BRANCH   1  11
ATOM     10  O   UNL     1       7.213   4.946  17.884  0.00  0.00    +0.000 OA
ATOM     11  S   UNL     1       6.657   5.819  16.859  0.00  0.00    +0.000 S 
ATOM     12  O   UNL     1       7.346   7.069  16.548  0.00  0.00    +0.000 OA
BRANCH  11  13
ATOM     13  C   UNL     1       6.726   4.916  15.396  0.00  0.00    +0.000 A 
ATOM     14  C   UNL     1       7.658   5.209  14.431  0.00  0.00    +0.000 A 
ATOM     15  C   UNL     1       7.391   4.798  13.138  0.00  0.00    +0.000 A 
ATOM     16  C   UNL     1       6.236   4.055  12.869  0.00  0.00    +0.000 A 
ATOM     17  C   UNL     1       5.410   3.599  13.903  0.00  0.00    +0.000 A 
ATOM     18  C   UNL     1       5.683   3.993  15.196  0.00  0.00    +0.000 A 
ENDBRANCH  11  13
ENDBRANCH   1  11
BRANCH   3  19
ATOM     19  C   UNL     1       3.346   4.329  18.748  0.00  0.00    +0.000 C 
BRANCH  19  20
ATOM     20  N   UNL     1       3.253   3.520  19.943  0.00  0.00    +0.000 NA
ATOM     21  C   UNL     1       1.834   3.372  20.334  0.00  0.00    +0.000 C 
ATOM     22  C   UNL     1       0.982   2.708  19.231  0.00  0.00    +0.000 C 
ATOM     23  N   UNL     1       1.545   1.423  18.774  0.00  0.00    +0.000 NA
ATOM     24  C   UNL     1       2.987   1.515  18.480  0.00  0.00    +0.000 C 
ATOM     25  C   UNL     1       3.787   2.187  19.619  0.00  0.00    +0.000 C 
ATOM     26  H   UNL     1       1.049   1.118  17.941  0.00  0.00    +0.000 HD
ENDBRANCH  19  20
ENDBRANCH   3  19
TORSDOF 4
ENDMDL
MODEL 8
REMARK VINA RESULT:      -7.7      0.866      1.301
REMARK  Name = 
REMARK  4 active torsions:
REMARK  status: ('A' for Active; 'I' for Inactive)
REMARK    1  A    between atoms: S_2  and  C_4
REMARK    2  A    between atoms: S_2  and  N_10
REMARK    3  A    between atoms: C_12  and  C_13
REMARK    4  A    between atoms: C_13  and  N_14
REMARK                            x       y       z     vdW  Elec       q    Type
REMARK                         _______ _______ _______ _____ _____    ______ ____
ROOT
ATOM      1  N   UNL     1       4.921   5.988  17.303  0.00  0.00    +0.000 N 
ATOM      2  C   UNL     1       5.459   6.050  18.579  0.00  0.00    +0.000 A 
ATOM      3  C   UNL     1       4.341   5.479  19.067  0.00  0.00    +0.000 A 
ATOM      4  C   UNL     1       3.594   6.595  18.865  0.00  0.00    +0.000 A 
ATOM      5  C   UNL     1       2.725   7.041  19.901  0.00  0.00    +0.000 A 
ATOM      6  C   UNL     1       1.872   8.071  19.777  0.00  0.00    +0.000 A 
ATOM      7  C   UNL     1       1.898   8.581  18.520  0.00  0.00    +0.000 A 
ATOM      8  C   UNL     1       2.783   8.043  17.440  0.00  0.00    +0.000 A 
ATOM      9  C   UNL     1       3.853   7.014  17.333  0.00  0.00    +0.000 A 
ENDROOT
BRANCH   1  11
ATOM     10  O   UNL     1       6.876   4.201  17.094  0.00  0.00    +0.000 OA
ATOM     11  S   UNL     1       6.485   5.434  16.424  0.00  0.00    +0.000 S 
ATOM     12  O   UNL     1       7.394   6.577  16.466  0.00  0.00    +0.000 OA
BRANCH  11  13
ATOM     13  C   UNL     1       6.372   5.035  14.754  0.00  0.00    +0.000 A 
ATOM     14  C   UNL     1       5.347   4.252  14.285  0.00  0.00    +0.000 A 
ATOM     15  C   UNL     1       5.542   3.594  13.085  0.00  0.00    +0.000 A 
ATOM     16  C   UNL     1       6.728   3.790  12.369  0.00  0.00    +0.000 A 
ATOM     17  C   UNL     1       7.668   4.747  12.771  0.00  0.00    +0.000 A 
ATOM     18  C   UNL     1       7.467   5.419  13.959  0.00  0.00    +0.000 A 
ENDBRANCH  11  13
ENDBRANCH   1  11
BRANCH   3  19
ATOM     19  C   UNL     1       3.660   4.192  19.113  0.00  0.00    +0.000 C 
BRANCH  19  20
ATOM     20  N   UNL     1       2.444   4.238  18.332  0.00  0.00    +0.000 NA
ATOM     21  C   UNL     1       2.525   3.255  17.228  0.00  0.00    +0.000 C 
ATOM     22  C   UNL     1       2.721   1.811  17.735  0.00  0.00    +0.000 C 
ATOM     23  N   UNL     1       1.706   1.414  18.729  0.00  0.00    +0.000 NA
ATOM     24  C   UNL     1       1.527   2.428  19.784  0.00  0.00    +0.000 C 
ATOM     25  C   UNL     1       1.333   3.852  19.217  0.00  0.00    +0.000 C 
ATOM     26  H   UNL     1       1.979   0.531  19.151  0.00  0.00    +0.000 HD
ENDBRANCH  19  20
ENDBRANCH   3  19
TORSDOF 4
ENDMDL
MODEL 9
REMARK VINA RESULT:      -7.6      0.974      1.689
REMARK  Name = 
REMARK  4 active torsions:
REMARK  status: ('A' for Active; 'I' for Inactive)
REMARK    1  A    between atoms: S_2  and  C_4
REMARK    2  A    between atoms: S_2  and  N_10
REMARK    3  A    between atoms: C_12  and  C_13
REMARK    4  A    between atoms: C_13  and  N_14
REMARK                            x       y       z     vdW  Elec       q    Type
REMARK                         _______ _______ _______ _____ _____    ______ ____
ROOT
ATOM      1  N   UNL     1       5.154   5.983  17.548  0.00  0.00    +0.000 N 
ATOM      2  C   UNL     1       5.531   6.059  18.880  0.00  0.00    +0.000 A 
ATOM      3  C   UNL     1       4.367   5.476  19.230  0.00  0.00    +0.000 A 
ATOM      4  C   UNL     1       3.638   6.581  18.931  0.00  0.00    +0.000 A 
ATOM      5  C   UNL     1       2.642   7.020  19.850  0.00  0.00    +0.000 A 
ATOM      6  C   UNL     1       1.799   8.038  19.615  0.00  0.00    +0.000 A 
ATOM      7  C   UNL     1       1.972   8.543  18.368  0.00  0.00    +0.000 A 
ATOM      8  C   UNL     1       2.990   8.010  17.408  0.00  0.00    +0.000 A 
ATOM      9  C   UNL     1       4.078   6.996  17.440  0.00  0.00    +0.000 A 
ENDROOT
BRANCH   1  11
ATOM     10  O   UNL     1       7.293   4.428  17.801  0.00  0.00    +0.000 OA
ATOM     11  S   UNL     1       6.821   5.445  16.871  0.00  0.00    +0.000 S 
ATOM     12  O   UNL     1       7.602   6.669  16.710  0.00  0.00    +0.000 OA
BRANCH  11  13
ATOM     13  C   UNL     1       6.859   4.704  15.319  0.00  0.00    +0.000 A 
ATOM     14  C   UNL     1       7.784   5.087  14.378  0.00  0.00    +0.000 A 
ATOM     15  C   UNL     1       7.496   4.822  13.052  0.00  0.00    +0.000 A 
ATOM     16  C   UNL     1       6.326   4.130  12.720  0.00  0.00    +0.000 A 
ATOM     17  C   UNL     1       5.503   3.577  13.710  0.00  0.00    +0.000 A 
ATOM     18  C   UNL     1       5.798   3.825  15.034  0.00  0.00    +0.000 A 
ENDBRANCH  11  13
ENDBRANCH   1  11
BRANCH   3  19
ATOM     19  C   UNL     1       3.703   4.180  19.200  0.00  0.00    +0.000 C 
BRANCH  19  20
ATOM     20  N   UNL     1       2.477   4.261  18.438  0.00  0.00    +0.000 NA
ATOM     21  C   UNL     1       2.531   3.309  17.307  0.00  0.00    +0.000 C 
ATOM     22  C   UNL     1       2.718   1.848  17.771  0.00  0.00    +0.000 C 
ATOM     23  N   UNL     1       1.712   1.435  18.767  0.00  0.00    +0.000 NA
ATOM     24  C   UNL     1       1.559   2.421  19.852  0.00  0.00    +0.000 C 
ATOM     25  C   UNL     1       1.373   3.863  19.328  0.00  0.00    +0.000 C 
ATOM     26  H   UNL     1       1.980   0.538  19.160  0.00  0.00    +0.000 HD
ENDBRANCH  19  20
ENDBRANCH   3  19
TORSDOF 4
ENDMDL
