MODEL 1
REMARK VINA RESULT:      -6.9      0.000      0.000
REMARK  Name = 
REMARK  4 active torsions:
REMARK  status: ('A' for Active; 'I' for Inactive)
REMARK    1  A    between atoms: C_1  and  C_2
REMARK    2  A    between atoms: C_2  and  C_3
REMARK    3  A    between atoms: C_3  and  C_4
REMARK    4  A    between atoms: C_4  and  N_5
REMARK                            x       y       z     vdW  Elec       q    Type
REMARK                         _______ _______ _______ _____ _____    ______ ____
ROOT
ATOM      1  N   UNL     1       3.398   4.031  17.991  0.00  0.00    +0.000 N 
ATOM      2  C   UNL     1       2.109   3.585  17.869  0.00  0.00    +0.000 C 
ATOM      3  O   UNL     1       1.258   3.986  17.089  0.00  0.00    +0.000 OA
ATOM      4  C   UNL     1       1.856   2.554  18.928  0.00  0.00    +0.000 C 
ATOM      5  C   UNL     1       0.887   2.991  20.025  0.00  0.00    +0.000 C 
ATOM      6  C   UNL     1       1.099   4.432  20.501  0.00  0.00    +0.000 C 
ATOM      7  C   UNL     1       2.425   4.331  21.257  0.00  0.00    +0.000 C 
ATOM      8  C   UNL     1       2.770   2.846  21.105  0.00  0.00    +0.000 C 
ATOM      9  O   UNL     1       1.438   2.267  21.159  0.00  0.00    +0.000 OA
ATOM     10  C   UNL     1       3.178   2.450  19.689  0.00  0.00    +0.000 C 
ATOM     11  C   UNL     1       4.081   3.437  19.020  0.00  0.00    +0.000 C 
ATOM     12  O   UNL     1       5.210   3.700  19.401  0.00  0.00    +0.000 OA
ENDROOT
BRANCH   1  13
ATOM     13  C   UNL     1       3.908   5.179  17.262  0.00  0.00    +0.000 C 
BRANCH  13  14
ATOM     14  C   UNL     1       3.931   6.470  18.076  0.00  0.00    +0.000 C 
BRANCH  14  16
ATOM     15  C   UNL     1       2.465   8.478  17.722  0.00  0.00    +0.000 C 
ATOM     16  C   UNL     1       2.537   7.062  18.272  0.00  0.00    +0.000 C 
ENDBRANCH  14  16
ENDBRANCH  13  14
ENDBRANCH   1  13
TORSDOF 3
ENDMDL
MODEL 2
REMARK VINA RESULT:      -6.9      1.412      2.152
REMARK  Name = 
REMARK  4 active torsions:
REMARK  status: ('A' for Active; 'I' for Inactive)
REMARK    1  A    between atoms: C_1  and  C_2
REMARK    2  A    between atoms: C_2  and  C_3
REMARK    3  A    between atoms: C_3  and  C_4
REMARK    4  A    between atoms: C_4  and  N_5
REMARK                            x       y       z     vdW  Elec       q    Type
REMARK                         _______ _______ _______ _____ _____    ______ ____
ROOT
ATOM      1  N   UNL     1       3.494   3.703  18.111  0.00  0.00    +0.000 N 
ATOM      2  C   UNL     1       2.158   3.438  17.959  0.00  0.00    +0.000 C 
ATOM      3  O   UNL     1       1.408   3.890  17.107  0.00  0.00    +0.000 OA
ATOM      4  C   UNL     1       1.714   2.548  19.081  0.00  0.00    +0.000 C 
ATOM      5  C   UNL     1       0.778   3.213  20.088  0.00  0.00    +0.000 C 
ATOM      6  C   UNL     1       1.181   4.643  20.460  0.00  0.00    +0.000 C 
ATOM      7  C   UNL     1       2.447   4.417  21.289  0.00  0.00    +0.000 C 
ATOM      8  C   UNL     1       2.574   2.890  21.273  0.00  0.00    +0.000 C 
ATOM      9  O   UNL     1       1.170   2.516  21.303  0.00  0.00    +0.000 OA
ATOM     10  C   UNL     1       2.975   2.321  19.915  0.00  0.00    +0.000 C 
ATOM     11  C   UNL     1       4.040   3.106  19.218  0.00  0.00    +0.000 C 
ATOM     12  O   UNL     1       5.179   3.235  19.635  0.00  0.00    +0.000 OA
ENDROOT
BRANCH   1  13
ATOM     13  C   UNL     1       4.196   4.699  17.322  0.00  0.00    +0.000 C 
BRANCH  13  14
ATOM     14  C   UNL     1       4.949   4.124  16.125  0.00  0.00    +0.000 C 
BRANCH  14  16
ATOM     15  C   UNL     1       7.187   4.639  17.139  0.00  0.00    +0.000 C 
ATOM     16  C   UNL     1       6.305   4.792  15.911  0.00  0.00    +0.000 C 
ENDBRANCH  14  16
ENDBRANCH  13  14
ENDBRANCH   1  13
TORSDOF 3
ENDMDL
MODEL 3
REMARK VINA RESULT:      -6.8      2.077      2.608
REMARK  Name = 
REMARK  4 active torsions:
REMARK  status: ('A' for Active; 'I' for Inactive)
REMARK    1  A    between atoms: C_1  and  C_2
REMARK    2  A    between atoms: C_2  and  C_3
REMARK    3  A    between atoms: C_3  and  C_4
REMARK    4  A    between atoms: C_4  and  N_5
REMARK                            x       y       z     vdW  Elec       q    Type
REMARK                         _______ _______ _______ _____ _____    ______ ____
ROOT
ATOM      1  N   UNL     1       4.625   4.043  18.755  0.00  0.00    +0.000 N 
ATOM      2  C   UNL     1       3.666   4.456  17.868  0.00  0.00    +0.000 C 
ATOM      3  O   UNL     1       3.597   5.540  17.307  0.00  0.00    +0.000 OA
ATOM      4  C   UNL     1       2.629   3.381  17.745  0.00  0.00    +0.000 C 
ATOM      5  C   UNL     1       1.269   3.737  18.342  0.00  0.00    +0.000 C 
ATOM      6  C   UNL     1       1.353   4.464  19.688  0.00  0.00    +0.000 C 
ATOM      7  C   UNL     1       1.842   3.357  20.624  0.00  0.00    +0.000 C 
ATOM      8  C   UNL     1       1.958   2.160  19.674  0.00  0.00    +0.000 C 
ATOM      9  O   UNL     1       0.833   2.424  18.792  0.00  0.00    +0.000 OA
ATOM     10  C   UNL     1       3.111   2.272  18.681  0.00  0.00    +0.000 C 
ATOM     11  C   UNL     1       4.377   2.800  19.278  0.00  0.00    +0.000 C 
ATOM     12  O   UNL     1       5.018   2.225  20.142  0.00  0.00    +0.000 OA
ENDROOT
BRANCH   1  13
ATOM     13  C   UNL     1       5.660   4.923  19.265  0.00  0.00    +0.000 C 
BRANCH  13  14
ATOM     14  C   UNL     1       6.875   5.049  18.349  0.00  0.00    +0.000 C 
BRANCH  14  16
ATOM     15  C   UNL     1       7.601   7.338  17.615  0.00  0.00    +0.000 C 
ATOM     16  C   UNL     1       7.736   6.265  18.683  0.00  0.00    +0.000 C 
ENDBRANCH  14  16
ENDBRANCH  13  14
ENDBRANCH   1  13
TORSDOF 3
ENDMDL
MODEL 4
REMARK VINA RESULT:      -6.8      2.452      5.230
REMARK  Name = 
REMARK  4 active torsions:
REMARK  status: ('A' for Active; 'I' for Inactive)
REMARK    1  A    between atoms: C_1  and  C_2
REMARK    2  A    between atoms: C_2  and  C_3
REMARK    3  A    between atoms: C_3  and  C_4
REMARK    4  A    between atoms: C_4  and  N_5
REMARK                            x       y       z     vdW  Elec       q    Type
REMARK                         _______ _______ _______ _____ _____    ______ ____
ROOT
ATOM      1  N   UNL     1       4.900   4.260  18.574  0.00  0.00    +0.000 N 
ATOM      2  C   UNL     1       6.169   4.719  18.809  0.00  0.00    +0.000 C 
ATOM      3  O   UNL     1       6.621   5.134  19.866  0.00  0.00    +0.000 OA
ATOM      4  C   UNL     1       6.927   4.719  17.516  0.00  0.00    +0.000 C 
ATOM      5  C   UNL     1       7.252   6.107  16.968  0.00  0.00    +0.000 C 
ATOM      6  C   UNL     1       6.099   7.109  17.093  0.00  0.00    +0.000 C 
ATOM      7  C   UNL     1       5.098   6.578  16.066  0.00  0.00    +0.000 C 
ATOM      8  C   UNL     1       5.830   5.356  15.503  0.00  0.00    +0.000 C 
ATOM      9  O   UNL     1       7.200   5.839  15.539  0.00  0.00    +0.000 OA
ATOM     10  C   UNL     1       5.930   4.192  16.484  0.00  0.00    +0.000 C 
ATOM     11  C   UNL     1       4.675   3.943  17.259  0.00  0.00    +0.000 C 
ATOM     12  O   UNL     1       3.620   3.589  16.759  0.00  0.00    +0.000 OA
ENDROOT
BRANCH   1  13
ATOM     13  C   UNL     1       3.840   4.328  19.564  0.00  0.00    +0.000 C 
BRANCH  13  14
ATOM     14  C   UNL     1       3.115   5.671  19.603  0.00  0.00    +0.000 C 
BRANCH  14  16
ATOM     15  C   UNL     1       1.350   4.202  20.618  0.00  0.00    +0.000 C 
ATOM     16  C   UNL     1       1.851   5.628  20.460  0.00  0.00    +0.000 C 
ENDBRANCH  14  16
ENDBRANCH  13  14
ENDBRANCH   1  13
TORSDOF 3
ENDMDL
MODEL 5
REMARK VINA RESULT:      -6.7      3.445      5.436
REMARK  Name = 
REMARK  4 active torsions:
REMARK  status: ('A' for Active; 'I' for Inactive)
REMARK    1  A    between atoms: C_1  and  C_2
REMARK    2  A    between atoms: C_2  and  C_3
REMARK    3  A    between atoms: C_3  and  C_4
REMARK    4  A    between atoms: C_4  and  N_5
REMARK                            x       y       z     vdW  Elec       q    Type
REMARK                         _______ _______ _______ _____ _____    ______ ____
ROOT
ATOM      1  N   UNL     1       6.693   5.477  15.974  0.00  0.00    +0.000 N 
ATOM      2  C   UNL     1       7.193   5.017  17.164  0.00  0.00    +0.000 C 
ATOM      3  O   UNL     1       8.061   4.171  17.324  0.00  0.00    +0.000 OA
ATOM      4  C   UNL     1       6.435   5.662  18.285  0.00  0.00    +0.000 C 
ATOM      5  C   UNL     1       5.532   4.714  19.072  0.00  0.00    +0.000 C 
ATOM      6  C   UNL     1       4.758   3.724  18.195  0.00  0.00    +0.000 C 
ATOM      7  C   UNL     1       3.747   4.633  17.495  0.00  0.00    +0.000 C 
ATOM      8  C   UNL     1       4.089   6.006  18.081  0.00  0.00    +0.000 C 
ATOM      9  O   UNL     1       4.456   5.623  19.434  0.00  0.00    +0.000 OA
ATOM     10  C   UNL     1       5.420   6.571  17.591  0.00  0.00    +0.000 C 
ATOM     11  C   UNL     1       5.663   6.368  16.130  0.00  0.00    +0.000 C 
ATOM     12  O   UNL     1       4.987   6.871  15.247  0.00  0.00    +0.000 OA
ENDROOT
BRANCH   1  13
ATOM     13  C   UNL     1       7.055   4.902  14.691  0.00  0.00    +0.000 C 
BRANCH  13  14
ATOM     14  C   UNL     1       6.212   3.693  14.293  0.00  0.00    +0.000 C 
BRANCH  14  16
ATOM     15  C   UNL     1       7.063   3.841  11.936  0.00  0.00    +0.000 C 
ATOM     16  C   UNL     1       5.830   3.707  12.815  0.00  0.00    +0.000 C 
ENDBRANCH  14  16
ENDBRANCH  13  14
ENDBRANCH   1  13
TORSDOF 3
ENDMDL
MODEL 6
REMARK VINA RESULT:      -6.7      0.974      1.311
REMARK  Name = 
REMARK  4 active torsions:
REMARK  status: ('A' for Active; 'I' for Inactive)
REMARK    1  A    between atoms: C_1  and  C_2
REMARK    2  A    between atoms: C_2  and  C_3
REMARK    3  A    between atoms: C_3  and  C_4
REMARK    4  A    between atoms: C_4  and  N_5
REMARK                            x       y       z     vdW  Elec       q    Type
REMARK                         _______ _______ _______ _____ _____    ______ ____
ROOT
ATOM      1  N   UNL     1       3.327   3.567  18.114  0.00  0.00    +0.000 N 
ATOM      2  C   UNL     1       1.977   3.343  18.054  0.00  0.00    +0.000 C 
ATOM      3  O   UNL     1       1.191   3.777  17.225  0.00  0.00    +0.000 OA
ATOM      4  C   UNL     1       1.573   2.528  19.246  0.00  0.00    +0.000 C 
ATOM      5  C   UNL     1       0.721   3.275  20.270  0.00  0.00    +0.000 C 
ATOM      6  C   UNL     1       1.193   4.708  20.541  0.00  0.00    +0.000 C 
ATOM      7  C   UNL     1       2.498   4.479  21.305  0.00  0.00    +0.000 C 
ATOM      8  C   UNL     1       2.574   2.951  21.362  0.00  0.00    +0.000 C 
ATOM      9  O   UNL     1       1.163   2.628  21.495  0.00  0.00    +0.000 OA
ATOM     10  C   UNL     1       2.874   2.298  20.015  0.00  0.00    +0.000 C 
ATOM     11  C   UNL     1       3.919   3.009  19.216  0.00  0.00    +0.000 C 
ATOM     12  O   UNL     1       5.086   3.118  19.559  0.00  0.00    +0.000 OA
ENDROOT
BRANCH   1  13
ATOM     13  C   UNL     1       4.012   4.495  17.233  0.00  0.00    +0.000 C 
BRANCH  13  14
ATOM     14  C   UNL     1       3.940   5.951  17.688  0.00  0.00    +0.000 C 
BRANCH  14  16
ATOM     15  C   UNL     1       5.311   6.425  15.639  0.00  0.00    +0.000 C 
ATOM     16  C   UNL     1       5.053   6.807  17.088  0.00  0.00    +0.000 C 
ENDBRANCH  14  16
ENDBRANCH  13  14
ENDBRANCH   1  13
TORSDOF 3
ENDMDL
MODEL 7
REMARK VINA RESULT:      -6.7      1.548      4.351
REMARK  Name = 
REMARK  4 active torsions:
REMARK  status: ('A' for Active; 'I' for Inactive)
REMARK    1  A    between atoms: C_1  and  C_2
REMARK    2  A    between atoms: C_2  and  C_3
REMARK    3  A    between atoms: C_3  and  C_4
REMARK    4  A    between atoms: C_4  and  N_5
REMARK                            x       y       z     vdW  Elec       q    Type
REMARK                         _______ _______ _______ _____ _____    ______ ____
ROOT
ATOM      1  N   UNL     1       3.253   2.615  18.455  0.00  0.00    +0.000 N 
ATOM      2  C   UNL     1       4.396   2.903  19.153  0.00  0.00    +0.000 C 
ATOM      3  O   UNL     1       4.724   2.467  20.247  0.00  0.00    +0.000 OA
ATOM      4  C   UNL     1       5.177   3.932  18.393  0.00  0.00    +0.000 C 
ATOM      5  C   UNL     1       5.232   5.307  19.055  0.00  0.00    +0.000 C 
ATOM      6  C   UNL     1       3.899   5.759  19.659  0.00  0.00    +0.000 C 
ATOM      7  C   UNL     1       3.055   6.030  18.412  0.00  0.00    +0.000 C 
ATOM      8  C   UNL     1       4.035   5.699  17.282  0.00  0.00    +0.000 C 
ATOM      9  O   UNL     1       5.278   6.159  17.877  0.00  0.00    +0.000 OA
ATOM     10  C   UNL     1       4.337   4.210  17.146  0.00  0.00    +0.000 C 
ATOM     11  C   UNL     1       3.135   3.331  17.293  0.00  0.00    +0.000 C 
ATOM     12  O   UNL     1       2.188   3.333  16.523  0.00  0.00    +0.000 OA
ENDROOT
BRANCH   1  13
ATOM     13  C   UNL     1       2.172   1.818  19.006  0.00  0.00    +0.000 C 
BRANCH  13  14
ATOM     14  C   UNL     1       0.890   2.606  19.264  0.00  0.00    +0.000 C 
BRANCH  14  16
ATOM     15  C   UNL     1       1.542   2.782  21.683  0.00  0.00    +0.000 C 
ATOM     16  C   UNL     1       1.006   3.531  20.473  0.00  0.00    +0.000 C 
ENDBRANCH  14  16
ENDBRANCH  13  14
ENDBRANCH   1  13
TORSDOF 3
ENDMDL
MODEL 8
REMARK VINA RESULT:      -6.7      2.480      5.054
REMARK  Name = 
REMARK  4 active torsions:
REMARK  status: ('A' for Active; 'I' for Inactive)
REMARK    1  A    between atoms: C_1  and  C_2
REMARK    2  A    between atoms: C_2  and  C_3
REMARK    3  A    between atoms: C_3  and  C_4
REMARK    4  A    between atoms: C_4  and  N_5
REMARK                            x       y       z     vdW  Elec       q    Type
REMARK                         _______ _______ _______ _____ _____    ______ ____
ROOT
ATOM      1  N   UNL     1       4.894   4.303  18.529  0.00  0.00    +0.000 N 
ATOM      2  C   UNL     1       6.148   4.782  18.803  0.00  0.00    +0.000 C 
ATOM      3  O   UNL     1       6.549   5.243  19.862  0.00  0.00    +0.000 OA
ATOM      4  C   UNL     1       6.965   4.735  17.547  0.00  0.00    +0.000 C 
ATOM      5  C   UNL     1       7.307   6.102  16.958  0.00  0.00    +0.000 C 
ATOM      6  C   UNL     1       6.144   7.099  16.988  0.00  0.00    +0.000 C 
ATOM      7  C   UNL     1       5.193   6.519  15.940  0.00  0.00    +0.000 C 
ATOM      8  C   UNL     1       5.958   5.281  15.461  0.00  0.00    +0.000 C 
ATOM      9  O   UNL     1       7.322   5.776  15.540  0.00  0.00    +0.000 OA
ATOM     10  C   UNL     1       6.019   4.158  16.493  0.00  0.00    +0.000 C 
ATOM     11  C   UNL     1       4.732   3.932  17.220  0.00  0.00    +0.000 C 
ATOM     12  O   UNL     1       3.703   3.550  16.687  0.00  0.00    +0.000 OA
ENDROOT
BRANCH   1  13
ATOM     13  C   UNL     1       3.789   4.404  19.466  0.00  0.00    +0.000 C 
BRANCH  13  14
ATOM     14  C   UNL     1       3.228   5.817  19.613  0.00  0.00    +0.000 C 
BRANCH  14  16
ATOM     15  C   UNL     1       2.473   7.732  18.175  0.00  0.00    +0.000 C 
ATOM     16  C   UNL     1       2.375   6.234  18.416  0.00  0.00    +0.000 C 
ENDBRANCH  14  16
ENDBRANCH  13  14
ENDBRANCH   1  13
TORSDOF 3
ENDMDL
MODEL 9
REMARK VINA RESULT:      -6.7      2.185      4.958
REMARK  Name = 
REMARK  4 active torsions:
REMARK  status: ('A' for Active; 'I' for Inactive)
REMARK    1  A    between atoms: C_1  and  C_2
REMARK    2  A    between atoms: C_2  and  C_3
REMARK    3  A    between atoms: C_3  and  C_4
REMARK    4  A    between atoms: C_4  and  N_5
REMARK                            x       y       z     vdW  Elec       q    Type
REMARK                         _______ _______ _______ _____ _____    ______ ____
ROOT
ATOM      1  N   UNL     1       4.528   4.068  18.671  0.00  0.00    +0.000 N 
ATOM      2  C   UNL     1       3.890   4.320  17.485  0.00  0.00    +0.000 C 
ATOM      3  O   UNL     1       3.027   3.638  16.950  0.00  0.00    +0.000 OA
ATOM      4  C   UNL     1       4.483   5.553  16.872  0.00  0.00    +0.000 C 
ATOM      5  C   UNL     1       5.297   5.305  15.604  0.00  0.00    +0.000 C 
ATOM      6  C   UNL     1       6.199   4.069  15.678  0.00  0.00    +0.000 C 
ATOM      7  C   UNL     1       7.271   4.510  16.675  0.00  0.00    +0.000 C 
ATOM      8  C   UNL     1       6.827   5.935  17.018  0.00  0.00    +0.000 C 
ATOM      9  O   UNL     1       6.297   6.354  15.731  0.00  0.00    +0.000 OA
ATOM     10  C   UNL     1       5.558   5.997  17.864  0.00  0.00    +0.000 C 
ATOM     11  C   UNL     1       5.509   4.980  18.959  0.00  0.00    +0.000 C 
ATOM     12  O   UNL     1       6.283   4.954  19.903  0.00  0.00    +0.000 OA
ENDROOT
BRANCH   1  13
ATOM     13  C   UNL     1       4.347   2.837  19.419  0.00  0.00    +0.000 C 
BRANCH  13  14
ATOM     14  C   UNL     1       3.304   2.934  20.530  0.00  0.00    +0.000 C 
BRANCH  14  16
ATOM     15  C   UNL     1       0.941   3.683  20.133  0.00  0.00    +0.000 C 
ATOM     16  C   UNL     1       1.912   2.515  20.063  0.00  0.00    +0.000 C 
ENDBRANCH  14  16
ENDBRANCH  13  14
ENDBRANCH   1  13
TORSDOF 3
ENDMDL
