MODEL 1
REMARK VINA RESULT:      -8.0      0.000      0.000
REMARK  Name = 
REMARK  7 active torsions:
REMARK  status: ('A' for Active; 'I' for Inactive)
REMARK    1  A    between atoms: S_2  and  O_4
REMARK    2  A    between atoms: S_2  and  C_5
REMARK    3  A    between atoms: C_9  and  N_10
REMARK    4  A    between atoms: N_11  and  C_12
REMARK    5  A    between atoms: C_18  and  O_19
REMARK    6  A    between atoms: C_20  and  S_21
REMARK    7  A    between atoms: S_21  and  O_24
REMARK                            x       y       z     vdW  Elec       q    Type
REMARK                         _______ _______ _______ _____ _____    ______ ____
ROOT
ATOM      1  C   UNL     1       1.758   8.745  19.141  0.00  0.00    +0.000 A 
ATOM      2  C   UNL     1       2.433   8.790  17.923  0.00  0.00    +0.000 A 
ATOM      3  C   UNL     1       3.114   7.651  17.472  0.00  0.00    +0.000 A 
ATOM      4  C   UNL     1       3.128   6.446  18.215  0.00  0.00    +0.000 A 
ATOM      5  C   UNL     1       3.856   5.279  17.824  0.00  0.00    +0.000 A 
ATOM      6  C   UNL     1       3.795   4.127  18.648  0.00  0.00    +0.000 A 
ATOM      7  C   UNL     1       3.028   4.123  19.809  0.00  0.00    +0.000 A 
ATOM      8  C   UNL     1       2.327   5.262  20.199  0.00  0.00    +0.000 A 
ATOM      9  C   UNL     1       2.381   6.423  19.426  0.00  0.00    +0.000 A 
ATOM     10  C   UNL     1       1.708   7.566  19.879  0.00  0.00    +0.000 A 
ENDROOT
BRANCH   1  12
ATOM     11  O   UNL     1       1.422  11.339  19.038  0.00  0.00    +0.000 OA
ATOM     12  S   UNL     1       0.946  10.187  19.770  0.00  0.00    +0.000 S 
ATOM     13  O   UNL     1       1.005  10.128  21.214  0.00  0.00    +0.000 OA
BRANCH  12  14
ATOM     14  O   UNL     1      -0.603  10.008  19.361  0.00  0.00    +0.000 OA
ATOM     15  H   UNL     1      -0.892   9.114  19.639  0.00  0.00    +0.000 HD
ENDBRANCH  12  14
ENDBRANCH   1  12
BRANCH   7  16
ATOM     16  S   UNL     1       2.919   2.701  20.859  0.00  0.00    +0.000 S 
ATOM     17  O   UNL     1       1.870   1.871  20.310  0.00  0.00    +0.000 OA
ATOM     18  O   UNL     1       4.268   2.205  21.043  0.00  0.00    +0.000 OA
BRANCH  16  19
ATOM     19  O   UNL     1       2.407   3.250  22.288  0.00  0.00    +0.000 OA
ATOM     20  H   UNL     1       3.092   3.037  22.964  0.00  0.00    +0.000 HD
ENDBRANCH  16  19
ENDBRANCH   7  16
BRANCH   5  21
ATOM     21  N   UNL     1       4.734   5.344  16.700  0.00  0.00    +0.000 NA
ATOM     22  N   UNL     1       4.569   4.406  15.889  0.00  0.00    +0.000 NA
BRANCH  22  23
ATOM     23  C   UNL     1       5.529   4.405  14.847  0.00  0.00    +0.000 A 
ATOM     24  C   UNL     1       5.252   3.663  13.689  0.00  0.00    +0.000 A 
ATOM     25  C   UNL     1       6.136   3.653  12.604  0.00  0.00    +0.000 A 
ATOM     26  C   UNL     1       7.312   4.397  12.660  0.00  0.00    +0.000 A 
ATOM     27  C   UNL     1       7.604   5.142  13.800  0.00  0.00    +0.000 A 
ATOM     28  C   UNL     1       6.717   5.147  14.885  0.00  0.00    +0.000 A 
ENDBRANCH  22  23
ENDBRANCH   5  21
BRANCH   6  29
ATOM     29  O   UNL     1       4.527   3.006  18.329  0.00  0.00    +0.000 OA
ATOM     30  H   UNL     1       3.954   2.485  17.723  0.00  0.00    +0.000 HD
ENDBRANCH   6  29
TORSDOF 7
ENDMDL
MODEL 2
REMARK VINA RESULT:      -7.9      3.135      7.013
REMARK  Name = 
REMARK  7 active torsions:
REMARK  status: ('A' for Active; 'I' for Inactive)
REMARK    1  A    between atoms: S_2  and  O_4
REMARK    2  A    between atoms: S_2  and  C_5
REMARK    3  A    between atoms: C_9  and  N_10
REMARK    4  A    between atoms: N_11  and  C_12
REMARK    5  A    between atoms: C_18  and  O_19
REMARK    6  A    between atoms: C_20  and  S_21
REMARK    7  A    between atoms: S_21  and  O_24
REMARK                            x       y       z     vdW  Elec       q    Type
REMARK                         _______ _______ _______ _____ _____    ______ ____
ROOT
ATOM      1  C   UNL     1       5.603   5.294  16.296  0.00  0.00    +0.000 A 
ATOM      2  C   UNL     1       5.155   6.612  16.284  0.00  0.00    +0.000 A 
ATOM      3  C   UNL     1       4.165   7.010  17.194  0.00  0.00    +0.000 A 
ATOM      4  C   UNL     1       3.611   6.110  18.136  0.00  0.00    +0.000 A 
ATOM      5  C   UNL     1       2.559   6.455  19.041  0.00  0.00    +0.000 A 
ATOM      6  C   UNL     1       2.083   5.470  19.942  0.00  0.00    +0.000 A 
ATOM      7  C   UNL     1       2.638   4.193  19.959  0.00  0.00    +0.000 A 
ATOM      8  C   UNL     1       3.654   3.851  19.070  0.00  0.00    +0.000 A 
ATOM      9  C   UNL     1       4.134   4.787  18.152  0.00  0.00    +0.000 A 
ATOM     10  C   UNL     1       5.117   4.389  17.237  0.00  0.00    +0.000 A 
ENDROOT
BRANCH   1  12
ATOM     11  O   UNL     1       8.025   4.425  15.818  0.00  0.00    +0.000 OA
ATOM     12  S   UNL     1       6.803   4.744  15.116  0.00  0.00    +0.000 S 
ATOM     13  O   UNL     1       6.784   5.673  14.007  0.00  0.00    +0.000 OA
BRANCH  12  14
ATOM     14  O   UNL     1       6.232   3.344  14.557  0.00  0.00    +0.000 OA
ATOM     15  H   UNL     1       6.415   3.300  13.596  0.00  0.00    +0.000 HD
ENDBRANCH  12  14
ENDBRANCH   1  12
BRANCH   7  16
ATOM     16  S   UNL     1       2.077   2.939  21.076  0.00  0.00    +0.000 S 
ATOM     17  O   UNL     1       2.630   1.692  20.597  0.00  0.00    +0.000 OA
ATOM     18  O   UNL     1       2.330   3.421  22.419  0.00  0.00    +0.000 OA
BRANCH  16  19
ATOM     19  O   UNL     1       0.475   2.866  20.884  0.00  0.00    +0.000 OA
ATOM     20  H   UNL     1       0.050   3.254  21.684  0.00  0.00    +0.000 HD
ENDBRANCH  16  19
ENDBRANCH   7  16
BRANCH   5  21
ATOM     21  N   UNL     1       1.920   7.726  18.922  0.00  0.00    +0.000 NA
ATOM     22  N   UNL     1       1.776   8.311  20.019  0.00  0.00    +0.000 NA
BRANCH  22  23
ATOM     23  C   UNL     1       1.026   9.508  19.908  0.00  0.00    +0.000 A 
ATOM     24  C   UNL     1       0.064   9.783  20.893  0.00  0.00    +0.000 A 
ATOM     25  C   UNL     1      -0.681  10.968  20.869  0.00  0.00    +0.000 A 
ATOM     26  C   UNL     1      -0.467  11.902  19.858  0.00  0.00    +0.000 A 
ATOM     27  C   UNL     1       0.485  11.648  18.873  0.00  0.00    +0.000 A 
ATOM     28  C   UNL     1       1.228  10.460  18.900  0.00  0.00    +0.000 A 
ENDBRANCH  22  23
ENDBRANCH   5  21
BRANCH   6  29
ATOM     29  O   UNL     1       1.035   5.752  20.789  0.00  0.00    +0.000 OA
ATOM     30  H   UNL     1       1.452   6.077  21.618  0.00  0.00    +0.000 HD
ENDBRANCH   6  29
TORSDOF 7
ENDMDL
MODEL 3
REMARK VINA RESULT:      -7.9      0.270      1.171
REMARK  Name = 
REMARK  7 active torsions:
REMARK  status: ('A' for Active; 'I' for Inactive)
REMARK    1  A    between atoms: S_2  and  O_4
REMARK    2  A    between atoms: S_2  and  C_5
REMARK    3  A    between atoms: C_9  and  N_10
REMARK    4  A    between atoms: N_11  and  C_12
REMARK    5  A    between atoms: C_18  and  O_19
REMARK    6  A    between atoms: C_20  and  S_21
REMARK    7  A    between atoms: S_21  and  O_24
REMARK                            x       y       z     vdW  Elec       q    Type
REMARK                         _______ _______ _______ _____ _____    ______ ____
ROOT
ATOM      1  C   UNL     1       1.643   8.805  19.395  0.00  0.00    +0.000 A 
ATOM      2  C   UNL     1       2.328   8.866  18.184  0.00  0.00    +0.000 A 
ATOM      3  C   UNL     1       3.007   7.730  17.719  0.00  0.00    +0.000 A 
ATOM      4  C   UNL     1       3.009   6.513  18.443  0.00  0.00    +0.000 A 
ATOM      5  C   UNL     1       3.734   5.349  18.039  0.00  0.00    +0.000 A 
ATOM      6  C   UNL     1       3.660   4.185  18.843  0.00  0.00    +0.000 A 
ATOM      7  C   UNL     1       2.884   4.165  19.998  0.00  0.00    +0.000 A 
ATOM      8  C   UNL     1       2.186   5.302  20.401  0.00  0.00    +0.000 A 
ATOM      9  C   UNL     1       2.252   6.475  19.648  0.00  0.00    +0.000 A 
ATOM     10  C   UNL     1       1.582   7.613  20.114  0.00  0.00    +0.000 A 
ENDROOT
BRANCH   1  12
ATOM     11  O   UNL     1       1.259  10.432  21.408  0.00  0.00    +0.000 OA
ATOM     12  S   UNL     1       0.834  10.240  20.041  0.00  0.00    +0.000 S 
ATOM     13  O   UNL     1      -0.567  10.149  19.687  0.00  0.00    +0.000 OA
BRANCH  12  14
ATOM     14  O   UNL     1       1.443  11.478  19.206  0.00  0.00    +0.000 OA
ATOM     15  H   UNL     1       0.853  12.250  19.328  0.00  0.00    +0.000 HD
ENDBRANCH  12  14
ENDBRANCH   1  12
BRANCH   7  16
ATOM     16  S   UNL     1       2.760   2.728  21.024  0.00  0.00    +0.000 S 
ATOM     17  O   UNL     1       2.335   3.193  22.325  0.00  0.00    +0.000 OA
ATOM     18  O   UNL     1       2.003   1.740  20.281  0.00  0.00    +0.000 OA
BRANCH  16  19
ATOM     19  O   UNL     1       4.266   2.166  21.175  0.00  0.00    +0.000 OA
ATOM     20  H   UNL     1       4.549   1.800  20.305  0.00  0.00    +0.000 HD
ENDBRANCH  16  19
ENDBRANCH   7  16
BRANCH   5  21
ATOM     21  N   UNL     1       4.621   5.428  16.923  0.00  0.00    +0.000 NA
ATOM     22  N   UNL     1       4.506   4.467  16.131  0.00  0.00    +0.000 NA
BRANCH  22  23
ATOM     23  C   UNL     1       5.477   4.485  15.099  0.00  0.00    +0.000 A 
ATOM     24  C   UNL     1       5.204   3.780  13.917  0.00  0.00    +0.000 A 
ATOM     25  C   UNL     1       6.100   3.791  12.842  0.00  0.00    +0.000 A 
ATOM     26  C   UNL     1       7.284   4.519  12.932  0.00  0.00    +0.000 A 
ATOM     27  C   UNL     1       7.571   5.229  14.096  0.00  0.00    +0.000 A 
ATOM     28  C   UNL     1       6.673   5.212  15.172  0.00  0.00    +0.000 A 
ENDBRANCH  22  23
ENDBRANCH   5  21
BRANCH   6  29
ATOM     29  O   UNL     1       4.390   3.065  18.512  0.00  0.00    +0.000 OA
ATOM     30  H   UNL     1       4.506   3.111  17.537  0.00  0.00    +0.000 HD
ENDBRANCH   6  29
TORSDOF 7
ENDMDL
MODEL 4
REMARK VINA RESULT:      -7.9      0.121      1.201
REMARK  Name = 
REMARK  7 active torsions:
REMARK  status: ('A' for Active; 'I' for Inactive)
REMARK    1  A    between atoms: S_2  and  O_4
REMARK    2  A    between atoms: S_2  and  C_5
REMARK    3  A    between atoms: C_9  and  N_10
REMARK    4  A    between atoms: N_11  and  C_12
REMARK    5  A    between atoms: C_18  and  O_19
REMARK    6  A    between atoms: C_20  and  S_21
REMARK    7  A    between atoms: S_21  and  O_24
REMARK                            x       y       z     vdW  Elec       q    Type
REMARK                         _______ _______ _______ _____ _____    ______ ____
ROOT
ATOM      1  C   UNL     1       1.675   8.750  19.111  0.00  0.00    +0.000 A 
ATOM      2  C   UNL     1       2.347   8.788  17.892  0.00  0.00    +0.000 A 
ATOM      3  C   UNL     1       3.048   7.654  17.457  0.00  0.00    +0.000 A 
ATOM      4  C   UNL     1       3.085   6.461  18.219  0.00  0.00    +0.000 A 
ATOM      5  C   UNL     1       3.835   5.302  17.845  0.00  0.00    +0.000 A 
ATOM      6  C   UNL     1       3.796   4.163  18.687  0.00  0.00    +0.000 A 
ATOM      7  C   UNL     1       3.031   4.163  19.850  0.00  0.00    +0.000 A 
ATOM      8  C   UNL     1       2.310   5.295  20.223  0.00  0.00    +0.000 A 
ATOM      9  C   UNL     1       2.341   6.444  19.432  0.00  0.00    +0.000 A 
ATOM     10  C   UNL     1       1.648   7.581  19.868  0.00  0.00    +0.000 A 
ENDROOT
BRANCH   1  12
ATOM     11  O   UNL     1      -0.585   9.998  19.541  0.00  0.00    +0.000 OA
ATOM     12  S   UNL     1       0.837  10.186  19.719  0.00  0.00    +0.000 S 
ATOM     13  O   UNL     1       1.522  11.347  19.193  0.00  0.00    +0.000 OA
BRANCH  12  14
ATOM     14  O   UNL     1       1.092  10.179  21.311  0.00  0.00    +0.000 OA
ATOM     15  H   UNL     1       2.020  10.447  21.474  0.00  0.00    +0.000 HD
ENDBRANCH  12  14
ENDBRANCH   1  12
BRANCH   7  16
ATOM     16  S   UNL     1       2.950   2.756  20.921  0.00  0.00    +0.000 S 
ATOM     17  O   UNL     1       4.302   2.254  21.034  0.00  0.00    +0.000 OA
ATOM     18  O   UNL     1       2.183   3.152  22.085  0.00  0.00    +0.000 OA
BRANCH  16  19
ATOM     19  O   UNL     1       2.085   1.648  20.127  0.00  0.00    +0.000 OA
ATOM     20  H   UNL     1       2.437   1.581  19.209  0.00  0.00    +0.000 HD
ENDBRANCH  16  19
ENDBRANCH   7  16
BRANCH   5  21
ATOM     21  N   UNL     1       4.709   5.366  16.719  0.00  0.00    +0.000 NA
ATOM     22  N   UNL     1       4.568   4.407  15.928  0.00  0.00    +0.000 NA
BRANCH  22  23
ATOM     23  C   UNL     1       5.526   4.409  14.885  0.00  0.00    +0.000 A 
ATOM     24  C   UNL     1       5.252   3.661  13.729  0.00  0.00    +0.000 A 
ATOM     25  C   UNL     1       6.135   3.653  12.643  0.00  0.00    +0.000 A 
ATOM     26  C   UNL     1       7.307   4.404  12.695  0.00  0.00    +0.000 A 
ATOM     27  C   UNL     1       7.595   5.156  13.832  0.00  0.00    +0.000 A 
ATOM     28  C   UNL     1       6.710   5.159  14.919  0.00  0.00    +0.000 A 
ENDBRANCH  22  23
ENDBRANCH   5  21
BRANCH   6  29
ATOM     29  O   UNL     1       4.549   3.051  18.385  0.00  0.00    +0.000 OA
ATOM     30  H   UNL     1       5.398   3.401  18.033  0.00  0.00    +0.000 HD
ENDBRANCH   6  29
TORSDOF 7
ENDMDL
MODEL 5
REMARK VINA RESULT:      -7.9      3.138      7.033
REMARK  Name = 
REMARK  7 active torsions:
REMARK  status: ('A' for Active; 'I' for Inactive)
REMARK    1  A    between atoms: S_2  and  O_4
REMARK    2  A    between atoms: S_2  and  C_5
REMARK    3  A    between atoms: C_9  and  N_10
REMARK    4  A    between atoms: N_11  and  C_12
REMARK    5  A    between atoms: C_18  and  O_19
REMARK    6  A    between atoms: C_20  and  S_21
REMARK    7  A    between atoms: S_21  and  O_24
REMARK                            x       y       z     vdW  Elec       q    Type
REMARK                         _______ _______ _______ _____ _____    ______ ____
ROOT
ATOM      1  C   UNL     1       5.631   5.297  16.190  0.00  0.00    +0.000 A 
ATOM      2  C   UNL     1       5.120   6.592  16.186  0.00  0.00    +0.000 A 
ATOM      3  C   UNL     1       4.159   6.957  17.140  0.00  0.00    +0.000 A 
ATOM      4  C   UNL     1       3.697   6.046  18.120  0.00  0.00    +0.000 A 
ATOM      5  C   UNL     1       2.677   6.353  19.074  0.00  0.00    +0.000 A 
ATOM      6  C   UNL     1       2.296   5.361  20.010  0.00  0.00    +0.000 A 
ATOM      7  C   UNL     1       2.911   4.112  20.014  0.00  0.00    +0.000 A 
ATOM      8  C   UNL     1       3.896   3.805  19.078  0.00  0.00    +0.000 A 
ATOM      9  C   UNL     1       4.283   4.749  18.126  0.00  0.00    +0.000 A 
ATOM     10  C   UNL     1       5.237   4.385  17.166  0.00  0.00    +0.000 A 
ENDROOT
BRANCH   1  12
ATOM     11  O   UNL     1       8.055   4.506  15.604  0.00  0.00    +0.000 OA
ATOM     12  S   UNL     1       6.794   4.787  14.958  0.00  0.00    +0.000 S 
ATOM     13  O   UNL     1       6.698   5.717  13.853  0.00  0.00    +0.000 OA
BRANCH  12  14
ATOM     14  O   UNL     1       6.243   3.370  14.420  0.00  0.00    +0.000 OA
ATOM     15  H   UNL     1       6.680   3.176  13.565  0.00  0.00    +0.000 HD
ENDBRANCH  12  14
ENDBRANCH   1  12
BRANCH   7  16
ATOM     16  S   UNL     1       2.467   2.850  21.173  0.00  0.00    +0.000 S 
ATOM     17  O   UNL     1       2.174   3.526  22.418  0.00  0.00    +0.000 OA
ATOM     18  O   UNL     1       1.495   1.996  20.521  0.00  0.00    +0.000 OA
BRANCH  16  19
ATOM     19  O   UNL     1       3.804   1.973  21.400  0.00  0.00    +0.000 OA
ATOM     20  H   UNL     1       3.905   1.360  20.635  0.00  0.00    +0.000 HD
ENDBRANCH  16  19
ENDBRANCH   7  16
BRANCH   5  21
ATOM     21  N   UNL     1       1.974   7.591  18.972  0.00  0.00    +0.000 NA
ATOM     22  N   UNL     1       1.821   8.165  20.074  0.00  0.00    +0.000 NA
BRANCH  22  23
ATOM     23  C   UNL     1       1.010   9.323  19.982  0.00  0.00    +0.000 A 
ATOM     24  C   UNL     1       0.422   9.817  21.157  0.00  0.00    +0.000 A 
ATOM     25  C   UNL     1      -0.354  10.982  21.146  0.00  0.00    +0.000 A 
ATOM     26  C   UNL     1      -0.548  11.676  19.955  0.00  0.00    +0.000 A 
ATOM     27  C   UNL     1       0.030  11.203  18.778  0.00  0.00    +0.000 A 
ATOM     28  C   UNL     1       0.805  10.036  18.793  0.00  0.00    +0.000 A 
ENDBRANCH  22  23
ENDBRANCH   5  21
BRANCH   6  29
ATOM     29  O   UNL     1       1.279   5.606  20.906  0.00  0.00    +0.000 OA
ATOM     30  H   UNL     1       1.008   6.537  20.742  0.00  0.00    +0.000 HD
ENDBRANCH   6  29
TORSDOF 7
ENDMDL
MODEL 6
REMARK VINA RESULT:      -7.8      0.306      1.529
REMARK  Name = 
REMARK  7 active torsions:
REMARK  status: ('A' for Active; 'I' for Inactive)
REMARK    1  A    between atoms: S_2  and  O_4
REMARK    2  A    between atoms: S_2  and  C_5
REMARK    3  A    between atoms: C_9  and  N_10
REMARK    4  A    between atoms: N_11  and  C_12
REMARK    5  A    between atoms: C_18  and  O_19
REMARK    6  A    between atoms: C_20  and  S_21
REMARK    7  A    between atoms: S_21  and  O_24
REMARK                            x       y       z     vdW  Elec       q    Type
REMARK                         _______ _______ _______ _____ _____    ______ ____
ROOT
ATOM      1  C   UNL     1       1.620   8.848  19.392  0.00  0.00    +0.000 A 
ATOM      2  C   UNL     1       2.270   8.904  18.162  0.00  0.00    +0.000 A 
ATOM      3  C   UNL     1       2.943   7.769  17.687  0.00  0.00    +0.000 A 
ATOM      4  C   UNL     1       2.973   6.557  18.420  0.00  0.00    +0.000 A 
ATOM      5  C   UNL     1       3.695   5.395  18.005  0.00  0.00    +0.000 A 
ATOM      6  C   UNL     1       3.651   4.236  18.820  0.00  0.00    +0.000 A 
ATOM      7  C   UNL     1       2.907   4.221  19.996  0.00  0.00    +0.000 A 
ATOM      8  C   UNL     1       2.213   5.356  20.409  0.00  0.00    +0.000 A 
ATOM      9  C   UNL     1       2.250   6.524  19.645  0.00  0.00    +0.000 A 
ATOM     10  C   UNL     1       1.586   7.662  20.121  0.00  0.00    +0.000 A 
ENDROOT
BRANCH   1  12
ATOM     11  O   UNL     1       1.223  10.445  21.427  0.00  0.00    +0.000 OA
ATOM     12  S   UNL     1       0.819  10.283  20.049  0.00  0.00    +0.000 S 
ATOM     13  O   UNL     1      -0.576  10.219  19.669  0.00  0.00    +0.000 OA
BRANCH  12  14
ATOM     14  O   UNL     1       1.461  11.526  19.247  0.00  0.00    +0.000 OA
ATOM     15  H   UNL     1       1.675  12.230  19.894  0.00  0.00    +0.000 HD
ENDBRANCH  12  14
ENDBRANCH   1  12
BRANCH   7  16
ATOM     16  S   UNL     1       2.821   2.791  21.036  0.00  0.00    +0.000 S 
ATOM     17  O   UNL     1       4.169   2.277  21.131  0.00  0.00    +0.000 OA
ATOM     18  O   UNL     1       2.061   3.165  22.211  0.00  0.00    +0.000 OA
BRANCH  16  19
ATOM     19  O   UNL     1       1.944   1.708  20.219  0.00  0.00    +0.000 OA
ATOM     20  H   UNL     1       1.238   2.189  19.728  0.00  0.00    +0.000 HD
ENDBRANCH  16  19
ENDBRANCH   7  16
BRANCH   5  21
ATOM     21  N   UNL     1       4.549   5.471  16.864  0.00  0.00    +0.000 NA
ATOM     22  N   UNL     1       4.461   4.474  16.113  0.00  0.00    +0.000 NA
BRANCH  22  23
ATOM     23  C   UNL     1       5.405   4.497  15.057  0.00  0.00    +0.000 A 
ATOM     24  C   UNL     1       6.600   5.208  15.248  0.00  0.00    +0.000 A 
ATOM     25  C   UNL     1       7.594   5.236  14.263  0.00  0.00    +0.000 A 
ATOM     26  C   UNL     1       7.408   4.542  13.070  0.00  0.00    +0.000 A 
ATOM     27  C   UNL     1       6.231   3.828  12.862  0.00  0.00    +0.000 A 
ATOM     28  C   UNL     1       5.237   3.804  13.850  0.00  0.00    +0.000 A 
ENDBRANCH  22  23
ENDBRANCH   5  21
BRANCH   6  29
ATOM     29  O   UNL     1       4.378   3.119  18.477  0.00  0.00    +0.000 OA
ATOM     30  H   UNL     1       3.975   2.793  17.641  0.00  0.00    +0.000 HD
ENDBRANCH   6  29
TORSDOF 7
ENDMDL
MODEL 7
REMARK VINA RESULT:      -7.7      3.117      7.019
REMARK  Name = 
REMARK  7 active torsions:
REMARK  status: ('A' for Active; 'I' for Inactive)
REMARK    1  A    between atoms: S_2  and  O_4
REMARK    2  A    between atoms: S_2  and  C_5
REMARK    3  A    between atoms: C_9  and  N_10
REMARK    4  A    between atoms: N_11  and  C_12
REMARK    5  A    between atoms: C_18  and  O_19
REMARK    6  A    between atoms: C_20  and  S_21
REMARK    7  A    between atoms: S_21  and  O_24
REMARK                            x       y       z     vdW  Elec       q    Type
REMARK                         _______ _______ _______ _____ _____    ______ ____
ROOT
ATOM      1  C   UNL     1       5.283   5.298  15.988  0.00  0.00    +0.000 A 
ATOM      2  C   UNL     1       4.957   6.647  16.106  0.00  0.00    +0.000 A 
ATOM      3  C   UNL     1       4.100   7.060  17.136  0.00  0.00    +0.000 A 
ATOM      4  C   UNL     1       3.561   6.143  18.071  0.00  0.00    +0.000 A 
ATOM      5  C   UNL     1       2.637   6.507  19.100  0.00  0.00    +0.000 A 
ATOM      6  C   UNL     1       2.164   5.503  19.981  0.00  0.00    +0.000 A 
ATOM      7  C   UNL     1       2.601   4.187  19.860  0.00  0.00    +0.000 A 
ATOM      8  C   UNL     1       3.491   3.827  18.851  0.00  0.00    +0.000 A 
ATOM      9  C   UNL     1       3.962   4.783  17.949  0.00  0.00    +0.000 A 
ATOM     10  C   UNL     1       4.811   4.372  16.914  0.00  0.00    +0.000 A 
ENDROOT
BRANCH   1  12
ATOM     11  O   UNL     1       7.534   5.502  14.669  0.00  0.00    +0.000 OA
ATOM     12  S   UNL     1       6.308   4.737  14.658  0.00  0.00    +0.000 S 
ATOM     13  O   UNL     1       5.480   4.646  13.475  0.00  0.00    +0.000 OA
BRANCH  12  14
ATOM     14  O   UNL     1       6.720   3.229  15.053  0.00  0.00    +0.000 OA
ATOM     15  H   UNL     1       6.405   3.054  15.964  0.00  0.00    +0.000 HD
ENDBRANCH  12  14
ENDBRANCH   1  12
BRANCH   7  16
ATOM     16  S   UNL     1       2.040   2.907  20.946  0.00  0.00    +0.000 S 
ATOM     17  O   UNL     1       2.490   1.659  20.369  0.00  0.00    +0.000 OA
ATOM     18  O   UNL     1       2.405   3.301  22.292  0.00  0.00    +0.000 OA
BRANCH  16  19
ATOM     19  O   UNL     1       0.428   2.931  20.857  0.00  0.00    +0.000 OA
ATOM     20  H   UNL     1       0.123   2.054  20.525  0.00  0.00    +0.000 HD
ENDBRANCH  16  19
ENDBRANCH   7  16
BRANCH   5  21
ATOM     21  N   UNL     1       2.107   7.833  19.129  0.00  0.00    +0.000 NA
ATOM     22  N   UNL     1       1.711   8.182  20.263  0.00  0.00    +0.000 NA
BRANCH  22  23
ATOM     23  C   UNL     1       1.068   9.445  20.256  0.00  0.00    +0.000 A 
ATOM     24  C   UNL     1       0.700   9.996  19.018  0.00  0.00    +0.000 A 
ATOM     25  C   UNL     1       0.024  11.219  18.941  0.00  0.00    +0.000 A 
ATOM     26  C   UNL     1      -0.302  11.907  20.107  0.00  0.00    +0.000 A 
ATOM     27  C   UNL     1       0.053  11.375  21.345  0.00  0.00    +0.000 A 
ATOM     28  C   UNL     1       0.732  10.151  21.418  0.00  0.00    +0.000 A 
ENDBRANCH  22  23
ENDBRANCH   5  21
BRANCH   6  29
ATOM     29  O   UNL     1       1.233   5.810  20.947  0.00  0.00    +0.000 OA
ATOM     30  H   UNL     1       0.685   6.528  20.560  0.00  0.00    +0.000 HD
ENDBRANCH   6  29
TORSDOF 7
ENDMDL
MODEL 8
REMARK VINA RESULT:      -7.7      3.050      6.743
REMARK  Name = 
REMARK  7 active torsions:
REMARK  status: ('A' for Active; 'I' for Inactive)
REMARK    1  A    between atoms: S_2  and  O_4
REMARK    2  A    between atoms: S_2  and  C_5
REMARK    3  A    between atoms: C_9  and  N_10
REMARK    4  A    between atoms: N_11  and  C_12
REMARK    5  A    between atoms: C_18  and  O_19
REMARK    6  A    between atoms: C_20  and  S_21
REMARK    7  A    between atoms: S_21  and  O_24
REMARK                            x       y       z     vdW  Elec       q    Type
REMARK                         _______ _______ _______ _____ _____    ______ ____
ROOT
ATOM      1  C   UNL     1       5.245   5.163  15.668  0.00  0.00    +0.000 A 
ATOM      2  C   UNL     1       5.133   6.536  15.872  0.00  0.00    +0.000 A 
ATOM      3  C   UNL     1       4.386   7.012  16.960  0.00  0.00    +0.000 A 
ATOM      4  C   UNL     1       3.748   6.133  17.868  0.00  0.00    +0.000 A 
ATOM      5  C   UNL     1       2.929   6.571  18.956  0.00  0.00    +0.000 A 
ATOM      6  C   UNL     1       2.342   5.599  19.803  0.00  0.00    +0.000 A 
ATOM      7  C   UNL     1       2.567   4.242  19.593  0.00  0.00    +0.000 A 
ATOM      8  C   UNL     1       3.354   3.812  18.527  0.00  0.00    +0.000 A 
ATOM      9  C   UNL     1       3.932   4.737  17.657  0.00  0.00    +0.000 A 
ATOM     10  C   UNL     1       4.671   4.265  16.565  0.00  0.00    +0.000 A 
ENDROOT
BRANCH   1  12
ATOM     11  O   UNL     1       7.279   5.369  14.035  0.00  0.00    +0.000 OA
ATOM     12  S   UNL     1       6.123   4.534  14.266  0.00  0.00    +0.000 S 
ATOM     13  O   UNL     1       5.154   4.272  13.223  0.00  0.00    +0.000 OA
BRANCH  12  14
ATOM     14  O   UNL     1       6.695   3.102  14.737  0.00  0.00    +0.000 OA
ATOM     15  H   UNL     1       7.673   3.150  14.745  0.00  0.00    +0.000 HD
ENDBRANCH  12  14
ENDBRANCH   1  12
BRANCH   7  16
ATOM     16  S   UNL     1       1.858   2.999  20.635  0.00  0.00    +0.000 S 
ATOM     17  O   UNL     1       2.214   1.726  20.048  0.00  0.00    +0.000 OA
ATOM     18  O   UNL     1       2.210   3.336  21.999  0.00  0.00    +0.000 OA
BRANCH  16  19
ATOM     19  O   UNL     1       0.258   3.168  20.493  0.00  0.00    +0.000 OA
ATOM     20  H   UNL     1       0.022   3.089  19.540  0.00  0.00    +0.000 HD
ENDBRANCH  16  19
ENDBRANCH   7  16
BRANCH   5  21
ATOM     21  N   UNL     1       2.610   7.957  19.078  0.00  0.00    +0.000 NA
ATOM     22  N   UNL     1       1.515   8.260  18.553  0.00  0.00    +0.000 NA
BRANCH  22  23
ATOM     23  C   UNL     1       1.268   9.655  18.563  0.00  0.00    +0.000 A 
ATOM     24  C   UNL     1       0.026  10.106  19.037  0.00  0.00    +0.000 A 
ATOM     25  C   UNL     1      -0.267  11.473  19.115  0.00  0.00    +0.000 A 
ATOM     26  C   UNL     1       0.685  12.411  18.725  0.00  0.00    +0.000 A 
ATOM     27  C   UNL     1       1.925  11.983  18.255  0.00  0.00    +0.000 A 
ATOM     28  C   UNL     1       2.214  10.614  18.176  0.00  0.00    +0.000 A 
ENDBRANCH  22  23
ENDBRANCH   5  21
BRANCH   6  29
ATOM     29  O   UNL     1       1.504   5.985  20.825  0.00  0.00    +0.000 OA
ATOM     30  H   UNL     1       1.638   5.318  21.536  0.00  0.00    +0.000 HD
ENDBRANCH   6  29
TORSDOF 7
ENDMDL
MODEL 9
REMARK VINA RESULT:      -7.5      3.151      6.932
REMARK  Name = 
REMARK  7 active torsions:
REMARK  status: ('A' for Active; 'I' for Inactive)
REMARK    1  A    between atoms: S_2  and  O_4
REMARK    2  A    between atoms: S_2  and  C_5
REMARK    3  A    between atoms: C_9  and  N_10
REMARK    4  A    between atoms: N_11  and  C_12
REMARK    5  A    between atoms: C_18  and  O_19
REMARK    6  A    between atoms: C_20  and  S_21
REMARK    7  A    between atoms: S_21  and  O_24
REMARK                            x       y       z     vdW  Elec       q    Type
REMARK                         _______ _______ _______ _____ _____    ______ ____
ROOT
ATOM      1  C   UNL     1       5.719   5.293  16.345  0.00  0.00    +0.000 A 
ATOM      2  C   UNL     1       5.196   6.582  16.289  0.00  0.00    +0.000 A 
ATOM      3  C   UNL     1       4.198   6.960  17.198  0.00  0.00    +0.000 A 
ATOM      4  C   UNL     1       3.710   6.069  18.184  0.00  0.00    +0.000 A 
ATOM      5  C   UNL     1       2.654   6.389  19.093  0.00  0.00    +0.000 A 
ATOM      6  C   UNL     1       2.249   5.416  20.041  0.00  0.00    +0.000 A 
ATOM      7  C   UNL     1       2.876   4.175  20.099  0.00  0.00    +0.000 A 
ATOM      8  C   UNL     1       3.897   3.855  19.207  0.00  0.00    +0.000 A 
ATOM      9  C   UNL     1       4.309   4.779  18.244  0.00  0.00    +0.000 A 
ATOM     10  C   UNL     1       5.300   4.401  17.329  0.00  0.00    +0.000 A 
ENDROOT
BRANCH   1  12
ATOM     11  O   UNL     1       7.525   5.935  14.563  0.00  0.00    +0.000 OA
ATOM     12  S   UNL     1       6.931   4.765  15.168  0.00  0.00    +0.000 S 
ATOM     13  O   UNL     1       6.337   3.715  14.368  0.00  0.00    +0.000 OA
BRANCH  12  14
ATOM     14  O   UNL     1       8.096   4.076  16.044  0.00  0.00    +0.000 OA
ATOM     15  H   UNL     1       7.955   3.107  16.035  0.00  0.00    +0.000 HD
ENDBRANCH  12  14
ENDBRANCH   1  12
BRANCH   7  16
ATOM     16  S   UNL     1       2.404   2.938  21.274  0.00  0.00    +0.000 S 
ATOM     17  O   UNL     1       1.080   2.500  20.891  0.00  0.00    +0.000 OA
ATOM     18  O   UNL     1       3.513   2.011  21.384  0.00  0.00    +0.000 OA
BRANCH  16  19
ATOM     19  O   UNL     1       2.273   3.704  22.689  0.00  0.00    +0.000 OA
ATOM     20  H   UNL     1       2.010   4.637  22.512  0.00  0.00    +0.000 HD
ENDBRANCH  16  19
ENDBRANCH   7  16
BRANCH   5  21
ATOM     21  N   UNL     1       1.942   7.616  18.935  0.00  0.00    +0.000 NA
ATOM     22  N   UNL     1       1.843   8.271  19.997  0.00  0.00    +0.000 NA
BRANCH  22  23
ATOM     23  C   UNL     1       1.025   9.420  19.860  0.00  0.00    +0.000 A 
ATOM     24  C   UNL     1       1.311  10.320  18.822  0.00  0.00    +0.000 A 
ATOM     25  C   UNL     1       0.517  11.452  18.604  0.00  0.00    +0.000 A 
ATOM     26  C   UNL     1      -0.584  11.695  19.420  0.00  0.00    +0.000 A 
ATOM     27  C   UNL     1      -0.886  10.812  20.454  0.00  0.00    +0.000 A 
ATOM     28  C   UNL     1      -0.088   9.681  20.671  0.00  0.00    +0.000 A 
ENDBRANCH  22  23
ENDBRANCH   5  21
BRANCH   6  29
ATOM     29  O   UNL     1       1.199   5.673  20.893  0.00  0.00    +0.000 OA
ATOM     30  H   UNL     1       0.654   6.353  20.436  0.00  0.00    +0.000 HD
ENDBRANCH   6  29
TORSDOF 7
ENDMDL
