MODEL 1
REMARK VINA RESULT:      -9.7      0.000      0.000
REMARK  Name = 
REMARK  10 active torsions:
REMARK  status: ('A' for Active; 'I' for Inactive)
REMARK    1  A    between atoms: C_1  and  O_2
REMARK    2  A    between atoms: O_2  and  C_3
REMARK    3  A    between atoms: C_6  and  C_7
REMARK    4  A    between atoms: C_7  and  C_9
REMARK    5  A    between atoms: C_10  and  C_11
REMARK    6  A    between atoms: C_12  and  O_13
REMARK    7  A    between atoms: O_13  and  C_14
REMARK    8  A    between atoms: C_14  and  C_15
REMARK    9  A    between atoms: N_17  and  C_18
REMARK   10  A    between atoms: C_18  and  C_19
REMARK                            x       y       z     vdW  Elec       q    Type
REMARK                         _______ _______ _______ _____ _____    ______ ____
ROOT
ATOM      1  C   UNL     1       3.477   5.560  18.437  0.00  0.00    +0.000 A 
ATOM      2  C   UNL     1       4.474   5.198  17.504  0.00  0.00    +0.000 A 
ATOM      3  C   UNL     1       4.554   3.876  17.056  0.00  0.00    +0.000 A 
ATOM      4  C   UNL     1       3.671   2.912  17.529  0.00  0.00    +0.000 A 
ATOM      5  C   UNL     1       2.710   3.236  18.485  0.00  0.00    +0.000 A 
ATOM      6  C   UNL     1       1.809   2.252  18.907  0.00  0.00    +0.000 A 
ATOM      7  C   UNL     1       0.860   2.528  19.887  0.00  0.00    +0.000 A 
ATOM      8  C   UNL     1       0.837   3.780  20.488  0.00  0.00    +0.000 A 
ATOM      9  C   UNL     1       1.712   4.779  20.052  0.00  0.00    +0.000 A 
ATOM     10  C   UNL     1       2.636   4.551  19.003  0.00  0.00    +0.000 A 
ENDROOT
BRANCH   1  12
ATOM     11  C   UNL     1       2.358   7.675  17.943  0.00  0.00    +0.000 C 
ATOM     12  C   UNL     1       3.208   6.987  18.728  0.00  0.00    +0.000 C 
BRANCH  11  13
ATOM     13  C   UNL     1       1.995   9.091  18.235  0.00  0.00    +0.000 C 
ATOM     14  O   UNL     1       2.170   9.982  17.411  0.00  0.00    +0.000 OA
BRANCH  13  18
ATOM     15  C   UNL     1       0.292  10.090  22.070  0.00  0.00    +0.000 A 
ATOM     16  C   UNL     1       0.524  11.072  21.107  0.00  0.00    +0.000 A 
ATOM     17  C   UNL     1       1.069  10.731  19.860  0.00  0.00    +0.000 A 
ATOM     18  C   UNL     1       1.387   9.399  19.565  0.00  0.00    +0.000 A 
ATOM     19  C   UNL     1       1.179   8.421  20.548  0.00  0.00    +0.000 A 
ATOM     20  C   UNL     1       0.631   8.766  21.795  0.00  0.00    +0.000 A 
BRANCH  15  22
ATOM     21  C   UNL     1      -1.512  11.144  23.189  0.00  0.00    +0.000 C 
ATOM     22  O   UNL     1      -0.221  10.549  23.253  0.00  0.00    +0.000 OA
ENDBRANCH  15  22
ENDBRANCH  13  18
ENDBRANCH  11  13
ENDBRANCH   1  12
BRANCH   2  23
ATOM     23  O   UNL     1       5.325   6.179  17.051  0.00  0.00    +0.000 OA
BRANCH  23  24
ATOM     24  C   UNL     1       6.710   5.982  17.379  0.00  0.00    +0.000 C 
BRANCH  24  25
ATOM     25  C   UNL     1       7.393   7.244  17.749  0.00  0.00    +0.000 A 
ATOM     26  C   UNL     1       7.265   8.505  17.212  0.00  0.00    +0.000 A 
ATOM     27  N   UNL     1       8.078   9.273  17.990  0.00  0.00    +0.000 N 
ATOM     28  N   UNL     1       8.692   8.541  18.937  0.00  0.00    +0.000 NA
ATOM     29  N   UNL     1       8.281   7.287  18.789  0.00  0.00    +0.000 NA
BRANCH  27  30
ATOM     30  C   UNL     1       8.233  10.711  17.942  0.00  0.00    +0.000 C 
BRANCH  30  31
ATOM     31  C   UNL     1       9.375  11.161  18.814  0.00  0.00    +0.000 A 
ATOM     32  C   UNL     1      10.657  11.333  18.270  0.00  0.00    +0.000 A 
ATOM     33  C   UNL     1      11.713  11.779  19.070  0.00  0.00    +0.000 A 
ATOM     34  C   UNL     1      11.495  12.064  20.417  0.00  0.00    +0.000 A 
ATOM     35  C   UNL     1      10.225  11.902  20.954  0.00  0.00    +0.000 A 
ATOM     36  F   UNL     1      10.011  12.186  22.245  0.00  0.00    +0.000 F 
ATOM     37  C   UNL     1       9.167  11.453  20.172  0.00  0.00    +0.000 A 
ENDBRANCH  30  31
ENDBRANCH  27  30
ENDBRANCH  24  25
ENDBRANCH  23  24
ENDBRANCH   2  23
TORSDOF 9
ENDMDL
MODEL 2
REMARK VINA RESULT:      -9.2      4.894      9.385
REMARK  Name = 
REMARK  10 active torsions:
REMARK  status: ('A' for Active; 'I' for Inactive)
REMARK    1  A    between atoms: C_1  and  O_2
REMARK    2  A    between atoms: O_2  and  C_3
REMARK    3  A    between atoms: C_6  and  C_7
REMARK    4  A    between atoms: C_7  and  C_9
REMARK    5  A    between atoms: C_10  and  C_11
REMARK    6  A    between atoms: C_12  and  O_13
REMARK    7  A    between atoms: O_13  and  C_14
REMARK    8  A    between atoms: C_14  and  C_15
REMARK    9  A    between atoms: N_17  and  C_18
REMARK   10  A    between atoms: C_18  and  C_19
REMARK                            x       y       z     vdW  Elec       q    Type
REMARK                         _______ _______ _______ _____ _____    ______ ____
ROOT
ATOM      1  C   UNL     1       3.025   5.797  18.306  0.00  0.00    +0.000 A 
ATOM      2  C   UNL     1       2.527   6.798  19.170  0.00  0.00    +0.000 A 
ATOM      3  C   UNL     1       1.727   6.436  20.258  0.00  0.00    +0.000 A 
ATOM      4  C   UNL     1       1.404   5.105  20.490  0.00  0.00    +0.000 A 
ATOM      5  C   UNL     1       1.845   4.105  19.624  0.00  0.00    +0.000 A 
ATOM      6  C   UNL     1       1.538   2.770  19.911  0.00  0.00    +0.000 A 
ATOM      7  C   UNL     1       1.928   1.749  19.050  0.00  0.00    +0.000 A 
ATOM      8  C   UNL     1       2.588   2.060  17.868  0.00  0.00    +0.000 A 
ATOM      9  C   UNL     1       2.925   3.387  17.587  0.00  0.00    +0.000 A 
ATOM     10  C   UNL     1       2.611   4.439  18.482  0.00  0.00    +0.000 A 
ENDROOT
BRANCH   1  12
ATOM     11  C   UNL     1       5.345   5.742  17.543  0.00  0.00    +0.000 C 
ATOM     12  C   UNL     1       4.075   6.120  17.313  0.00  0.00    +0.000 C 
BRANCH  11  13
ATOM     13  C   UNL     1       6.425   5.978  16.542  0.00  0.00    +0.000 C 
ATOM     14  O   UNL     1       7.320   6.792  16.741  0.00  0.00    +0.000 OA
BRANCH  13  18
ATOM     15  C   UNL     1       6.410   3.746  12.850  0.00  0.00    +0.000 A 
ATOM     16  C   UNL     1       7.403   4.688  13.119  0.00  0.00    +0.000 A 
ATOM     17  C   UNL     1       7.401   5.400  14.329  0.00  0.00    +0.000 A 
ATOM     18  C   UNL     1       6.402   5.172  15.283  0.00  0.00    +0.000 A 
ATOM     19  C   UNL     1       5.390   4.245  14.995  0.00  0.00    +0.000 A 
ATOM     20  C   UNL     1       5.397   3.534  13.784  0.00  0.00    +0.000 A 
BRANCH  15  22
ATOM     21  C   UNL     1       5.827   1.892  11.493  0.00  0.00    +0.000 C 
ATOM     22  O   UNL     1       6.507   3.135  11.630  0.00  0.00    +0.000 OA
ENDBRANCH  15  22
ENDBRANCH  13  18
ENDBRANCH  11  13
ENDBRANCH   1  12
BRANCH   2  23
ATOM     23  O   UNL     1       2.874   8.104  18.916  0.00  0.00    +0.000 OA
BRANCH  23  24
ATOM     24  C   UNL     1       2.210   8.702  17.790  0.00  0.00    +0.000 C 
BRANCH  24  25
ATOM     25  C   UNL     1       1.366   9.858  18.174  0.00  0.00    +0.000 A 
ATOM     26  C   UNL     1       0.032   9.902  18.506  0.00  0.00    +0.000 A 
ATOM     27  N   UNL     1      -0.178  11.208  18.832  0.00  0.00    +0.000 N 
ATOM     28  N   UNL     1       0.942  11.939  18.693  0.00  0.00    +0.000 NA
ATOM     29  N   UNL     1       1.897  11.114  18.279  0.00  0.00    +0.000 NA
BRANCH  27  30
ATOM     30  C   UNL     1      -1.387  11.794  19.371  0.00  0.00    +0.000 C 
BRANCH  30  31
ATOM     31  C   UNL     1      -2.541  11.625  18.419  0.00  0.00    +0.000 A 
ATOM     32  C   UNL     1      -3.860  11.781  18.870  0.00  0.00    +0.000 A 
ATOM     33  C   UNL     1      -4.934  11.655  17.984  0.00  0.00    +0.000 A 
ATOM     34  C   UNL     1      -4.697  11.378  16.638  0.00  0.00    +0.000 A 
ATOM     35  C   UNL     1      -3.391  11.231  16.189  0.00  0.00    +0.000 A 
ATOM     36  F   UNL     1      -3.162  10.977  14.894  0.00  0.00    +0.000 F 
ATOM     37  C   UNL     1      -2.316  11.348  17.060  0.00  0.00    +0.000 A 
ENDBRANCH  30  31
ENDBRANCH  27  30
ENDBRANCH  24  25
ENDBRANCH  23  24
ENDBRANCH   2  23
TORSDOF 9
ENDMDL
MODEL 3
REMARK VINA RESULT:      -9.2      4.666      6.493
REMARK  Name = 
REMARK  10 active torsions:
REMARK  status: ('A' for Active; 'I' for Inactive)
REMARK    1  A    between atoms: C_1  and  O_2
REMARK    2  A    between atoms: O_2  and  C_3
REMARK    3  A    between atoms: C_6  and  C_7
REMARK    4  A    between atoms: C_7  and  C_9
REMARK    5  A    between atoms: C_10  and  C_11
REMARK    6  A    between atoms: C_12  and  O_13
REMARK    7  A    between atoms: O_13  and  C_14
REMARK    8  A    between atoms: C_14  and  C_15
REMARK    9  A    between atoms: N_17  and  C_18
REMARK   10  A    between atoms: C_18  and  C_19
REMARK                            x       y       z     vdW  Elec       q    Type
REMARK                         _______ _______ _______ _____ _____    ______ ____
ROOT
ATOM      1  C   UNL     1       3.386   5.029  18.511  0.00  0.00    +0.000 A 
ATOM      2  C   UNL     1       3.999   4.443  17.381  0.00  0.00    +0.000 A 
ATOM      3  C   UNL     1       3.881   3.067  17.166  0.00  0.00    +0.000 A 
ATOM      4  C   UNL     1       3.178   2.267  18.059  0.00  0.00    +0.000 A 
ATOM      5  C   UNL     1       2.605   2.815  19.206  0.00  0.00    +0.000 A 
ATOM      6  C   UNL     1       1.867   1.989  20.061  0.00  0.00    +0.000 A 
ATOM      7  C   UNL     1       1.312   2.493  21.234  0.00  0.00    +0.000 A 
ATOM      8  C   UNL     1       1.532   3.818  21.584  0.00  0.00    +0.000 A 
ATOM      9  C   UNL     1       2.241   4.659  20.722  0.00  0.00    +0.000 A 
ATOM     10  C   UNL     1       2.751   4.195  19.485  0.00  0.00    +0.000 A 
ENDROOT
BRANCH   1  12
ATOM     11  C   UNL     1       2.139   7.113  18.240  0.00  0.00    +0.000 C 
ATOM     12  C   UNL     1       3.275   6.501  18.623  0.00  0.00    +0.000 C 
BRANCH  11  13
ATOM     13  C   UNL     1       1.948   8.582  18.401  0.00  0.00    +0.000 C 
ATOM     14  O   UNL     1       2.257   9.372  17.515  0.00  0.00    +0.000 OA
BRANCH  13  18
ATOM     15  C   UNL     1       0.237  10.120  22.050  0.00  0.00    +0.000 A 
ATOM     16  C   UNL     1       0.242  10.879  20.880  0.00  0.00    +0.000 A 
ATOM     17  C   UNL     1       0.793  10.363  19.698  0.00  0.00    +0.000 A 
ATOM     18  C   UNL     1       1.345   9.076  19.677  0.00  0.00    +0.000 A 
ATOM     19  C   UNL     1       1.364   8.328  20.863  0.00  0.00    +0.000 A 
ATOM     20  C   UNL     1       0.809   8.849  22.044  0.00  0.00    +0.000 A 
BRANCH  15  22
ATOM     21  C   UNL     1      -1.299  11.725  22.875  0.00  0.00    +0.000 C 
ATOM     22  O   UNL     1      -0.307  10.740  23.142  0.00  0.00    +0.000 OA
ENDBRANCH  15  22
ENDBRANCH  13  18
ENDBRANCH  11  13
ENDBRANCH   1  12
BRANCH   2  23
ATOM     23  O   UNL     1       4.678   5.266  16.514  0.00  0.00    +0.000 OA
BRANCH  23  24
ATOM     24  C   UNL     1       6.108   5.264  16.667  0.00  0.00    +0.000 C 
BRANCH  24  25
ATOM     25  C   UNL     1       6.820   5.223  15.369  0.00  0.00    +0.000 A 
ATOM     26  C   UNL     1       6.477   4.591  14.195  0.00  0.00    +0.000 A 
ATOM     27  N   UNL     1       7.462   4.958  13.329  0.00  0.00    +0.000 N 
ATOM     28  N   UNL     1       8.374   5.748  13.923  0.00  0.00    +0.000 NA
ATOM     29  N   UNL     1       7.989   5.909  15.184  0.00  0.00    +0.000 NA
BRANCH  27  30
ATOM     30  C   UNL     1       7.535   4.670  11.912  0.00  0.00    +0.000 C 
BRANCH  30  31
ATOM     31  C   UNL     1       6.700   3.468  11.560  0.00  0.00    +0.000 A 
ATOM     32  C   UNL     1       7.307   2.219  11.356  0.00  0.00    +0.000 A 
ATOM     33  C   UNL     1       6.533   1.094  11.058  0.00  0.00    +0.000 A 
ATOM     34  C   UNL     1       5.146   1.206  10.970  0.00  0.00    +0.000 A 
ATOM     35  C   UNL     1       4.544   2.440  11.180  0.00  0.00    +0.000 A 
ATOM     36  F   UNL     1       3.211   2.546  11.106  0.00  0.00    +0.000 F 
ATOM     37  C   UNL     1       5.302   3.567  11.470  0.00  0.00    +0.000 A 
ENDBRANCH  30  31
ENDBRANCH  27  30
ENDBRANCH  24  25
ENDBRANCH  23  24
ENDBRANCH   2  23
TORSDOF 9
ENDMDL
MODEL 4
REMARK VINA RESULT:      -9.1      4.811      9.154
REMARK  Name = 
REMARK  10 active torsions:
REMARK  status: ('A' for Active; 'I' for Inactive)
REMARK    1  A    between atoms: C_1  and  O_2
REMARK    2  A    between atoms: O_2  and  C_3
REMARK    3  A    between atoms: C_6  and  C_7
REMARK    4  A    between atoms: C_7  and  C_9
REMARK    5  A    between atoms: C_10  and  C_11
REMARK    6  A    between atoms: C_12  and  O_13
REMARK    7  A    between atoms: O_13  and  C_14
REMARK    8  A    between atoms: C_14  and  C_15
REMARK    9  A    between atoms: N_17  and  C_18
REMARK   10  A    between atoms: C_18  and  C_19
REMARK                            x       y       z     vdW  Elec       q    Type
REMARK                         _______ _______ _______ _____ _____    ______ ____
ROOT
ATOM      1  C   UNL     1       2.808   5.814  18.520  0.00  0.00    +0.000 A 
ATOM      2  C   UNL     1       2.241   6.639  19.517  0.00  0.00    +0.000 A 
ATOM      3  C   UNL     1       1.478   6.065  20.538  0.00  0.00    +0.000 A 
ATOM      4  C   UNL     1       1.259   4.693  20.574  0.00  0.00    +0.000 A 
ATOM      5  C   UNL     1       1.769   3.865  19.575  0.00  0.00    +0.000 A 
ATOM      6  C   UNL     1       1.567   2.483  19.665  0.00  0.00    +0.000 A 
ATOM      7  C   UNL     1       2.029   1.629  18.668  0.00  0.00    +0.000 A 
ATOM      8  C   UNL     1       2.655   2.157  17.547  0.00  0.00    +0.000 A 
ATOM      9  C   UNL     1       2.888   3.532  17.461  0.00  0.00    +0.000 A 
ATOM     10  C   UNL     1       2.500   4.418  18.496  0.00  0.00    +0.000 A 
ENDROOT
BRANCH   1  12
ATOM     11  C   UNL     1       5.040   5.785  17.526  0.00  0.00    +0.000 C 
ATOM     12  C   UNL     1       3.824   6.357  17.589  0.00  0.00    +0.000 C 
BRANCH  11  13
ATOM     13  C   UNL     1       6.072   6.245  16.554  0.00  0.00    +0.000 C 
ATOM     14  O   UNL     1       6.768   7.230  16.773  0.00  0.00    +0.000 OA
BRANCH  13  18
ATOM     15  C   UNL     1       6.532   3.874  12.979  0.00  0.00    +0.000 A 
ATOM     16  C   UNL     1       5.388   3.771  13.769  0.00  0.00    +0.000 A 
ATOM     17  C   UNL     1       5.247   4.555  14.924  0.00  0.00    +0.000 A 
ATOM     18  C   UNL     1       6.254   5.454  15.298  0.00  0.00    +0.000 A 
ATOM     19  C   UNL     1       7.415   5.532  14.516  0.00  0.00    +0.000 A 
ATOM     20  C   UNL     1       7.551   4.746  13.359  0.00  0.00    +0.000 A 
BRANCH  15  22
ATOM     21  C   UNL     1       5.366   2.322  11.619  0.00  0.00    +0.000 C 
ATOM     22  O   UNL     1       6.563   3.042  11.893  0.00  0.00    +0.000 OA
ENDBRANCH  15  22
ENDBRANCH  13  18
ENDBRANCH  11  13
ENDBRANCH   1  12
BRANCH   2  23
ATOM     23  O   UNL     1       2.486   7.991  19.456  0.00  0.00    +0.000 OA
BRANCH  23  24
ATOM     24  C   UNL     1       1.352   8.799  19.094  0.00  0.00    +0.000 C 
BRANCH  24  25
ATOM     25  C   UNL     1       1.039   9.829  20.112  0.00  0.00    +0.000 A 
ATOM     26  C   UNL     1       0.720  11.158  19.950  0.00  0.00    +0.000 A 
ATOM     27  N   UNL     1       0.468  11.588  21.217  0.00  0.00    +0.000 N 
ATOM     28  N   UNL     1       0.638  10.603  22.117  0.00  0.00    +0.000 NA
ATOM     29  N   UNL     1       0.999   9.517  21.443  0.00  0.00    +0.000 NA
BRANCH  27  30
ATOM     30  C   UNL     1      -0.029  12.887  21.620  0.00  0.00    +0.000 C 
BRANCH  30  31
ATOM     31  C   UNL     1      -1.514  12.846  21.864  0.00  0.00    +0.000 A 
ATOM     32  C   UNL     1      -2.411  13.083  20.812  0.00  0.00    +0.000 A 
ATOM     33  C   UNL     1      -3.791  13.017  21.027  0.00  0.00    +0.000 A 
ATOM     34  C   UNL     1      -4.284  12.707  22.293  0.00  0.00    +0.000 A 
ATOM     35  C   UNL     1      -3.397  12.465  23.333  0.00  0.00    +0.000 A 
ATOM     36  F   UNL     1      -3.869  12.156  24.548  0.00  0.00    +0.000 F 
ATOM     37  C   UNL     1      -2.023  12.534  23.135  0.00  0.00    +0.000 A 
ENDBRANCH  30  31
ENDBRANCH  27  30
ENDBRANCH  24  25
ENDBRANCH  23  24
ENDBRANCH   2  23
TORSDOF 9
ENDMDL
MODEL 5
REMARK VINA RESULT:      -9.0      1.673      2.156
REMARK  Name = 
REMARK  10 active torsions:
REMARK  status: ('A' for Active; 'I' for Inactive)
REMARK    1  A    between atoms: C_1  and  O_2
REMARK    2  A    between atoms: O_2  and  C_3
REMARK    3  A    between atoms: C_6  and  C_7
REMARK    4  A    between atoms: C_7  and  C_9
REMARK    5  A    between atoms: C_10  and  C_11
REMARK    6  A    between atoms: C_12  and  O_13
REMARK    7  A    between atoms: O_13  and  C_14
REMARK    8  A    between atoms: C_14  and  C_15
REMARK    9  A    between atoms: N_17  and  C_18
REMARK   10  A    between atoms: C_18  and  C_19
REMARK                            x       y       z     vdW  Elec       q    Type
REMARK                         _______ _______ _______ _____ _____    ______ ____
ROOT
ATOM      1  C   UNL     1       4.324   6.346  17.444  0.00  0.00    +0.000 A 
ATOM      2  C   UNL     1       5.666   6.240  17.014  0.00  0.00    +0.000 A 
ATOM      3  C   UNL     1       6.188   4.986  16.684  0.00  0.00    +0.000 A 
ATOM      4  C   UNL     1       5.407   3.842  16.788  0.00  0.00    +0.000 A 
ATOM      5  C   UNL     1       4.096   3.916  17.255  0.00  0.00    +0.000 A 
ATOM      6  C   UNL     1       3.322   2.751  17.306  0.00  0.00    +0.000 A 
ATOM      7  C   UNL     1       2.022   2.780  17.801  0.00  0.00    +0.000 A 
ATOM      8  C   UNL     1       1.501   3.969  18.295  0.00  0.00    +0.000 A 
ATOM      9  C   UNL     1       2.253   5.144  18.221  0.00  0.00    +0.000 A 
ATOM     10  C   UNL     1       3.550   5.161  17.650  0.00  0.00    +0.000 A 
ENDROOT
BRANCH   1  12
ATOM     11  C   UNL     1       2.449   7.771  18.095  0.00  0.00    +0.000 C 
ATOM     12  C   UNL     1       3.675   7.673  17.548  0.00  0.00    +0.000 C 
BRANCH  11  13
ATOM     13  C   UNL     1       1.783   9.090  18.290  0.00  0.00    +0.000 C 
ATOM     14  O   UNL     1       1.697   9.908  17.381  0.00  0.00    +0.000 OA
BRANCH  13  18
ATOM     15  C   UNL     1       0.114  10.066  22.147  0.00  0.00    +0.000 A 
ATOM     16  C   UNL     1       0.040  10.964  21.081  0.00  0.00    +0.000 A 
ATOM     17  C   UNL     1       0.578  10.629  19.829  0.00  0.00    +0.000 A 
ATOM     18  C   UNL     1       1.197   9.388  19.633  0.00  0.00    +0.000 A 
ATOM     19  C   UNL     1       1.295   8.502  20.716  0.00  0.00    +0.000 A 
ATOM     20  C   UNL     1       0.752   8.841  21.966  0.00  0.00    +0.000 A 
BRANCH  15  22
ATOM     21  C   UNL     1      -1.583  11.337  23.207  0.00  0.00    +0.000 C 
ATOM     22  O   UNL     1      -0.426  10.516  23.321  0.00  0.00    +0.000 OA
ENDBRANCH  15  22
ENDBRANCH  13  18
ENDBRANCH  11  13
ENDBRANCH   1  12
BRANCH   2  23
ATOM     23  O   UNL     1       6.407   7.394  16.914  0.00  0.00    +0.000 OA
BRANCH  23  24
ATOM     24  C   UNL     1       7.661   7.374  17.618  0.00  0.00    +0.000 C 
BRANCH  24  25
ATOM     25  C   UNL     1       8.117   8.728  18.009  0.00  0.00    +0.000 A 
ATOM     26  C   UNL     1       8.986   9.112  19.005  0.00  0.00    +0.000 A 
ATOM     27  N   UNL     1       9.079  10.462  18.852  0.00  0.00    +0.000 N 
ATOM     28  N   UNL     1       8.304  10.901  17.843  0.00  0.00    +0.000 NA
ATOM     29  N   UNL     1       7.701   9.837  17.324  0.00  0.00    +0.000 NA
BRANCH  27  30
ATOM     30  C   UNL     1       9.955  11.367  19.566  0.00  0.00    +0.000 C 
BRANCH  30  31
ATOM     31  C   UNL     1      10.459  12.459  18.660  0.00  0.00    +0.000 A 
ATOM     32  C   UNL     1      11.470  12.192  17.725  0.00  0.00    +0.000 A 
ATOM     33  C   UNL     1      11.921  13.195  16.862  0.00  0.00    +0.000 A 
ATOM     34  C   UNL     1      11.359  14.469  16.921  0.00  0.00    +0.000 A 
ATOM     35  C   UNL     1      10.353  14.732  17.841  0.00  0.00    +0.000 A 
ATOM     36  F   UNL     1       9.805  15.953  17.891  0.00  0.00    +0.000 F 
ATOM     37  C   UNL     1       9.900  13.747  18.709  0.00  0.00    +0.000 A 
ENDBRANCH  30  31
ENDBRANCH  27  30
ENDBRANCH  24  25
ENDBRANCH  23  24
ENDBRANCH   2  23
TORSDOF 9
ENDMDL
MODEL 6
REMARK VINA RESULT:      -9.0      4.983      9.060
REMARK  Name = 
REMARK  10 active torsions:
REMARK  status: ('A' for Active; 'I' for Inactive)
REMARK    1  A    between atoms: C_1  and  O_2
REMARK    2  A    between atoms: O_2  and  C_3
REMARK    3  A    between atoms: C_6  and  C_7
REMARK    4  A    between atoms: C_7  and  C_9
REMARK    5  A    between atoms: C_10  and  C_11
REMARK    6  A    between atoms: C_12  and  O_13
REMARK    7  A    between atoms: O_13  and  C_14
REMARK    8  A    between atoms: C_14  and  C_15
REMARK    9  A    between atoms: N_17  and  C_18
REMARK   10  A    between atoms: C_18  and  C_19
REMARK                            x       y       z     vdW  Elec       q    Type
REMARK                         _______ _______ _______ _____ _____    ______ ____
ROOT
ATOM      1  C   UNL     1       2.904   5.984  18.371  0.00  0.00    +0.000 A 
ATOM      2  C   UNL     1       2.381   7.041  19.150  0.00  0.00    +0.000 A 
ATOM      3  C   UNL     1       1.573   6.751  20.253  0.00  0.00    +0.000 A 
ATOM      4  C   UNL     1       1.267   5.437  20.584  0.00  0.00    +0.000 A 
ATOM      5  C   UNL     1       1.733   4.381  19.802  0.00  0.00    +0.000 A 
ATOM      6  C   UNL     1       1.443   3.067  20.188  0.00  0.00    +0.000 A 
ATOM      7  C   UNL     1       1.860   1.988  19.413  0.00  0.00    +0.000 A 
ATOM      8  C   UNL     1       2.529   2.219  18.218  0.00  0.00    +0.000 A 
ATOM      9  C   UNL     1       2.850   3.525  17.839  0.00  0.00    +0.000 A 
ATOM     10  C   UNL     1       2.509   4.638  18.646  0.00  0.00    +0.000 A 
ENDROOT
BRANCH   1  12
ATOM     11  C   UNL     1       5.247   6.004  17.679  0.00  0.00    +0.000 C 
ATOM     12  C   UNL     1       3.961   6.247  17.368  0.00  0.00    +0.000 C 
BRANCH  11  13
ATOM     13  C   UNL     1       6.341   6.182  16.682  0.00  0.00    +0.000 C 
ATOM     14  O   UNL     1       7.236   7.003  16.848  0.00  0.00    +0.000 OA
BRANCH  13  18
ATOM     15  C   UNL     1       6.368   3.752  13.117  0.00  0.00    +0.000 A 
ATOM     16  C   UNL     1       7.371   4.691  13.357  0.00  0.00    +0.000 A 
ATOM     17  C   UNL     1       7.355   5.468  14.525  0.00  0.00    +0.000 A 
ATOM     18  C   UNL     1       6.331   5.309  15.468  0.00  0.00    +0.000 A 
ATOM     19  C   UNL     1       5.309   4.384  15.208  0.00  0.00    +0.000 A 
ATOM     20  C   UNL     1       5.331   3.607  14.037  0.00  0.00    +0.000 A 
BRANCH  15  22
ATOM     21  C   UNL     1       5.307   2.412  11.475  0.00  0.00    +0.000 C 
ATOM     22  O   UNL     1       6.480   3.073  11.934  0.00  0.00    +0.000 OA
ENDBRANCH  15  22
ENDBRANCH  13  18
ENDBRANCH  11  13
ENDBRANCH   1  12
BRANCH   2  23
ATOM     23  O   UNL     1       2.711   8.329  18.800  0.00  0.00    +0.000 OA
BRANCH  23  24
ATOM     24  C   UNL     1       1.856   8.929  17.812  0.00  0.00    +0.000 C 
BRANCH  24  25
ATOM     25  C   UNL     1       0.939   9.939  18.390  0.00  0.00    +0.000 A 
ATOM     26  C   UNL     1       1.203  10.974  19.258  0.00  0.00    +0.000 A 
ATOM     27  N   UNL     1       0.003  11.606  19.384  0.00  0.00    +0.000 N 
ATOM     28  N   UNL     1      -0.955  10.997  18.663  0.00  0.00    +0.000 NA
ATOM     29  N   UNL     1      -0.387   9.963  18.054  0.00  0.00    +0.000 NA
BRANCH  27  30
ATOM     30  C   UNL     1      -0.268  12.839  20.093  0.00  0.00    +0.000 C 
BRANCH  30  31
ATOM     31  C   UNL     1      -1.362  12.649  21.110  0.00  0.00    +0.000 A 
ATOM     32  C   UNL     1      -1.099  11.985  22.317  0.00  0.00    +0.000 A 
ATOM     33  C   UNL     1      -2.103  11.832  23.277  0.00  0.00    +0.000 A 
ATOM     34  C   UNL     1      -3.376  12.349  23.041  0.00  0.00    +0.000 A 
ATOM     35  C   UNL     1      -3.635  13.013  21.850  0.00  0.00    +0.000 A 
ATOM     36  F   UNL     1      -4.855  13.519  21.626  0.00  0.00    +0.000 F 
ATOM     37  C   UNL     1      -2.648  13.166  20.884  0.00  0.00    +0.000 A 
ENDBRANCH  30  31
ENDBRANCH  27  30
ENDBRANCH  24  25
ENDBRANCH  23  24
ENDBRANCH   2  23
TORSDOF 9
ENDMDL
MODEL 7
REMARK VINA RESULT:      -8.9      4.997      9.252
REMARK  Name = 
REMARK  10 active torsions:
REMARK  status: ('A' for Active; 'I' for Inactive)
REMARK    1  A    between atoms: C_1  and  O_2
REMARK    2  A    between atoms: O_2  and  C_3
REMARK    3  A    between atoms: C_6  and  C_7
REMARK    4  A    between atoms: C_7  and  C_9
REMARK    5  A    between atoms: C_10  and  C_11
REMARK    6  A    between atoms: C_12  and  O_13
REMARK    7  A    between atoms: O_13  and  C_14
REMARK    8  A    between atoms: C_14  and  C_15
REMARK    9  A    between atoms: N_17  and  C_18
REMARK   10  A    between atoms: C_18  and  C_19
REMARK                            x       y       z     vdW  Elec       q    Type
REMARK                         _______ _______ _______ _____ _____    ______ ____
ROOT
ATOM      1  C   UNL     1       2.587   5.711  18.679  0.00  0.00    +0.000 A 
ATOM      2  C   UNL     1       1.950   6.472  19.685  0.00  0.00    +0.000 A 
ATOM      3  C   UNL     1       1.210   5.823  20.678  0.00  0.00    +0.000 A 
ATOM      4  C   UNL     1       1.083   4.439  20.678  0.00  0.00    +0.000 A 
ATOM      5  C   UNL     1       1.663   3.672  19.669  0.00  0.00    +0.000 A 
ATOM      6  C   UNL     1       1.552   2.278  19.723  0.00  0.00    +0.000 A 
ATOM      7  C   UNL     1       2.086   1.481  18.714  0.00  0.00    +0.000 A 
ATOM      8  C   UNL     1       2.694   2.077  17.617  0.00  0.00    +0.000 A 
ATOM      9  C   UNL     1       2.836   3.467  17.568  0.00  0.00    +0.000 A 
ATOM     10  C   UNL     1       2.373   4.298  18.617  0.00  0.00    +0.000 A 
ENDROOT
BRANCH   1  12
ATOM     11  C   UNL     1       4.794   5.784  17.634  0.00  0.00    +0.000 C 
ATOM     12  C   UNL     1       3.579   6.343  17.779  0.00  0.00    +0.000 C 
BRANCH  11  13
ATOM     13  C   UNL     1       5.802   6.337  16.686  0.00  0.00    +0.000 C 
ATOM     14  O   UNL     1       6.408   7.376  16.925  0.00  0.00    +0.000 OA
BRANCH  13  18
ATOM     15  C   UNL     1       6.511   4.053  13.096  0.00  0.00    +0.000 A 
ATOM     16  C   UNL     1       5.280   4.003  13.750  0.00  0.00    +0.000 A 
ATOM     17  C   UNL     1       5.060   4.759  14.911  0.00  0.00    +0.000 A 
ATOM     18  C   UNL     1       6.074   5.575  15.428  0.00  0.00    +0.000 A 
ATOM     19  C   UNL     1       7.319   5.598  14.784  0.00  0.00    +0.000 A 
ATOM     20  C   UNL     1       7.534   4.841  13.620  0.00  0.00    +0.000 A 
BRANCH  15  22
ATOM     21  C   UNL     1       5.552   2.326  11.786  0.00  0.00    +0.000 C 
ATOM     22  O   UNL     1       6.611   3.254  11.989  0.00  0.00    +0.000 OA
ENDBRANCH  15  22
ENDBRANCH  13  18
ENDBRANCH  11  13
ENDBRANCH   1  12
BRANCH   2  23
ATOM     23  O   UNL     1       2.104   7.838  19.660  0.00  0.00    +0.000 OA
BRANCH  23  24
ATOM     24  C   UNL     1       1.515   8.538  20.769  0.00  0.00    +0.000 C 
BRANCH  24  25
ATOM     25  C   UNL     1       0.999   9.874  20.391  0.00  0.00    +0.000 A 
ATOM     26  C   UNL     1       0.445  10.301  19.206  0.00  0.00    +0.000 A 
ATOM     27  N   UNL     1       0.094  11.593  19.459  0.00  0.00    +0.000 N 
ATOM     28  N   UNL     1       0.425  11.960  20.710  0.00  0.00    +0.000 NA
ATOM     29  N   UNL     1       0.991  10.907  21.288  0.00  0.00    +0.000 NA
BRANCH  27  30
ATOM     30  C   UNL     1      -0.640  12.488  18.589  0.00  0.00    +0.000 C 
BRANCH  30  31
ATOM     31  C   UNL     1      -2.000  11.931  18.263  0.00  0.00    +0.000 A 
ATOM     32  C   UNL     1      -3.084  12.161  19.123  0.00  0.00    +0.000 A 
ATOM     33  C   UNL     1      -4.355  11.671  18.809  0.00  0.00    +0.000 A 
ATOM     34  C   UNL     1      -4.554  10.954  17.630  0.00  0.00    +0.000 A 
ATOM     35  C   UNL     1      -3.483  10.733  16.774  0.00  0.00    +0.000 A 
ATOM     36  F   UNL     1      -3.675  10.054  15.636  0.00  0.00    +0.000 F 
ATOM     37  C   UNL     1      -2.213  11.208  17.077  0.00  0.00    +0.000 A 
ENDBRANCH  30  31
ENDBRANCH  27  30
ENDBRANCH  24  25
ENDBRANCH  23  24
ENDBRANCH   2  23
TORSDOF 9
ENDMDL
MODEL 8
REMARK VINA RESULT:      -8.9      4.933      9.403
REMARK  Name = 
REMARK  10 active torsions:
REMARK  status: ('A' for Active; 'I' for Inactive)
REMARK    1  A    between atoms: C_1  and  O_2
REMARK    2  A    between atoms: O_2  and  C_3
REMARK    3  A    between atoms: C_6  and  C_7
REMARK    4  A    between atoms: C_7  and  C_9
REMARK    5  A    between atoms: C_10  and  C_11
REMARK    6  A    between atoms: C_12  and  O_13
REMARK    7  A    between atoms: O_13  and  C_14
REMARK    8  A    between atoms: C_14  and  C_15
REMARK    9  A    between atoms: N_17  and  C_18
REMARK   10  A    between atoms: C_18  and  C_19
REMARK                            x       y       z     vdW  Elec       q    Type
REMARK                         _______ _______ _______ _____ _____    ______ ____
ROOT
ATOM      1  C   UNL     1       2.653   5.664  18.640  0.00  0.00    +0.000 A 
ATOM      2  C   UNL     1       2.120   6.472  19.668  0.00  0.00    +0.000 A 
ATOM      3  C   UNL     1       1.406   5.879  20.713  0.00  0.00    +0.000 A 
ATOM      4  C   UNL     1       1.203   4.504  20.744  0.00  0.00    +0.000 A 
ATOM      5  C   UNL     1       1.679   3.693  19.715  0.00  0.00    +0.000 A 
ATOM      6  C   UNL     1       1.496   2.308  19.798  0.00  0.00    +0.000 A 
ATOM      7  C   UNL     1       1.925   1.469  18.773  0.00  0.00    +0.000 A 
ATOM      8  C   UNL     1       2.498   2.016  17.633  0.00  0.00    +0.000 A 
ATOM      9  C   UNL     1       2.713   3.394  17.553  0.00  0.00    +0.000 A 
ATOM     10  C   UNL     1       2.359   4.265  18.613  0.00  0.00    +0.000 A 
ENDROOT
BRANCH   1  12
ATOM     11  C   UNL     1       4.910   5.836  17.718  0.00  0.00    +0.000 C 
ATOM     12  C   UNL     1       3.624   6.228  17.673  0.00  0.00    +0.000 C 
BRANCH  11  13
ATOM     13  C   UNL     1       5.910   6.315  16.723  0.00  0.00    +0.000 C 
ATOM     14  O   UNL     1       6.568   7.333  16.911  0.00  0.00    +0.000 OA
BRANCH  13  18
ATOM     15  C   UNL     1       6.434   3.881  13.200  0.00  0.00    +0.000 A 
ATOM     16  C   UNL     1       5.365   3.668  14.070  0.00  0.00    +0.000 A 
ATOM     17  C   UNL     1       5.201   4.474  15.207  0.00  0.00    +0.000 A 
ATOM     18  C   UNL     1       6.109   5.505  15.482  0.00  0.00    +0.000 A 
ATOM     19  C   UNL     1       7.199   5.695  14.620  0.00  0.00    +0.000 A 
ATOM     20  C   UNL     1       7.357   4.887  13.482  0.00  0.00    +0.000 A 
BRANCH  15  22
ATOM     21  C   UNL     1       5.262   2.692  11.518  0.00  0.00    +0.000 C 
ATOM     22  O   UNL     1       6.499   3.017  12.140  0.00  0.00    +0.000 OA
ENDBRANCH  15  22
ENDBRANCH  13  18
ENDBRANCH  11  13
ENDBRANCH   1  12
BRANCH   2  23
ATOM     23  O   UNL     1       2.348   7.827  19.612  0.00  0.00    +0.000 OA
BRANCH  23  24
ATOM     24  C   UNL     1       1.563   8.614  20.524  0.00  0.00    +0.000 C 
BRANCH  24  25
ATOM     25  C   UNL     1       0.895   9.759  19.860  0.00  0.00    +0.000 A 
ATOM     26  C   UNL     1      -0.281  10.398  20.180  0.00  0.00    +0.000 A 
ATOM     27  N   UNL     1      -0.357  11.410  19.272  0.00  0.00    +0.000 N 
ATOM     28  N   UNL     1       0.688  11.395  18.424  0.00  0.00    +0.000 NA
ATOM     29  N   UNL     1       1.460  10.373  18.776  0.00  0.00    +0.000 NA
BRANCH  27  30
ATOM     30  C   UNL     1      -1.340  12.471  19.222  0.00  0.00    +0.000 C 
BRANCH  30  31
ATOM     31  C   UNL     1      -2.632  11.985  18.621  0.00  0.00    +0.000 A 
ATOM     32  C   UNL     1      -2.633  11.333  17.378  0.00  0.00    +0.000 A 
ATOM     33  C   UNL     1      -3.826  10.853  16.829  0.00  0.00    +0.000 A 
ATOM     34  C   UNL     1      -5.025  11.014  17.522  0.00  0.00    +0.000 A 
ATOM     35  C   UNL     1      -5.024  11.651  18.755  0.00  0.00    +0.000 A 
ATOM     36  F   UNL     1      -6.174  11.797  19.426  0.00  0.00    +0.000 F 
ATOM     37  C   UNL     1      -3.847  12.140  19.309  0.00  0.00    +0.000 A 
ENDBRANCH  30  31
ENDBRANCH  27  30
ENDBRANCH  24  25
ENDBRANCH  23  24
ENDBRANCH   2  23
TORSDOF 9
ENDMDL
MODEL 9
REMARK VINA RESULT:      -8.9      4.637      8.849
REMARK  Name = 
REMARK  10 active torsions:
REMARK  status: ('A' for Active; 'I' for Inactive)
REMARK    1  A    between atoms: C_1  and  O_2
REMARK    2  A    between atoms: O_2  and  C_3
REMARK    3  A    between atoms: C_6  and  C_7
REMARK    4  A    between atoms: C_7  and  C_9
REMARK    5  A    between atoms: C_10  and  C_11
REMARK    6  A    between atoms: C_12  and  O_13
REMARK    7  A    between atoms: O_13  and  C_14
REMARK    8  A    between atoms: C_14  and  C_15
REMARK    9  A    between atoms: N_17  and  C_18
REMARK   10  A    between atoms: C_18  and  C_19
REMARK                            x       y       z     vdW  Elec       q    Type
REMARK                         _______ _______ _______ _____ _____    ______ ____
ROOT
ATOM      1  C   UNL     1       2.882   5.883  18.340  0.00  0.00    +0.000 A 
ATOM      2  C   UNL     1       2.313   6.846  19.203  0.00  0.00    +0.000 A 
ATOM      3  C   UNL     1       1.492   6.431  20.255  0.00  0.00    +0.000 A 
ATOM      4  C   UNL     1       1.217   5.083  20.452  0.00  0.00    +0.000 A 
ATOM      5  C   UNL     1       1.728   4.119  19.585  0.00  0.00    +0.000 A 
ATOM      6  C   UNL     1       1.468   2.767  19.837  0.00  0.00    +0.000 A 
ATOM      7  C   UNL     1       1.930   1.780  18.973  0.00  0.00    +0.000 A 
ATOM      8  C   UNL     1       2.616   2.140  17.821  0.00  0.00    +0.000 A 
ATOM      9  C   UNL     1       2.908   3.485  17.575  0.00  0.00    +0.000 A 
ATOM     10  C   UNL     1       2.519   4.506  18.477  0.00  0.00    +0.000 A 
ENDROOT
BRANCH   1  12
ATOM     11  C   UNL     1       5.197   5.790  17.563  0.00  0.00    +0.000 C 
ATOM     12  C   UNL     1       3.951   6.268  17.390  0.00  0.00    +0.000 C 
BRANCH  11  13
ATOM     13  C   UNL     1       6.290   6.087  16.595  0.00  0.00    +0.000 C 
ATOM     14  O   UNL     1       7.156   6.920  16.838  0.00  0.00    +0.000 OA
BRANCH  13  18
ATOM     15  C   UNL     1       6.305   3.786  12.945  0.00  0.00    +0.000 A 
ATOM     16  C   UNL     1       5.220   3.741  13.821  0.00  0.00    +0.000 A 
ATOM     17  C   UNL     1       5.224   4.503  15.000  0.00  0.00    +0.000 A 
ATOM     18  C   UNL     1       6.319   5.319  15.312  0.00  0.00    +0.000 A 
ATOM     19  C   UNL     1       7.419   5.338  14.443  0.00  0.00    +0.000 A 
ATOM     20  C   UNL     1       7.409   4.576  13.262  0.00  0.00    +0.000 A 
BRANCH  15  22
ATOM     21  C   UNL     1       4.871   2.608  11.470  0.00  0.00    +0.000 C 
ATOM     22  O   UNL     1       6.192   2.984  11.842  0.00  0.00    +0.000 OA
ENDBRANCH  15  22
ENDBRANCH  13  18
ENDBRANCH  11  13
ENDBRANCH   1  12
BRANCH   2  23
ATOM     23  O   UNL     1       2.614   8.170  18.984  0.00  0.00    +0.000 OA
BRANCH  23  24
ATOM     24  C   UNL     1       1.588   8.924  18.317  0.00  0.00    +0.000 C 
BRANCH  24  25
ATOM     25  C   UNL     1       1.417  10.281  18.887  0.00  0.00    +0.000 A 
ATOM     26  C   UNL     1       0.774  10.679  20.038  0.00  0.00    +0.000 A 
ATOM     27  N   UNL     1       0.998  12.021  20.087  0.00  0.00    +0.000 N 
ATOM     28  N   UNL     1       1.713  12.443  19.029  0.00  0.00    +0.000 NA
ATOM     29  N   UNL     1       1.968  11.376  18.280  0.00  0.00    +0.000 NA
BRANCH  27  30
ATOM     30  C   UNL     1       0.643  12.930  21.156  0.00  0.00    +0.000 C 
BRANCH  30  31
ATOM     31  C   UNL     1      -0.835  12.882  21.439  0.00  0.00    +0.000 A 
ATOM     32  C   UNL     1      -1.750  13.413  20.517  0.00  0.00    +0.000 A 
ATOM     33  C   UNL     1      -3.125  13.344  20.762  0.00  0.00    +0.000 A 
ATOM     34  C   UNL     1      -3.595  12.738  21.925  0.00  0.00    +0.000 A 
ATOM     35  C   UNL     1      -2.691  12.205  22.834  0.00  0.00    +0.000 A 
ATOM     36  F   UNL     1      -3.143  11.612  23.947  0.00  0.00    +0.000 F 
ATOM     37  C   UNL     1      -1.322  12.273  22.607  0.00  0.00    +0.000 A 
ENDBRANCH  30  31
ENDBRANCH  27  30
ENDBRANCH  24  25
ENDBRANCH  23  24
ENDBRANCH   2  23
TORSDOF 9
ENDMDL
