MODEL 1
REMARK VINA RESULT:      -8.2      0.000      0.000
REMARK  Name = 
REMARK  2 active torsions:
REMARK  status: ('A' for Active; 'I' for Inactive)
REMARK    1  A    between atoms: N_6  and  C_7
REMARK    2  A    between atoms: N_15  and  C_16
REMARK                            x       y       z     vdW  Elec       q    Type
REMARK                         _______ _______ _______ _____ _____    ______ ____
ROOT
ATOM      1  C   UNL     1       1.324   2.580  19.186  0.00  0.00    +0.000 A 
ATOM      2  C   UNL     1       0.820   3.166  20.334  0.00  0.00    +0.000 A 
ATOM      3  C   UNL     1       1.101   4.507  20.601  0.00  0.00    +0.000 A 
ATOM      4  C   UNL     1       1.911   5.296  19.743  0.00  0.00    +0.000 A 
ATOM      5  C   UNL     1       2.161   6.668  19.972  0.00  0.00    +0.000 A 
ATOM      6  N   UNL     1       1.565   7.272  21.090  0.00  0.00    +0.000 N 
ATOM      7  N   UNL     1       2.959   7.358  19.134  0.00  0.00    +0.000 NA
ATOM      8  N   UNL     1       3.589   6.727  18.062  0.00  0.00    +0.000 NA
ATOM      9  C   UNL     1       3.339   5.433  17.776  0.00  0.00    +0.000 A 
ATOM     10  N   UNL     1       3.924   4.787  16.676  0.00  0.00    +0.000 N 
ATOM     11  C   UNL     1       2.462   4.684  18.593  0.00  0.00    +0.000 A 
ATOM     12  C   UNL     1       2.138   3.325  18.334  0.00  0.00    +0.000 A 
ATOM     13  H   UNL     1       1.936   6.850  21.937  0.00  0.00    +0.000 HD
ATOM     14  H   UNL     1       3.208   4.510  16.016  0.00  0.00    +0.000 HD
ENDROOT
BRANCH   6  15
ATOM     15  C   UNL     1       1.383   8.715  21.179  0.00  0.00    +0.000 C 
ATOM     16  C   UNL     1       0.249   9.081  20.208  0.00  0.00    +0.000 C 
ATOM     17  C   UNL     1      -0.515  10.231  20.831  0.00  0.00    +0.000 C 
ATOM     18  C   UNL     1      -0.178  10.233  22.313  0.00  0.00    +0.000 C 
ATOM     19  C   UNL     1       0.893   9.172  22.547  0.00  0.00    +0.000 C 
ENDBRANCH   6  15
BRANCH  10  20
ATOM     20  C   UNL     1       5.146   5.285  16.053  0.00  0.00    +0.000 C 
ATOM     21  C   UNL     1       6.317   4.806  16.924  0.00  0.00    +0.000 C 
ATOM     22  C   UNL     1       7.481   4.519  15.994  0.00  0.00    +0.000 C 
ATOM     23  C   UNL     1       6.903   4.388  14.594  0.00  0.00    +0.000 C 
ATOM     24  C   UNL     1       5.410   4.687  14.677  0.00  0.00    +0.000 C 
ENDBRANCH  10  20
TORSDOF 2
ENDMDL
MODEL 2
REMARK VINA RESULT:      -8.2      0.029      6.987
REMARK  Name = 
REMARK  2 active torsions:
REMARK  status: ('A' for Active; 'I' for Inactive)
REMARK    1  A    between atoms: N_6  and  C_7
REMARK    2  A    between atoms: N_15  and  C_16
REMARK                            x       y       z     vdW  Elec       q    Type
REMARK                         _______ _______ _______ _____ _____    ______ ____
ROOT
ATOM      1  C   UNL     1       0.816   3.170  20.357  0.00  0.00    +0.000 A 
ATOM      2  C   UNL     1       1.318   2.580  19.209  0.00  0.00    +0.000 A 
ATOM      3  C   UNL     1       2.143   3.321  18.362  0.00  0.00    +0.000 A 
ATOM      4  C   UNL     1       2.474   4.678  18.622  0.00  0.00    +0.000 A 
ATOM      5  C   UNL     1       3.349   5.425  17.802  0.00  0.00    +0.000 A 
ATOM      6  N   UNL     1       3.925   4.785  16.693  0.00  0.00    +0.000 N 
ATOM      7  N   UNL     1       3.604   6.716  18.088  0.00  0.00    +0.000 NA
ATOM      8  N   UNL     1       2.977   7.351  19.159  0.00  0.00    +0.000 NA
ATOM      9  C   UNL     1       2.176   6.664  19.998  0.00  0.00    +0.000 A 
ATOM     10  N   UNL     1       1.569   7.268  21.109  0.00  0.00    +0.000 N 
ATOM     11  C   UNL     1       1.925   5.291  19.772  0.00  0.00    +0.000 A 
ATOM     12  C   UNL     1       1.109   4.505  20.629  0.00  0.00    +0.000 A 
ATOM     13  H   UNL     1       3.193   4.529  16.036  0.00  0.00    +0.000 HD
ATOM     14  H   UNL     1       1.916   6.848  21.964  0.00  0.00    +0.000 HD
ENDROOT
BRANCH   6  15
ATOM     15  C   UNL     1       5.139   5.285  16.061  0.00  0.00    +0.000 C 
ATOM     16  C   UNL     1       6.320   4.782  16.908  0.00  0.00    +0.000 C 
ATOM     17  C   UNL     1       7.464   4.508  15.954  0.00  0.00    +0.000 C 
ATOM     18  C   UNL     1       6.859   4.371  14.568  0.00  0.00    +0.000 C 
ATOM     19  C   UNL     1       5.374   4.702  14.674  0.00  0.00    +0.000 C 
ENDBRANCH   6  15
BRANCH  10  20
ATOM     20  C   UNL     1       1.380   8.712  21.192  0.00  0.00    +0.000 C 
ATOM     21  C   UNL     1       0.254   9.070  20.210  0.00  0.00    +0.000 C 
ATOM     22  C   UNL     1      -0.526  10.220  20.820  0.00  0.00    +0.000 C 
ATOM     23  C   UNL     1      -0.178  10.252  22.299  0.00  0.00    +0.000 C 
ATOM     24  C   UNL     1       0.878   9.180  22.552  0.00  0.00    +0.000 C 
ENDBRANCH  10  20
TORSDOF 2
ENDMDL
MODEL 3
REMARK VINA RESULT:      -7.3      1.034      7.059
REMARK  Name = 
REMARK  2 active torsions:
REMARK  status: ('A' for Active; 'I' for Inactive)
REMARK    1  A    between atoms: N_6  and  C_7
REMARK    2  A    between atoms: N_15  and  C_16
REMARK                            x       y       z     vdW  Elec       q    Type
REMARK                         _______ _______ _______ _____ _____    ______ ____
ROOT
ATOM      1  C   UNL     1       1.503   4.244  20.965  0.00  0.00    +0.000 A 
ATOM      2  C   UNL     1       2.081   3.402  20.030  0.00  0.00    +0.000 A 
ATOM      3  C   UNL     1       2.739   3.950  18.927  0.00  0.00    +0.000 A 
ATOM      4  C   UNL     1       2.820   5.351  18.713  0.00  0.00    +0.000 A 
ATOM      5  C   UNL     1       3.527   5.922  17.630  0.00  0.00    +0.000 A 
ATOM      6  N   UNL     1       4.187   5.058  16.742  0.00  0.00    +0.000 N 
ATOM      7  N   UNL     1       3.546   7.259  17.467  0.00  0.00    +0.000 NA
ATOM      8  N   UNL     1       2.835   8.097  18.325  0.00  0.00    +0.000 NA
ATOM      9  C   UNL     1       2.190   7.600  19.400  0.00  0.00    +0.000 A 
ATOM     10  N   UNL     1       1.506   8.426  20.304  0.00  0.00    +0.000 N 
ATOM     11  C   UNL     1       2.191   6.208  19.646  0.00  0.00    +0.000 A 
ATOM     12  C   UNL     1       1.551   5.624  20.771  0.00  0.00    +0.000 A 
ATOM     13  H   UNL     1       3.501   4.482  16.261  0.00  0.00    +0.000 HD
ATOM     14  H   UNL     1       1.941   8.375  21.218  0.00  0.00    +0.000 HD
ENDROOT
BRANCH   6  15
ATOM     15  C   UNL     1       5.276   5.518  15.890  0.00  0.00    +0.000 C 
ATOM     16  C   UNL     1       6.583   5.245  16.653  0.00  0.00    +0.000 C 
ATOM     17  C   UNL     1       7.631   4.883  15.620  0.00  0.00    +0.000 C 
ATOM     18  C   UNL     1       6.887   4.471  14.362  0.00  0.00    +0.000 C 
ATOM     19  C   UNL     1       5.400   4.720  14.598  0.00  0.00    +0.000 C 
ENDBRANCH   6  15
BRANCH  10  20
ATOM     20  C   UNL     1       1.057   9.764  19.935  0.00  0.00    +0.000 C 
ATOM     21  C   UNL     1      -0.189   9.588  19.054  0.00  0.00    +0.000 C 
ATOM     22  C   UNL     1      -1.121  10.747  19.355  0.00  0.00    +0.000 C 
ATOM     23  C   UNL     1      -0.671  11.340  20.680  0.00  0.00    +0.000 C 
ATOM     24  C   UNL     1       0.583  10.593  21.123  0.00  0.00    +0.000 C 
ENDBRANCH  10  20
TORSDOF 2
ENDMDL
MODEL 4
REMARK VINA RESULT:      -7.3      1.063      1.191
REMARK  Name = 
REMARK  2 active torsions:
REMARK  status: ('A' for Active; 'I' for Inactive)
REMARK    1  A    between atoms: N_6  and  C_7
REMARK    2  A    between atoms: N_15  and  C_16
REMARK                            x       y       z     vdW  Elec       q    Type
REMARK                         _______ _______ _______ _____ _____    ______ ____
ROOT
ATOM      1  C   UNL     1       2.117   3.443  20.069  0.00  0.00    +0.000 A 
ATOM      2  C   UNL     1       1.533   4.287  20.999  0.00  0.00    +0.000 A 
ATOM      3  C   UNL     1       1.558   5.666  20.785  0.00  0.00    +0.000 A 
ATOM      4  C   UNL     1       2.185   6.245  19.650  0.00  0.00    +0.000 A 
ATOM      5  C   UNL     1       2.173   7.635  19.393  0.00  0.00    +0.000 A 
ATOM      6  N   UNL     1       1.495   8.469  20.297  0.00  0.00    +0.000 N 
ATOM      7  N   UNL     1       2.807   8.127  18.312  0.00  0.00    +0.000 NA
ATOM      8  N   UNL     1       3.524   7.289  17.459  0.00  0.00    +0.000 NA
ATOM      9  C   UNL     1       3.520   5.953  17.636  0.00  0.00    +0.000 A 
ATOM     10  N   UNL     1       4.196   5.084  16.766  0.00  0.00    +0.000 N 
ATOM     11  C   UNL     1       2.819   5.385  18.724  0.00  0.00    +0.000 A 
ATOM     12  C   UNL     1       2.756   3.985  18.955  0.00  0.00    +0.000 A 
ATOM     13  H   UNL     1       1.957   8.430  21.201  0.00  0.00    +0.000 HD
ATOM     14  H   UNL     1       3.533   4.480  16.295  0.00  0.00    +0.000 HD
ENDROOT
BRANCH   6  15
ATOM     15  C   UNL     1       1.042   9.802  19.920  0.00  0.00    +0.000 C 
ATOM     16  C   UNL     1      -0.240   9.619  19.091  0.00  0.00    +0.000 C 
ATOM     17  C   UNL     1      -1.144  10.793  19.408  0.00  0.00    +0.000 C 
ATOM     18  C   UNL     1      -0.657  11.383  20.720  0.00  0.00    +0.000 C 
ATOM     19  C   UNL     1       0.621  10.649  21.115  0.00  0.00    +0.000 C 
ENDBRANCH   6  15
BRANCH  10  20
ATOM     20  C   UNL     1       5.287   5.545  15.914  0.00  0.00    +0.000 C 
ATOM     21  C   UNL     1       6.594   5.246  16.664  0.00  0.00    +0.000 C 
ATOM     22  C   UNL     1       7.638   4.885  15.623  0.00  0.00    +0.000 C 
ATOM     23  C   UNL     1       6.886   4.533  14.351  0.00  0.00    +0.000 C 
ATOM     24  C   UNL     1       5.401   4.773  14.605  0.00  0.00    +0.000 C 
ENDBRANCH  10  20
TORSDOF 2
ENDMDL
MODEL 5
REMARK VINA RESULT:      -7.3      1.201      1.722
REMARK  Name = 
REMARK  2 active torsions:
REMARK  status: ('A' for Active; 'I' for Inactive)
REMARK    1  A    between atoms: N_6  and  C_7
REMARK    2  A    between atoms: N_15  and  C_16
REMARK                            x       y       z     vdW  Elec       q    Type
REMARK                         _______ _______ _______ _____ _____    ______ ____
ROOT
ATOM      1  C   UNL     1       1.679   2.214  19.987  0.00  0.00    +0.000 A 
ATOM      2  C   UNL     1       1.140   3.177  20.823  0.00  0.00    +0.000 A 
ATOM      3  C   UNL     1       1.456   4.520  20.615  0.00  0.00    +0.000 A 
ATOM      4  C   UNL     1       2.337   4.941  19.584  0.00  0.00    +0.000 A 
ATOM      5  C   UNL     1       2.625   6.301  19.329  0.00  0.00    +0.000 A 
ATOM      6  N   UNL     1       1.997   7.271  20.125  0.00  0.00    +0.000 N 
ATOM      7  N   UNL     1       3.489   6.635  18.351  0.00  0.00    +0.000 NA
ATOM      8  N   UNL     1       4.148   5.655  17.610  0.00  0.00    +0.000 NA
ATOM      9  C   UNL     1       3.865   4.349  17.785  0.00  0.00    +0.000 A 
ATOM     10  N   UNL     1       4.481   3.346  17.021  0.00  0.00    +0.000 N 
ATOM     11  C   UNL     1       2.921   3.952  18.759  0.00  0.00    +0.000 A 
ATOM     12  C   UNL     1       2.561   2.596  18.977  0.00  0.00    +0.000 A 
ATOM     13  H   UNL     1       2.310   7.171  21.087  0.00  0.00    +0.000 HD
ATOM     14  H   UNL     1       3.788   2.864  16.459  0.00  0.00    +0.000 HD
ENDROOT
BRANCH   6  15
ATOM     15  C   UNL     1       1.864   8.655  19.688  0.00  0.00    +0.000 C 
ATOM     16  C   UNL     1       1.441   8.616  18.211  0.00  0.00    +0.000 C 
ATOM     17  C   UNL     1       0.518   9.796  17.982  0.00  0.00    +0.000 C 
ATOM     18  C   UNL     1       0.013  10.231  19.347  0.00  0.00    +0.000 C 
ATOM     19  C   UNL     1       0.741   9.400  20.399  0.00  0.00    +0.000 C 
ENDBRANCH   6  15
BRANCH  10  20
ATOM     20  C   UNL     1       5.749   3.570  16.336  0.00  0.00    +0.000 C 
ATOM     21  C   UNL     1       5.419   4.234  14.992  0.00  0.00    +0.000 C 
ATOM     22  C   UNL     1       6.545   5.203  14.680  0.00  0.00    +0.000 C 
ATOM     23  C   UNL     1       7.284   5.452  15.984  0.00  0.00    +0.000 C 
ATOM     24  C   UNL     1       6.656   4.563  17.053  0.00  0.00    +0.000 C 
ENDBRANCH  10  20
TORSDOF 2
ENDMDL
MODEL 6
REMARK VINA RESULT:      -7.3      1.210      6.443
REMARK  Name = 
REMARK  2 active torsions:
REMARK  status: ('A' for Active; 'I' for Inactive)
REMARK    1  A    between atoms: N_6  and  C_7
REMARK    2  A    between atoms: N_15  and  C_16
REMARK                            x       y       z     vdW  Elec       q    Type
REMARK                         _______ _______ _______ _____ _____    ______ ____
ROOT
ATOM      1  C   UNL     1       1.170   3.198  20.856  0.00  0.00    +0.000 A 
ATOM      2  C   UNL     1       1.705   2.225  20.029  0.00  0.00    +0.000 A 
ATOM      3  C   UNL     1       2.596   2.596  19.022  0.00  0.00    +0.000 A 
ATOM      4  C   UNL     1       2.964   3.948  18.794  0.00  0.00    +0.000 A 
ATOM      5  C   UNL     1       3.905   4.332  17.813  0.00  0.00    +0.000 A 
ATOM      6  N   UNL     1       4.509   3.325  17.045  0.00  0.00    +0.000 N 
ATOM      7  N   UNL     1       4.193   5.635  17.629  0.00  0.00    +0.000 NA
ATOM      8  N   UNL     1       3.539   6.625  18.360  0.00  0.00    +0.000 NA
ATOM      9  C   UNL     1       2.672   6.302  19.341  0.00  0.00    +0.000 A 
ATOM     10  N   UNL     1       2.036   7.278  20.123  0.00  0.00    +0.000 N 
ATOM     11  C   UNL     1       2.383   4.945  19.611  0.00  0.00    +0.000 A 
ATOM     12  C   UNL     1       1.498   4.537  20.645  0.00  0.00    +0.000 A 
ATOM     13  H   UNL     1       3.802   2.861  16.482  0.00  0.00    +0.000 HD
ATOM     14  H   UNL     1       2.325   7.190  21.090  0.00  0.00    +0.000 HD
ENDROOT
BRANCH   6  15
ATOM     15  C   UNL     1       5.771   3.542  16.348  0.00  0.00    +0.000 C 
ATOM     16  C   UNL     1       5.428   4.210  15.007  0.00  0.00    +0.000 C 
ATOM     17  C   UNL     1       6.558   5.168  14.687  0.00  0.00    +0.000 C 
ATOM     18  C   UNL     1       7.290   5.436  15.991  0.00  0.00    +0.000 C 
ATOM     19  C   UNL     1       6.683   4.532  17.060  0.00  0.00    +0.000 C 
ENDBRANCH   6  15
BRANCH  10  20
ATOM     20  C   UNL     1       1.896   8.656  19.668  0.00  0.00    +0.000 C 
ATOM     21  C   UNL     1       1.383   8.599  18.221  0.00  0.00    +0.000 C 
ATOM     22  C   UNL     1       0.462   9.787  18.022  0.00  0.00    +0.000 C 
ATOM     23  C   UNL     1       0.072  10.278  19.406  0.00  0.00    +0.000 C 
ATOM     24  C   UNL     1       0.834   9.440  20.429  0.00  0.00    +0.000 C 
ENDBRANCH  10  20
TORSDOF 2
ENDMDL
MODEL 7
REMARK VINA RESULT:      -7.2      1.133      6.391
REMARK  Name = 
REMARK  2 active torsions:
REMARK  status: ('A' for Active; 'I' for Inactive)
REMARK    1  A    between atoms: N_6  and  C_7
REMARK    2  A    between atoms: N_15  and  C_16
REMARK                            x       y       z     vdW  Elec       q    Type
REMARK                         _______ _______ _______ _____ _____    ______ ____
ROOT
ATOM      1  C   UNL     1       0.577   2.791  19.645  0.00  0.00    +0.000 A 
ATOM      2  C   UNL     1       1.344   2.207  18.650  0.00  0.00    +0.000 A 
ATOM      3  C   UNL     1       2.444   2.897  18.139  0.00  0.00    +0.000 A 
ATOM      4  C   UNL     1       2.800   4.196  18.587  0.00  0.00    +0.000 A 
ATOM      5  C   UNL     1       3.941   4.884  18.116  0.00  0.00    +0.000 A 
ATOM      6  N   UNL     1       4.760   4.241  17.176  0.00  0.00    +0.000 N 
ATOM      7  N   UNL     1       4.211   6.126  18.563  0.00  0.00    +0.000 NA
ATOM      8  N   UNL     1       3.353   6.771  19.452  0.00  0.00    +0.000 NA
ATOM      9  C   UNL     1       2.282   6.134  19.966  0.00  0.00    +0.000 A 
ATOM     10  N   UNL     1       1.428   6.745  20.897  0.00  0.00    +0.000 N 
ATOM     11  C   UNL     1       1.990   4.808  19.572  0.00  0.00    +0.000 A 
ATOM     12  C   UNL     1       0.892   4.073  20.093  0.00  0.00    +0.000 A 
ATOM     13  H   UNL     1       4.237   4.097  16.317  0.00  0.00    +0.000 HD
ATOM     14  H   UNL     1       1.468   6.250  21.780  0.00  0.00    +0.000 HD
ENDROOT
BRANCH   6  15
ATOM     15  C   UNL     1       6.147   4.639  16.965  0.00  0.00    +0.000 C 
ATOM     16  C   UNL     1       6.121   6.101  16.489  0.00  0.00    +0.000 C 
ATOM     17  C   UNL     1       7.354   6.773  17.059  0.00  0.00    +0.000 C 
ATOM     18  C   UNL     1       7.830   5.913  18.217  0.00  0.00    +0.000 C 
ATOM     19  C   UNL     1       6.965   4.657  18.249  0.00  0.00    +0.000 C 
ENDBRANCH   6  15
BRANCH  10  20
ATOM     20  C   UNL     1       1.350   8.195  21.032  0.00  0.00    +0.000 C 
ATOM     21  C   UNL     1       1.208   8.768  19.614  0.00  0.00    +0.000 C 
ATOM     22  C   UNL     1       0.317   9.992  19.710  0.00  0.00    +0.000 C 
ATOM     23  C   UNL     1      -0.417   9.899  21.037  0.00  0.00    +0.000 C 
ATOM     24  C   UNL     1       0.105   8.668  21.773  0.00  0.00    +0.000 C 
ENDBRANCH  10  20
TORSDOF 2
ENDMDL
MODEL 8
REMARK VINA RESULT:      -7.2      1.112      1.579
REMARK  Name = 
REMARK  2 active torsions:
REMARK  status: ('A' for Active; 'I' for Inactive)
REMARK    1  A    between atoms: N_6  and  C_7
REMARK    2  A    between atoms: N_15  and  C_16
REMARK                            x       y       z     vdW  Elec       q    Type
REMARK                         _______ _______ _______ _____ _____    ______ ____
ROOT
ATOM      1  C   UNL     1       1.408   2.233  18.621  0.00  0.00    +0.000 A 
ATOM      2  C   UNL     1       0.642   2.795  19.628  0.00  0.00    +0.000 A 
ATOM      3  C   UNL     1       0.929   4.087  20.070  0.00  0.00    +0.000 A 
ATOM      4  C   UNL     1       2.002   4.849  19.536  0.00  0.00    +0.000 A 
ATOM      5  C   UNL     1       2.273   6.177  19.936  0.00  0.00    +0.000 A 
ATOM      6  N   UNL     1       1.429   6.766  20.891  0.00  0.00    +0.000 N 
ATOM      7  N   UNL     1       3.322   6.839  19.410  0.00  0.00    +0.000 NA
ATOM      8  N   UNL     1       4.183   6.217  18.507  0.00  0.00    +0.000 NA
ATOM      9  C   UNL     1       3.934   4.970  18.060  0.00  0.00    +0.000 A 
ATOM     10  N   UNL     1       4.759   4.339  17.117  0.00  0.00    +0.000 N 
ATOM     11  C   UNL     1       2.811   4.257  18.538  0.00  0.00    +0.000 A 
ATOM     12  C   UNL     1       2.480   2.950  18.091  0.00  0.00    +0.000 A 
ATOM     13  H   UNL     1       1.515   6.264  21.770  0.00  0.00    +0.000 HD
ATOM     14  H   UNL     1       4.241   4.166  16.264  0.00  0.00    +0.000 HD
ENDROOT
BRANCH   6  15
ATOM     15  C   UNL     1       1.331   8.212  21.042  0.00  0.00    +0.000 C 
ATOM     16  C   UNL     1       1.206   8.800  19.627  0.00  0.00    +0.000 C 
ATOM     17  C   UNL     1       0.301  10.010  19.728  0.00  0.00    +0.000 C 
ATOM     18  C   UNL     1      -0.477   9.872  21.026  0.00  0.00    +0.000 C 
ATOM     19  C   UNL     1       0.064   8.652  21.764  0.00  0.00    +0.000 C 
ENDBRANCH   6  15
BRANCH  10  20
ATOM     20  C   UNL     1       6.139   4.760  16.899  0.00  0.00    +0.000 C 
ATOM     21  C   UNL     1       6.090   6.219  16.424  0.00  0.00    +0.000 C 
ATOM     22  C   UNL     1       7.313   6.918  16.988  0.00  0.00    +0.000 C 
ATOM     23  C   UNL     1       7.831   6.049  18.123  0.00  0.00    +0.000 C 
ATOM     24  C   UNL     1       6.971   4.790  18.175  0.00  0.00    +0.000 C 
ENDBRANCH  10  20
TORSDOF 2
ENDMDL
MODEL 9
REMARK VINA RESULT:      -6.8      1.080      6.781
REMARK  Name = 
REMARK  2 active torsions:
REMARK  status: ('A' for Active; 'I' for Inactive)
REMARK    1  A    between atoms: N_6  and  C_7
REMARK    2  A    between atoms: N_15  and  C_16
REMARK                            x       y       z     vdW  Elec       q    Type
REMARK                         _______ _______ _______ _____ _____    ______ ____
ROOT
ATOM      1  C   UNL     1       2.364   3.316  21.490  0.00  0.00    +0.000 A 
ATOM      2  C   UNL     1       2.985   2.589  20.489  0.00  0.00    +0.000 A 
ATOM      3  C   UNL     1       3.379   3.236  19.317  0.00  0.00    +0.000 A 
ATOM      4  C   UNL     1       3.146   4.619  19.099  0.00  0.00    +0.000 A 
ATOM      5  C   UNL     1       3.586   5.298  17.940  0.00  0.00    +0.000 A 
ATOM      6  N   UNL     1       4.297   4.568  16.975  0.00  0.00    +0.000 N 
ATOM      7  N   UNL     1       3.313   6.607  17.781  0.00  0.00    +0.000 NA
ATOM      8  N   UNL     1       2.554   7.301  18.722  0.00  0.00    +0.000 NA
ATOM      9  C   UNL     1       2.158   6.707  19.866  0.00  0.00    +0.000 A 
ATOM     10  N   UNL     1       1.433   7.396  20.850  0.00  0.00    +0.000 N 
ATOM     11  C   UNL     1       2.473   5.350  20.105  0.00  0.00    +0.000 A 
ATOM     12  C   UNL     1       2.106   4.672  21.298  0.00  0.00    +0.000 A 
ATOM     13  H   UNL     1       3.691   3.855  16.579  0.00  0.00    +0.000 HD
ATOM     14  H   UNL     1       1.976   7.454  21.704  0.00  0.00    +0.000 HD
ENDROOT
BRANCH   6  15
ATOM     15  C   UNL     1       5.159   5.221  15.998  0.00  0.00    +0.000 C 
ATOM     16  C   UNL     1       6.593   5.145  16.548  0.00  0.00    +0.000 C 
ATOM     17  C   UNL     1       7.516   4.985  15.358  0.00  0.00    +0.000 C 
ATOM     18  C   UNL     1       6.664   4.492  14.201  0.00  0.00    +0.000 C 
ATOM     19  C   UNL     1       5.210   4.489  14.663  0.00  0.00    +0.000 C 
ENDBRANCH   6  15
BRANCH  10  20
ATOM     20  C   UNL     1       0.679   8.606  20.544  0.00  0.00    +0.000 C 
ATOM     21  C   UNL     1       0.855   9.556  21.738  0.00  0.00    +0.000 C 
ATOM     22  C   UNL     1       0.883  10.970  21.188  0.00  0.00    +0.000 C 
ATOM     23  C   UNL     1       1.174  10.858  19.701  0.00  0.00    +0.000 C 
ATOM     24  C   UNL     1       1.227   9.375  19.347  0.00  0.00    +0.000 C 
ENDBRANCH  10  20
TORSDOF 2
ENDMDL
