MODEL 1
REMARK VINA RESULT:      -8.0      0.000      0.000
REMARK  Name = 
REMARK  7 active torsions:
REMARK  status: ('A' for Active; 'I' for Inactive)
REMARK    1  A    between atoms: C_1  and  N_2
REMARK    2  A    between atoms: C_6  and  C_7
REMARK    3  A    between atoms: C_7  and  C_9
REMARK    4  A    between atoms: C_9  and  C_10
REMARK    5  A    between atoms: C_12  and  O_13
REMARK    6  A    between atoms: C_16  and  C_18
REMARK    7  A    between atoms: C_18  and  C_19
REMARK                            x       y       z     vdW  Elec       q    Type
REMARK                         _______ _______ _______ _____ _____    ______ ____
ROOT
ATOM      1  C   UNL     1       4.086   4.631  17.354  0.00  0.00    +0.000 C 
ATOM      2  C   UNL     1       2.693   5.169  17.747  0.00  0.00    +0.000 C 
ATOM      3  C   UNL     1       2.996   6.357  18.657  0.00  0.00    +0.000 C 
ATOM      4  C   UNL     1       4.168   7.003  17.934  0.00  0.00    +0.000 C 
ATOM      5  N   UNL     1       4.921   5.878  17.377  0.00  0.00    +0.000 N 
ATOM      6  C   UNL     1       6.045   6.197  16.630  0.00  0.00    +0.000 C 
ATOM      7  O   UNL     1       6.347   7.377  16.419  0.00  0.00    +0.000 OA
ENDROOT
BRANCH   3   8
ATOM      8  O   UNL     1       3.355   5.905  19.962  0.00  0.00    +0.000 OA
ATOM      9  H   UNL     1       3.644   4.977  19.896  0.00  0.00    +0.000 HD
ENDBRANCH   3   8
BRANCH   1  10
ATOM     10  C   UNL     1       4.591   3.555  18.330  0.00  0.00    +0.000 C 
BRANCH  10  11
ATOM     11  C   UNL     1       3.673   2.352  18.643  0.00  0.00    +0.000 C 
ATOM     12  O   UNL     1       3.706   1.311  17.983  0.00  0.00    +0.000 OA
BRANCH  11  18
ATOM     13  C   UNL     1       0.491   2.510  18.778  0.00  0.00    +0.000 C 
ATOM     14  N   UNL     1       1.430   2.594  19.880  0.00  0.00    +0.000 N 
ATOM     15  C   UNL     1       1.018   2.763  21.182  0.00  0.00    +0.000 A 
ATOM     16  C   UNL     1       2.127   2.834  21.985  0.00  0.00    +0.000 A 
ATOM     17  C   UNL     1       3.246   2.690  21.144  0.00  0.00    +0.000 A 
ATOM     18  C   UNL     1       2.816   2.536  19.825  0.00  0.00    +0.000 A 
ENDBRANCH  11  18
ENDBRANCH  10  11
ENDBRANCH   1  10
BRANCH   6  19
ATOM     19  C   UNL     1       6.964   5.091  16.154  0.00  0.00    +0.000 C 
BRANCH  19  20
ATOM     20  C   UNL     1       6.888   4.768  14.684  0.00  0.00    +0.000 A 
ATOM     21  C   UNL     1       7.763   5.360  13.761  0.00  0.00    +0.000 A 
ATOM     22  C   UNL     1       7.715   5.007  12.411  0.00  0.00    +0.000 A 
ATOM     23  C   UNL     1       6.797   4.056  11.970  0.00  0.00    +0.000 A 
ATOM     24  C   UNL     1       5.933   3.451  12.880  0.00  0.00    +0.000 A 
ATOM     25  C   UNL     1       5.980   3.803  14.229  0.00  0.00    +0.000 A 
ENDBRANCH  19  20
ENDBRANCH   6  19
TORSDOF 6
ENDMDL
MODEL 2
REMARK VINA RESULT:      -7.7      2.402      4.890
REMARK  Name = 
REMARK  7 active torsions:
REMARK  status: ('A' for Active; 'I' for Inactive)
REMARK    1  A    between atoms: C_1  and  N_2
REMARK    2  A    between atoms: C_6  and  C_7
REMARK    3  A    between atoms: C_7  and  C_9
REMARK    4  A    between atoms: C_9  and  C_10
REMARK    5  A    between atoms: C_12  and  O_13
REMARK    6  A    between atoms: C_16  and  C_18
REMARK    7  A    between atoms: C_18  and  C_19
REMARK                            x       y       z     vdW  Elec       q    Type
REMARK                         _______ _______ _______ _____ _____    ______ ____
ROOT
ATOM      1  C   UNL     1       2.314   4.604  19.805  0.00  0.00    +0.000 C 
ATOM      2  C   UNL     1       0.980   4.017  20.316  0.00  0.00    +0.000 C 
ATOM      3  C   UNL     1       0.859   2.680  19.590  0.00  0.00    +0.000 C 
ATOM      4  C   UNL     1       2.289   2.165  19.661  0.00  0.00    +0.000 C 
ATOM      5  N   UNL     1       3.118   3.365  19.536  0.00  0.00    +0.000 N 
ATOM      6  C   UNL     1       4.490   3.177  19.601  0.00  0.00    +0.000 C 
ATOM      7  O   UNL     1       4.963   2.052  19.801  0.00  0.00    +0.000 OA
ENDROOT
BRANCH   3   8
ATOM      8  O   UNL     1       0.428   2.881  18.244  0.00  0.00    +0.000 OA
ATOM      9  H   UNL     1      -0.404   3.386  18.261  0.00  0.00    +0.000 HD
ENDBRANCH   3   8
BRANCH   1  10
ATOM     10  C   UNL     1       2.125   5.477  18.553  0.00  0.00    +0.000 C 
BRANCH  10  11
ATOM     11  C   UNL     1       2.690   6.915  18.564  0.00  0.00    +0.000 C 
ATOM     12  O   UNL     1       3.635   7.256  17.850  0.00  0.00    +0.000 OA
BRANCH  11  18
ATOM     13  C   UNL     1       1.475   9.777  17.855  0.00  0.00    +0.000 C 
ATOM     14  N   UNL     1       1.427   9.085  19.128  0.00  0.00    +0.000 N 
ATOM     15  C   UNL     1       0.814   9.629  20.234  0.00  0.00    +0.000 A 
ATOM     16  C   UNL     1       0.958   8.758  21.283  0.00  0.00    +0.000 A 
ATOM     17  C   UNL     1       1.669   7.648  20.794  0.00  0.00    +0.000 A 
ATOM     18  C   UNL     1       1.963   7.845  19.445  0.00  0.00    +0.000 A 
ENDBRANCH  11  18
ENDBRANCH  10  11
ENDBRANCH   1  10
BRANCH   6  19
ATOM     19  C   UNL     1       5.418   4.341  19.323  0.00  0.00    +0.000 C 
BRANCH  19  20
ATOM     20  C   UNL     1       5.785   4.550  17.877  0.00  0.00    +0.000 A 
ATOM     21  C   UNL     1       5.030   3.977  16.842  0.00  0.00    +0.000 A 
ATOM     22  C   UNL     1       5.353   4.226  15.507  0.00  0.00    +0.000 A 
ATOM     23  C   UNL     1       6.427   5.056  15.191  0.00  0.00    +0.000 A 
ATOM     24  C   UNL     1       7.175   5.642  16.210  0.00  0.00    +0.000 A 
ATOM     25  C   UNL     1       6.854   5.393  17.544  0.00  0.00    +0.000 A 
ENDBRANCH  19  20
ENDBRANCH   6  19
TORSDOF 6
ENDMDL
MODEL 3
REMARK VINA RESULT:      -7.7      2.412      4.867
REMARK  Name = 
REMARK  7 active torsions:
REMARK  status: ('A' for Active; 'I' for Inactive)
REMARK    1  A    between atoms: C_1  and  N_2
REMARK    2  A    between atoms: C_6  and  C_7
REMARK    3  A    between atoms: C_7  and  C_9
REMARK    4  A    between atoms: C_9  and  C_10
REMARK    5  A    between atoms: C_12  and  O_13
REMARK    6  A    between atoms: C_16  and  C_18
REMARK    7  A    between atoms: C_18  and  C_19
REMARK                            x       y       z     vdW  Elec       q    Type
REMARK                         _______ _______ _______ _____ _____    ______ ____
ROOT
ATOM      1  C   UNL     1       2.423   4.855  19.709  0.00  0.00    +0.000 C 
ATOM      2  C   UNL     1       1.097   4.346  20.317  0.00  0.00    +0.000 C 
ATOM      3  C   UNL     1       0.901   2.971  19.684  0.00  0.00    +0.000 C 
ATOM      4  C   UNL     1       2.317   2.414  19.722  0.00  0.00    +0.000 C 
ATOM      5  N   UNL     1       3.175   3.576  19.484  0.00  0.00    +0.000 N 
ATOM      6  C   UNL     1       4.543   3.347  19.498  0.00  0.00    +0.000 C 
ATOM      7  O   UNL     1       4.991   2.222  19.748  0.00  0.00    +0.000 OA
ENDROOT
BRANCH   3   8
ATOM      8  O   UNL     1       0.414   3.102  18.349  0.00  0.00    +0.000 OA
ATOM      9  H   UNL     1       0.364   4.050  18.133  0.00  0.00    +0.000 HD
ENDBRANCH   3   8
BRANCH   1  10
ATOM     10  C   UNL     1       2.201   5.654  18.414  0.00  0.00    +0.000 C 
BRANCH  10  11
ATOM     11  C   UNL     1       2.850   7.051  18.287  0.00  0.00    +0.000 C 
ATOM     12  O   UNL     1       4.014   7.203  17.914  0.00  0.00    +0.000 OA
BRANCH  11  18
ATOM     13  C   UNL     1       1.652   7.932  21.109  0.00  0.00    +0.000 C 
ATOM     14  N   UNL     1       1.431   8.556  19.818  0.00  0.00    +0.000 N 
ATOM     15  C   UNL     1       0.627   9.663  19.668  0.00  0.00    +0.000 A 
ATOM     16  C   UNL     1       0.593   9.999  18.339  0.00  0.00    +0.000 A 
ATOM     17  C   UNL     1       1.411   9.074  17.666  0.00  0.00    +0.000 A 
ATOM     18  C   UNL     1       1.942   8.170  18.586  0.00  0.00    +0.000 A 
ENDBRANCH  11  18
ENDBRANCH  10  11
ENDBRANCH   1  10
BRANCH   6  19
ATOM     19  C   UNL     1       5.490   4.461  19.104  0.00  0.00    +0.000 C 
BRANCH  19  20
ATOM     20  C   UNL     1       5.877   4.503  17.648  0.00  0.00    +0.000 A 
ATOM     21  C   UNL     1       7.168   4.879  17.246  0.00  0.00    +0.000 A 
ATOM     22  C   UNL     1       7.524   4.858  15.897  0.00  0.00    +0.000 A 
ATOM     23  C   UNL     1       6.599   4.457  14.936  0.00  0.00    +0.000 A 
ATOM     24  C   UNL     1       5.318   4.068  15.324  0.00  0.00    +0.000 A 
ATOM     25  C   UNL     1       4.961   4.089  16.672  0.00  0.00    +0.000 A 
ENDBRANCH  19  20
ENDBRANCH   6  19
TORSDOF 6
ENDMDL
MODEL 4
REMARK VINA RESULT:      -7.7      2.877      5.294
REMARK  Name = 
REMARK  7 active torsions:
REMARK  status: ('A' for Active; 'I' for Inactive)
REMARK    1  A    between atoms: C_1  and  N_2
REMARK    2  A    between atoms: C_6  and  C_7
REMARK    3  A    between atoms: C_7  and  C_9
REMARK    4  A    between atoms: C_9  and  C_10
REMARK    5  A    between atoms: C_12  and  O_13
REMARK    6  A    between atoms: C_16  and  C_18
REMARK    7  A    between atoms: C_18  and  C_19
REMARK                            x       y       z     vdW  Elec       q    Type
REMARK                         _______ _______ _______ _____ _____    ______ ____
ROOT
ATOM      1  C   UNL     1       2.877   5.007  19.871  0.00  0.00    +0.000 C 
ATOM      2  C   UNL     1       2.437   4.328  21.187  0.00  0.00    +0.000 C 
ATOM      3  C   UNL     1       1.708   3.067  20.730  0.00  0.00    +0.000 C 
ATOM      4  C   UNL     1       2.601   2.595  19.592  0.00  0.00    +0.000 C 
ATOM      5  N   UNL     1       3.077   3.828  18.964  0.00  0.00    +0.000 N 
ATOM      6  C   UNL     1       3.950   3.680  17.896  0.00  0.00    +0.000 C 
ATOM      7  O   UNL     1       4.328   2.557  17.543  0.00  0.00    +0.000 OA
ENDROOT
BRANCH   3   8
ATOM      8  O   UNL     1       0.392   3.389  20.281  0.00  0.00    +0.000 OA
ATOM      9  H   UNL     1       0.203   4.313  20.523  0.00  0.00    +0.000 HD
ENDBRANCH   3   8
BRANCH   1  10
ATOM     10  C   UNL     1       1.822   5.995  19.345  0.00  0.00    +0.000 C 
BRANCH  10  11
ATOM     11  C   UNL     1       2.216   7.480  19.187  0.00  0.00    +0.000 C 
ATOM     12  O   UNL     1       3.020   7.860  18.333  0.00  0.00    +0.000 OA
BRANCH  11  18
ATOM     13  C   UNL     1       0.532  10.086  18.449  0.00  0.00    +0.000 C 
ATOM     14  N   UNL     1       0.763   9.523  19.766  0.00  0.00    +0.000 N 
ATOM     15  C   UNL     1       0.247  10.094  20.906  0.00  0.00    +0.000 A 
ATOM     16  C   UNL     1       0.657   9.356  21.987  0.00  0.00    +0.000 A 
ATOM     17  C   UNL     1       1.436   8.299  21.483  0.00  0.00    +0.000 A 
ATOM     18  C   UNL     1       1.503   8.396  20.093  0.00  0.00    +0.000 A 
ENDBRANCH  11  18
ENDBRANCH  10  11
ENDBRANCH   1  10
BRANCH   6  19
ATOM     19  C   UNL     1       4.362   4.897  17.094  0.00  0.00    +0.000 C 
BRANCH  19  20
ATOM     20  C   UNL     1       5.637   5.566  17.535  0.00  0.00    +0.000 A 
ATOM     21  C   UNL     1       6.072   6.765  16.950  0.00  0.00    +0.000 A 
ATOM     22  C   UNL     1       7.228   7.399  17.409  0.00  0.00    +0.000 A 
ATOM     23  C   UNL     1       7.957   6.848  18.460  0.00  0.00    +0.000 A 
ATOM     24  C   UNL     1       7.528   5.665  19.058  0.00  0.00    +0.000 A 
ATOM     25  C   UNL     1       6.373   5.029  18.599  0.00  0.00    +0.000 A 
ENDBRANCH  19  20
ENDBRANCH   6  19
TORSDOF 6
ENDMDL
MODEL 5
REMARK VINA RESULT:      -7.7      2.825      5.174
REMARK  Name = 
REMARK  7 active torsions:
REMARK  status: ('A' for Active; 'I' for Inactive)
REMARK    1  A    between atoms: C_1  and  N_2
REMARK    2  A    between atoms: C_6  and  C_7
REMARK    3  A    between atoms: C_7  and  C_9
REMARK    4  A    between atoms: C_9  and  C_10
REMARK    5  A    between atoms: C_12  and  O_13
REMARK    6  A    between atoms: C_16  and  C_18
REMARK    7  A    between atoms: C_18  and  C_19
REMARK                            x       y       z     vdW  Elec       q    Type
REMARK                         _______ _______ _______ _____ _____    ______ ____
ROOT
ATOM      1  C   UNL     1       5.749   5.089  19.073  0.00  0.00    +0.000 C 
ATOM      2  C   UNL     1       7.249   5.091  19.442  0.00  0.00    +0.000 C 
ATOM      3  C   UNL     1       7.959   5.325  18.111  0.00  0.00    +0.000 C 
ATOM      4  C   UNL     1       7.067   6.380  17.472  0.00  0.00    +0.000 C 
ATOM      5  N   UNL     1       5.713   6.025  17.901  0.00  0.00    +0.000 N 
ATOM      6  C   UNL     1       4.692   6.860  17.474  0.00  0.00    +0.000 C 
ATOM      7  O   UNL     1       4.941   7.871  16.807  0.00  0.00    +0.000 OA
ENDROOT
BRANCH   3   8
ATOM      8  O   UNL     1       7.994   4.121  17.346  0.00  0.00    +0.000 OA
ATOM      9  H   UNL     1       7.096   3.941  17.016  0.00  0.00    +0.000 HD
ENDBRANCH   3   8
BRANCH   1  10
ATOM     10  C   UNL     1       5.236   3.680  18.729  0.00  0.00    +0.000 C 
BRANCH  10  11
ATOM     11  C   UNL     1       4.494   2.878  19.822  0.00  0.00    +0.000 C 
ATOM     12  O   UNL     1       5.079   2.103  20.581  0.00  0.00    +0.000 OA
BRANCH  11  18
ATOM     13  C   UNL     1       2.209   2.279  17.679  0.00  0.00    +0.000 C 
ATOM     14  N   UNL     1       2.061   2.898  18.982  0.00  0.00    +0.000 N 
ATOM     15  C   UNL     1       0.841   3.319  19.458  0.00  0.00    +0.000 A 
ATOM     16  C   UNL     1       1.027   3.882  20.694  0.00  0.00    +0.000 A 
ATOM     17  C   UNL     1       2.401   3.788  20.980  0.00  0.00    +0.000 A 
ATOM     18  C   UNL     1       3.054   3.169  19.914  0.00  0.00    +0.000 A 
ENDBRANCH  11  18
ENDBRANCH  10  11
ENDBRANCH   1  10
BRANCH   6  19
ATOM     19  C   UNL     1       3.252   6.474  17.741  0.00  0.00    +0.000 C 
BRANCH  19  20
ATOM     20  C   UNL     1       2.442   7.479  18.519  0.00  0.00    +0.000 A 
ATOM     21  C   UNL     1       1.852   8.585  17.890  0.00  0.00    +0.000 A 
ATOM     22  C   UNL     1       1.060   9.475  18.617  0.00  0.00    +0.000 A 
ATOM     23  C   UNL     1       0.843   9.267  19.977  0.00  0.00    +0.000 A 
ATOM     24  C   UNL     1       1.413   8.164  20.611  0.00  0.00    +0.000 A 
ATOM     25  C   UNL     1       2.205   7.274  19.885  0.00  0.00    +0.000 A 
ENDBRANCH  19  20
ENDBRANCH   6  19
TORSDOF 6
ENDMDL
MODEL 6
REMARK VINA RESULT:      -7.6      2.789      5.246
REMARK  Name = 
REMARK  7 active torsions:
REMARK  status: ('A' for Active; 'I' for Inactive)
REMARK    1  A    between atoms: C_1  and  N_2
REMARK    2  A    between atoms: C_6  and  C_7
REMARK    3  A    between atoms: C_7  and  C_9
REMARK    4  A    between atoms: C_9  and  C_10
REMARK    5  A    between atoms: C_12  and  O_13
REMARK    6  A    between atoms: C_16  and  C_18
REMARK    7  A    between atoms: C_18  and  C_19
REMARK                            x       y       z     vdW  Elec       q    Type
REMARK                         _______ _______ _______ _____ _____    ______ ____
ROOT
ATOM      1  C   UNL     1       2.924   5.032  19.616  0.00  0.00    +0.000 C 
ATOM      2  C   UNL     1       2.428   4.549  20.997  0.00  0.00    +0.000 C 
ATOM      3  C   UNL     1       1.624   3.289  20.685  0.00  0.00    +0.000 C 
ATOM      4  C   UNL     1       2.496   2.626  19.629  0.00  0.00    +0.000 C 
ATOM      5  N   UNL     1       3.057   3.740  18.863  0.00  0.00    +0.000 N 
ATOM      6  C   UNL     1       3.928   3.408  17.837  0.00  0.00    +0.000 C 
ATOM      7  O   UNL     1       4.237   2.228  17.630  0.00  0.00    +0.000 OA
ENDROOT
BRANCH   3   8
ATOM      8  O   UNL     1       0.336   3.634  20.176  0.00  0.00    +0.000 OA
ATOM      9  H   UNL     1      -0.298   2.951  20.458  0.00  0.00    +0.000 HD
ENDBRANCH   3   8
BRANCH   1  10
ATOM     10  C   UNL     1       1.940   6.011  18.955  0.00  0.00    +0.000 C 
BRANCH  10  11
ATOM     11  C   UNL     1       2.299   7.514  18.928  0.00  0.00    +0.000 C 
ATOM     12  O   UNL     1       3.098   7.985  18.116  0.00  0.00    +0.000 OA
BRANCH  11  18
ATOM     13  C   UNL     1       0.527  10.112  18.402  0.00  0.00    +0.000 C 
ATOM     14  N   UNL     1       0.782   9.455  19.669  0.00  0.00    +0.000 N 
ATOM     15  C   UNL     1       0.252   9.917  20.852  0.00  0.00    +0.000 A 
ATOM     16  C   UNL     1       0.692   9.110  21.870  0.00  0.00    +0.000 A 
ATOM     17  C   UNL     1       1.503   8.123  21.283  0.00  0.00    +0.000 A 
ATOM     18  C   UNL     1       1.560   8.331  19.905  0.00  0.00    +0.000 A 
ENDBRANCH  11  18
ENDBRANCH  10  11
ENDBRANCH   1  10
BRANCH   6  19
ATOM     19  C   UNL     1       4.425   4.488  16.899  0.00  0.00    +0.000 C 
BRANCH  19  20
ATOM     20  C   UNL     1       5.586   5.305  17.404  0.00  0.00    +0.000 A 
ATOM     21  C   UNL     1       6.485   4.788  18.350  0.00  0.00    +0.000 A 
ATOM     22  C   UNL     1       7.586   5.539  18.765  0.00  0.00    +0.000 A 
ATOM     23  C   UNL     1       7.805   6.809  18.237  0.00  0.00    +0.000 A 
ATOM     24  C   UNL     1       6.927   7.328  17.287  0.00  0.00    +0.000 A 
ATOM     25  C   UNL     1       5.826   6.578  16.872  0.00  0.00    +0.000 A 
ENDBRANCH  19  20
ENDBRANCH   6  19
TORSDOF 6
ENDMDL
MODEL 7
REMARK VINA RESULT:      -7.6      2.704      6.553
REMARK  Name = 
REMARK  7 active torsions:
REMARK  status: ('A' for Active; 'I' for Inactive)
REMARK    1  A    between atoms: C_1  and  N_2
REMARK    2  A    between atoms: C_6  and  C_7
REMARK    3  A    between atoms: C_7  and  C_9
REMARK    4  A    between atoms: C_9  and  C_10
REMARK    5  A    between atoms: C_12  and  O_13
REMARK    6  A    between atoms: C_16  and  C_18
REMARK    7  A    between atoms: C_18  and  C_19
REMARK                            x       y       z     vdW  Elec       q    Type
REMARK                         _______ _______ _______ _____ _____    ______ ____
ROOT
ATOM      1  C   UNL     1       3.068   3.943  17.627  0.00  0.00    +0.000 C 
ATOM      2  C   UNL     1       2.504   2.535  17.340  0.00  0.00    +0.000 C 
ATOM      3  C   UNL     1       2.691   1.783  18.656  0.00  0.00    +0.000 C 
ATOM      4  C   UNL     1       2.301   2.847  19.671  0.00  0.00    +0.000 C 
ATOM      5  N   UNL     1       2.782   4.102  19.092  0.00  0.00    +0.000 N 
ATOM      6  C   UNL     1       2.523   5.256  19.817  0.00  0.00    +0.000 C 
ATOM      7  O   UNL     1       1.877   5.207  20.870  0.00  0.00    +0.000 OA
ENDROOT
BRANCH   3   8
ATOM      8  O   UNL     1       4.050   1.373  18.806  0.00  0.00    +0.000 OA
ATOM      9  H   UNL     1       4.106   0.773  19.571  0.00  0.00    +0.000 HD
ENDBRANCH   3   8
BRANCH   1  10
ATOM     10  C   UNL     1       4.566   4.050  17.295  0.00  0.00    +0.000 C 
BRANCH  10  11
ATOM     11  C   UNL     1       5.554   4.372  18.438  0.00  0.00    +0.000 C 
ATOM     12  O   UNL     1       5.662   3.657  19.436  0.00  0.00    +0.000 OA
BRANCH  11  18
ATOM     13  C   UNL     1       5.155   6.672  16.265  0.00  0.00    +0.000 C 
ATOM     14  N   UNL     1       6.207   6.563  17.257  0.00  0.00    +0.000 N 
ATOM     15  C   UNL     1       7.208   7.501  17.369  0.00  0.00    +0.000 A 
ATOM     16  C   UNL     1       8.060   7.112  18.370  0.00  0.00    +0.000 A 
ATOM     17  C   UNL     1       7.554   5.906  18.887  0.00  0.00    +0.000 A 
ATOM     18  C   UNL     1       6.391   5.559  18.198  0.00  0.00    +0.000 A 
ENDBRANCH  11  18
ENDBRANCH  10  11
ENDBRANCH   1  10
BRANCH   6  19
ATOM     19  C   UNL     1       3.124   6.571  19.366  0.00  0.00    +0.000 C 
BRANCH  19  20
ATOM     20  C   UNL     1       2.165   7.729  19.278  0.00  0.00    +0.000 A 
ATOM     21  C   UNL     1       1.535   8.243  20.422  0.00  0.00    +0.000 A 
ATOM     22  C   UNL     1       0.691   9.351  20.329  0.00  0.00    +0.000 A 
ATOM     23  C   UNL     1       0.474   9.963  19.097  0.00  0.00    +0.000 A 
ATOM     24  C   UNL     1       1.105   9.471  17.956  0.00  0.00    +0.000 A 
ATOM     25  C   UNL     1       1.948   8.362  18.048  0.00  0.00    +0.000 A 
ENDBRANCH  19  20
ENDBRANCH   6  19
TORSDOF 6
ENDMDL
MODEL 8
REMARK VINA RESULT:      -7.6      2.152      6.771
REMARK  Name = 
REMARK  7 active torsions:
REMARK  status: ('A' for Active; 'I' for Inactive)
REMARK    1  A    between atoms: C_1  and  N_2
REMARK    2  A    between atoms: C_6  and  C_7
REMARK    3  A    between atoms: C_7  and  C_9
REMARK    4  A    between atoms: C_9  and  C_10
REMARK    5  A    between atoms: C_12  and  O_13
REMARK    6  A    between atoms: C_16  and  C_18
REMARK    7  A    between atoms: C_18  and  C_19
REMARK                            x       y       z     vdW  Elec       q    Type
REMARK                         _______ _______ _______ _____ _____    ______ ____
ROOT
ATOM      1  C   UNL     1       3.682   4.097  18.405  0.00  0.00    +0.000 C 
ATOM      2  C   UNL     1       3.570   3.074  17.253  0.00  0.00    +0.000 C 
ATOM      3  C   UNL     1       2.965   1.837  17.912  0.00  0.00    +0.000 C 
ATOM      4  C   UNL     1       1.918   2.460  18.824  0.00  0.00    +0.000 C 
ATOM      5  N   UNL     1       2.526   3.711  19.280  0.00  0.00    +0.000 N 
ATOM      6  C   UNL     1       1.755   4.503  20.117  0.00  0.00    +0.000 C 
ATOM      7  O   UNL     1       0.600   4.172  20.410  0.00  0.00    +0.000 OA
ENDROOT
BRANCH   3   8
ATOM      8  O   UNL     1       3.961   1.127  18.647  0.00  0.00    +0.000 OA
ATOM      9  H   UNL     1       4.829   1.515  18.440  0.00  0.00    +0.000 HD
ENDBRANCH   3   8
BRANCH   1  10
ATOM     10  C   UNL     1       5.036   4.012  19.130  0.00  0.00    +0.000 C 
BRANCH  10  11
ATOM     11  C   UNL     1       6.192   4.914  18.643  0.00  0.00    +0.000 C 
ATOM     12  O   UNL     1       6.972   5.462  19.424  0.00  0.00    +0.000 OA
BRANCH  11  18
ATOM     13  C   UNL     1       4.810   6.994  16.660  0.00  0.00    +0.000 C 
ATOM     14  N   UNL     1       5.720   5.916  16.321  0.00  0.00    +0.000 N 
ATOM     15  C   UNL     1       6.104   5.664  15.024  0.00  0.00    +0.000 A 
ATOM     16  C   UNL     1       6.939   4.576  15.021  0.00  0.00    +0.000 A 
ATOM     17  C   UNL     1       7.073   4.165  16.360  0.00  0.00    +0.000 A 
ATOM     18  C   UNL     1       6.316   5.003  17.179  0.00  0.00    +0.000 A 
ENDBRANCH  11  18
ENDBRANCH  10  11
ENDBRANCH   1  10
BRANCH   6  19
ATOM     19  C   UNL     1       2.368   5.730  20.758  0.00  0.00    +0.000 C 
BRANCH  19  20
ATOM     20  C   UNL     1       1.904   7.053  20.206  0.00  0.00    +0.000 A 
ATOM     21  C   UNL     1       1.190   7.964  20.999  0.00  0.00    +0.000 A 
ATOM     22  C   UNL     1       0.816   9.208  20.487  0.00  0.00    +0.000 A 
ATOM     23  C   UNL     1       1.158   9.558  19.182  0.00  0.00    +0.000 A 
ATOM     24  C   UNL     1       1.880   8.668  18.390  0.00  0.00    +0.000 A 
ATOM     25  C   UNL     1       2.253   7.423  18.901  0.00  0.00    +0.000 A 
ENDBRANCH  19  20
ENDBRANCH   6  19
TORSDOF 6
ENDMDL
MODEL 9
REMARK VINA RESULT:      -7.6      2.805      5.293
REMARK  Name = 
REMARK  7 active torsions:
REMARK  status: ('A' for Active; 'I' for Inactive)
REMARK    1  A    between atoms: C_1  and  N_2
REMARK    2  A    between atoms: C_6  and  C_7
REMARK    3  A    between atoms: C_7  and  C_9
REMARK    4  A    between atoms: C_9  and  C_10
REMARK    5  A    between atoms: C_12  and  O_13
REMARK    6  A    between atoms: C_16  and  C_18
REMARK    7  A    between atoms: C_18  and  C_19
REMARK                            x       y       z     vdW  Elec       q    Type
REMARK                         _______ _______ _______ _____ _____    ______ ____
ROOT
ATOM      1  C   UNL     1       5.662   5.012  19.017  0.00  0.00    +0.000 C 
ATOM      2  C   UNL     1       7.144   5.029  19.452  0.00  0.00    +0.000 C 
ATOM      3  C   UNL     1       7.908   5.313  18.161  0.00  0.00    +0.000 C 
ATOM      4  C   UNL     1       7.027   6.370  17.512  0.00  0.00    +0.000 C 
ATOM      5  N   UNL     1       5.662   5.981  17.870  0.00  0.00    +0.000 N 
ATOM      6  C   UNL     1       4.645   6.811  17.421  0.00  0.00    +0.000 C 
ATOM      7  O   UNL     1       4.906   7.844  16.795  0.00  0.00    +0.000 OA
ENDROOT
BRANCH   3   8
ATOM      8  O   UNL     1       7.998   4.131  17.366  0.00  0.00    +0.000 OA
ATOM      9  H   UNL     1       7.331   4.186  16.659  0.00  0.00    +0.000 HD
ENDBRANCH   3   8
BRANCH   1  10
ATOM     10  C   UNL     1       5.190   3.606  18.611  0.00  0.00    +0.000 C 
BRANCH  10  11
ATOM     11  C   UNL     1       4.400   2.767  19.640  0.00  0.00    +0.000 C 
ATOM     12  O   UNL     1       4.957   2.135  20.540  0.00  0.00    +0.000 OA
BRANCH  11  18
ATOM     13  C   UNL     1       2.214   3.469  21.853  0.00  0.00    +0.000 C 
ATOM     14  N   UNL     1       1.991   3.159  20.454  0.00  0.00    +0.000 N 
ATOM     15  C   UNL     1       0.730   3.133  19.902  0.00  0.00    +0.000 A 
ATOM     16  C   UNL     1       0.841   2.786  18.580  0.00  0.00    +0.000 A 
ATOM     17  C   UNL     1       2.212   2.607  18.322  0.00  0.00    +0.000 A 
ATOM     18  C   UNL     1       2.938   2.843  19.490  0.00  0.00    +0.000 A 
ENDBRANCH  11  18
ENDBRANCH  10  11
ENDBRANCH   1  10
BRANCH   6  19
ATOM     19  C   UNL     1       3.202   6.394  17.613  0.00  0.00    +0.000 C 
BRANCH  19  20
ATOM     20  C   UNL     1       2.412   7.217  18.596  0.00  0.00    +0.000 A 
ATOM     21  C   UNL     1       2.209   6.783  19.915  0.00  0.00    +0.000 A 
ATOM     22  C   UNL     1       1.521   7.584  20.828  0.00  0.00    +0.000 A 
ATOM     23  C   UNL     1       1.035   8.830  20.437  0.00  0.00    +0.000 A 
ATOM     24  C   UNL     1       1.242   9.278  19.134  0.00  0.00    +0.000 A 
ATOM     25  C   UNL     1       1.929   8.478  18.220  0.00  0.00    +0.000 A 
ENDBRANCH  19  20
ENDBRANCH   6  19
TORSDOF 6
ENDMDL
