MODEL 1
REMARK VINA RESULT:      -7.7      0.000      0.000
REMARK  Name = 
REMARK  9 active torsions:
REMARK  status: ('A' for Active; 'I' for Inactive)
REMARK    1  A    between atoms: C_1  and  C_2
REMARK    2  A    between atoms: C_2  and  O_3
REMARK    3  A    between atoms: O_3  and  C_4
REMARK    4  A    between atoms: C_9  and  N_10
REMARK    5  A    between atoms: N_13  and  C_14
REMARK    6  A    between atoms: C_14  and  C_15
REMARK    7  A    between atoms: C_14  and  C_18
REMARK    8  A    between atoms: C_15  and  O_16
REMARK    9  A    between atoms: O_16  and  C_17
REMARK                            x       y       z     vdW  Elec       q    Type
REMARK                         _______ _______ _______ _____ _____    ______ ____
ROOT
ATOM      1  N   UNL     1       7.237   4.981  17.845  0.00  0.00    +0.000 N 
ATOM      2  C   UNL     1       6.375   5.082  18.911  0.00  0.00    +0.000 C 
ATOM      3  O   UNL     1       6.778   5.456  20.011  0.00  0.00    +0.000 OA
ATOM      4  N   UNL     1       5.094   4.737  18.657  0.00  0.00    +0.000 N 
ATOM      5  H   UNL     1       8.195   5.194  18.076  0.00  0.00    +0.000 HD
ATOM      6  H   UNL     1       4.910   4.700  17.659  0.00  0.00    +0.000 HD
ENDROOT
BRANCH   1  12
ATOM      7  C   UNL     1       6.252   3.778  12.541  0.00  0.00    +0.000 A 
ATOM      8  N   UNL     1       7.142   4.567  11.932  0.00  0.00    +0.000 NA
ATOM      9  N   UNL     1       7.746   5.195  12.956  0.00  0.00    +0.000 N 
ATOM     10  C   UNL     1       7.280   4.840  14.193  0.00  0.00    +0.000 A 
ATOM     11  C   UNL     1       7.635   5.242  15.486  0.00  0.00    +0.000 A 
ATOM     12  C   UNL     1       6.927   4.632  16.512  0.00  0.00    +0.000 A 
ATOM     13  N   UNL     1       5.945   3.725  16.285  0.00  0.00    +0.000 NA
ATOM     14  C   UNL     1       5.611   3.346  15.023  0.00  0.00    +0.000 A 
ATOM     15  C   UNL     1       6.282   3.903  13.942  0.00  0.00    +0.000 A 
ATOM     16  H   UNL     1       8.477   5.862  12.737  0.00  0.00    +0.000 HD
BRANCH   7  17
ATOM     17  O   UNL     1       5.408   3.003  11.820  0.00  0.00    +0.000 OA
BRANCH  17  19
ATOM     18  C   UNL     1       3.451   3.047  10.424  0.00  0.00    +0.000 C 
ATOM     19  C   UNL     1       4.092   3.552  11.703  0.00  0.00    +0.000 C 
ENDBRANCH  17  19
ENDBRANCH   7  17
ENDBRANCH   1  12
BRANCH   4  20
ATOM     20  C   UNL     1       3.921   4.865  19.504  0.00  0.00    +0.000 C 
BRANCH  20  21
ATOM     21  C   UNL     1       3.195   6.167  19.152  0.00  0.00    +0.000 A 
ATOM     22  C   UNL     1       2.334   6.778  20.076  0.00  0.00    +0.000 A 
ATOM     23  C   UNL     1       1.710   7.989  19.764  0.00  0.00    +0.000 A 
ATOM     24  C   UNL     1       1.954   8.600  18.538  0.00  0.00    +0.000 A 
ATOM     25  F   UNL     1       1.370   9.771  18.255  0.00  0.00    +0.000 F 
ATOM     26  C   UNL     1       2.789   8.011  17.602  0.00  0.00    +0.000 A 
ATOM     27  C   UNL     1       3.384   6.788  17.899  0.00  0.00    +0.000 A 
ENDBRANCH  20  21
BRANCH  20  28
ATOM     28  C   UNL     1       2.957   3.659  19.487  0.00  0.00    +0.000 C 
BRANCH  28  29
ATOM     29  O   UNL     1       2.806   3.046  20.775  0.00  0.00    +0.000 OA
ATOM     30  C   UNL     1       1.452   3.110  21.209  0.00  0.00    +0.000 C 
ENDBRANCH  28  29
ENDBRANCH  20  28
ENDBRANCH   4  20
TORSDOF 7
ENDMDL
MODEL 2
REMARK VINA RESULT:      -7.4      1.169      1.600
REMARK  Name = 
REMARK  9 active torsions:
REMARK  status: ('A' for Active; 'I' for Inactive)
REMARK    1  A    between atoms: C_1  and  C_2
REMARK    2  A    between atoms: C_2  and  O_3
REMARK    3  A    between atoms: O_3  and  C_4
REMARK    4  A    between atoms: C_9  and  N_10
REMARK    5  A    between atoms: N_13  and  C_14
REMARK    6  A    between atoms: C_14  and  C_15
REMARK    7  A    between atoms: C_14  and  C_18
REMARK    8  A    between atoms: C_15  and  O_16
REMARK    9  A    between atoms: O_16  and  C_17
REMARK                            x       y       z     vdW  Elec       q    Type
REMARK                         _______ _______ _______ _____ _____    ______ ____
ROOT
ATOM      1  N   UNL     1       6.416   4.408  18.158  0.00  0.00    +0.000 N 
ATOM      2  C   UNL     1       5.340   4.460  19.012  0.00  0.00    +0.000 C 
ATOM      3  O   UNL     1       5.505   4.603  20.221  0.00  0.00    +0.000 OA
ATOM      4  N   UNL     1       4.128   4.333  18.428  0.00  0.00    +0.000 N 
ATOM      5  H   UNL     1       7.307   4.453  18.626  0.00  0.00    +0.000 HD
ATOM      6  H   UNL     1       4.183   4.474  17.423  0.00  0.00    +0.000 HD
ENDROOT
BRANCH   1  12
ATOM      7  C   UNL     1       6.588   4.201  12.637  0.00  0.00    +0.000 A 
ATOM      8  N   UNL     1       7.583   5.055  12.382  0.00  0.00    +0.000 NA
ATOM      9  N   UNL     1       7.952   5.472  13.606  0.00  0.00    +0.000 N 
ATOM     10  C   UNL     1       7.235   4.917  14.632  0.00  0.00    +0.000 A 
ATOM     11  C   UNL     1       7.305   5.072  16.022  0.00  0.00    +0.000 A 
ATOM     12  C   UNL     1       6.399   4.312  16.749  0.00  0.00    +0.000 A 
ATOM     13  N   UNL     1       5.492   3.493  16.161  0.00  0.00    +0.000 NA
ATOM     14  C   UNL     1       5.436   3.356  14.809  0.00  0.00    +0.000 A 
ATOM     15  C   UNL     1       6.318   4.074  14.012  0.00  0.00    +0.000 A 
ATOM     16  H   UNL     1       8.709   6.142  13.669  0.00  0.00    +0.000 HD
BRANCH   7  17
ATOM     17  O   UNL     1       5.920   3.595  11.626  0.00  0.00    +0.000 OA
BRANCH  17  19
ATOM     18  C   UNL     1       7.127   1.620  10.975  0.00  0.00    +0.000 C 
ATOM     19  C   UNL     1       5.923   2.168  11.719  0.00  0.00    +0.000 C 
ENDBRANCH  17  19
ENDBRANCH   7  17
ENDBRANCH   1  12
BRANCH   4  20
ATOM     20  C   UNL     1       2.806   4.486  19.009  0.00  0.00    +0.000 C 
BRANCH  20  21
ATOM     21  C   UNL     1       2.471   5.978  19.093  0.00  0.00    +0.000 A 
ATOM     22  C   UNL     1       2.579   6.800  17.962  0.00  0.00    +0.000 A 
ATOM     23  C   UNL     1       2.228   8.151  18.037  0.00  0.00    +0.000 A 
ATOM     24  C   UNL     1       1.755   8.680  19.233  0.00  0.00    +0.000 A 
ATOM     25  F   UNL     1       1.400   9.970  19.292  0.00  0.00    +0.000 F 
ATOM     26  C   UNL     1       1.652   7.894  20.369  0.00  0.00    +0.000 A 
ATOM     27  C   UNL     1       2.034   6.556  20.305  0.00  0.00    +0.000 A 
ENDBRANCH  20  21
BRANCH  20  28
ATOM     28  C   UNL     1       1.680   3.693  18.309  0.00  0.00    +0.000 C 
BRANCH  28  29
ATOM     29  O   UNL     1       0.849   2.973  19.231  0.00  0.00    +0.000 OA
ATOM     30  C   UNL     1       1.562   2.672  20.425  0.00  0.00    +0.000 C 
ENDBRANCH  28  29
ENDBRANCH  20  28
ENDBRANCH   4  20
TORSDOF 7
ENDMDL
MODEL 3
REMARK VINA RESULT:      -7.4      0.440      1.028
REMARK  Name = 
REMARK  9 active torsions:
REMARK  status: ('A' for Active; 'I' for Inactive)
REMARK    1  A    between atoms: C_1  and  C_2
REMARK    2  A    between atoms: C_2  and  O_3
REMARK    3  A    between atoms: O_3  and  C_4
REMARK    4  A    between atoms: C_9  and  N_10
REMARK    5  A    between atoms: N_13  and  C_14
REMARK    6  A    between atoms: C_14  and  C_15
REMARK    7  A    between atoms: C_14  and  C_18
REMARK    8  A    between atoms: C_15  and  O_16
REMARK    9  A    between atoms: O_16  and  C_17
REMARK                            x       y       z     vdW  Elec       q    Type
REMARK                         _______ _______ _______ _____ _____    ______ ____
ROOT
ATOM      1  N   UNL     1       6.889   4.841  17.986  0.00  0.00    +0.000 N 
ATOM      2  C   UNL     1       5.947   4.948  18.981  0.00  0.00    +0.000 C 
ATOM      3  O   UNL     1       6.272   5.271  20.121  0.00  0.00    +0.000 OA
ATOM      4  N   UNL     1       4.678   4.665  18.612  0.00  0.00    +0.000 N 
ATOM      5  H   UNL     1       7.832   5.006  18.301  0.00  0.00    +0.000 HD
ATOM      6  H   UNL     1       4.576   4.666  17.601  0.00  0.00    +0.000 HD
ENDROOT
BRANCH   1  12
ATOM      7  C   UNL     1       6.292   3.850  12.581  0.00  0.00    +0.000 A 
ATOM      8  N   UNL     1       7.224   4.659  12.070  0.00  0.00    +0.000 NA
ATOM      9  N   UNL     1       7.752   5.245  13.158  0.00  0.00    +0.000 N 
ATOM     10  C   UNL     1       7.197   4.843  14.344  0.00  0.00    +0.000 A 
ATOM     11  C   UNL     1       7.458   5.194  15.673  0.00  0.00    +0.000 A 
ATOM     12  C   UNL     1       6.677   4.546  16.621  0.00  0.00    +0.000 A 
ATOM     13  N   UNL     1       5.713   3.651  16.288  0.00  0.00    +0.000 NA
ATOM     14  C   UNL     1       5.472   3.323  14.991  0.00  0.00    +0.000 A 
ATOM     15  C   UNL     1       6.220   3.920  13.985  0.00  0.00    +0.000 A 
ATOM     16  H   UNL     1       8.498   5.917  13.019  0.00  0.00    +0.000 HD
BRANCH   7  17
ATOM     17  O   UNL     1       5.502   3.106  11.770  0.00  0.00    +0.000 OA
BRANCH  17  19
ATOM     18  C   UNL     1       3.448   2.824  10.553  0.00  0.00    +0.000 C 
ATOM     19  C   UNL     1       4.244   3.722  11.483  0.00  0.00    +0.000 C 
ENDBRANCH  17  19
ENDBRANCH   7  17
ENDBRANCH   1  12
BRANCH   4  20
ATOM     20  C   UNL     1       3.446   4.818  19.365  0.00  0.00    +0.000 C 
BRANCH  20  21
ATOM     21  C   UNL     1       2.915   6.241  19.164  0.00  0.00    +0.000 A 
ATOM     22  C   UNL     1       3.123   6.918  17.953  0.00  0.00    +0.000 A 
ATOM     23  C   UNL     1       2.597   8.199  17.763  0.00  0.00    +0.000 A 
ATOM     24  C   UNL     1       1.852   8.800  18.771  0.00  0.00    +0.000 A 
ATOM     25  F   UNL     1       1.332  10.018  18.573  0.00  0.00    +0.000 F 
ATOM     26  C   UNL     1       1.643   8.160  19.982  0.00  0.00    +0.000 A 
ATOM     27  C   UNL     1       2.196   6.898  20.186  0.00  0.00    +0.000 A 
ENDBRANCH  20  21
BRANCH  20  28
ATOM     28  C   UNL     1       2.356   3.764  19.071  0.00  0.00    +0.000 C 
BRANCH  28  29
ATOM     29  O   UNL     1       2.430   2.627  19.944  0.00  0.00    +0.000 OA
ATOM     30  C   UNL     1       2.619   3.039  21.293  0.00  0.00    +0.000 C 
ENDBRANCH  28  29
ENDBRANCH  20  28
ENDBRANCH   4  20
TORSDOF 7
ENDMDL
MODEL 4
REMARK VINA RESULT:      -7.4      2.313      3.468
REMARK  Name = 
REMARK  9 active torsions:
REMARK  status: ('A' for Active; 'I' for Inactive)
REMARK    1  A    between atoms: C_1  and  C_2
REMARK    2  A    between atoms: C_2  and  O_3
REMARK    3  A    between atoms: O_3  and  C_4
REMARK    4  A    between atoms: C_9  and  N_10
REMARK    5  A    between atoms: N_13  and  C_14
REMARK    6  A    between atoms: C_14  and  C_15
REMARK    7  A    between atoms: C_14  and  C_18
REMARK    8  A    between atoms: C_15  and  O_16
REMARK    9  A    between atoms: O_16  and  C_17
REMARK                            x       y       z     vdW  Elec       q    Type
REMARK                         _______ _______ _______ _____ _____    ______ ____
ROOT
ATOM      1  N   UNL     1       6.378   5.109  17.676  0.00  0.00    +0.000 N 
ATOM      2  C   UNL     1       5.297   5.470  18.443  0.00  0.00    +0.000 C 
ATOM      3  O   UNL     1       5.450   5.867  19.596  0.00  0.00    +0.000 OA
ATOM      4  N   UNL     1       4.092   5.343  17.845  0.00  0.00    +0.000 N 
ATOM      5  H   UNL     1       7.259   5.164  18.164  0.00  0.00    +0.000 HD
ATOM      6  H   UNL     1       4.185   5.244  16.838  0.00  0.00    +0.000 HD
ENDROOT
BRANCH   1  12
ATOM      7  C   UNL     1       6.607   3.687  12.339  0.00  0.00    +0.000 A 
ATOM      8  N   UNL     1       7.469   4.594  11.871  0.00  0.00    +0.000 NA
ATOM      9  N   UNL     1       7.768   5.324  12.960  0.00  0.00    +0.000 N 
ATOM     10  C   UNL     1       7.133   4.920  14.104  0.00  0.00    +0.000 A 
ATOM     11  C   UNL     1       7.174   5.393  15.421  0.00  0.00    +0.000 A 
ATOM     12  C   UNL     1       6.382   4.696  16.325  0.00  0.00    +0.000 A 
ATOM     13  N   UNL     1       5.606   3.646  15.961  0.00  0.00    +0.000 NA
ATOM     14  C   UNL     1       5.578   3.201  14.676  0.00  0.00    +0.000 A 
ATOM     15  C   UNL     1       6.351   3.837  13.715  0.00  0.00    +0.000 A 
ATOM     16  H   UNL     1       8.421   6.091  12.851  0.00  0.00    +0.000 HD
BRANCH   7  17
ATOM     17  O   UNL     1       6.039   2.780  11.509  0.00  0.00    +0.000 OA
BRANCH  17  19
ATOM     18  C   UNL     1       6.158   0.403  11.175  0.00  0.00    +0.000 C 
ATOM     19  C   UNL     1       6.919   1.715  11.143  0.00  0.00    +0.000 C 
ENDBRANCH  17  19
ENDBRANCH   7  17
ENDBRANCH   1  12
BRANCH   4  20
ATOM     20  C   UNL     1       2.783   5.765  18.312  0.00  0.00    +0.000 C 
BRANCH  20  21
ATOM     21  C   UNL     1       2.275   4.755  19.345  0.00  0.00    +0.000 A 
ATOM     22  C   UNL     1       2.640   4.867  20.695  0.00  0.00    +0.000 A 
ATOM     23  C   UNL     1       2.136   3.967  21.638  0.00  0.00    +0.000 A 
ATOM     24  C   UNL     1       1.257   2.965  21.241  0.00  0.00    +0.000 A 
ATOM     25  F   UNL     1       0.760   2.120  22.154  0.00  0.00    +0.000 F 
ATOM     26  C   UNL     1       0.891   2.823  19.912  0.00  0.00    +0.000 A 
ATOM     27  C   UNL     1       1.420   3.698  18.966  0.00  0.00    +0.000 A 
ENDBRANCH  20  21
BRANCH  20  28
ATOM     28  C   UNL     1       2.709   7.210  18.853  0.00  0.00    +0.000 C 
BRANCH  28  29
ATOM     29  O   UNL     1       2.827   8.199  17.820  0.00  0.00    +0.000 OA
ATOM     30  C   UNL     1       1.707   9.077  17.831  0.00  0.00    +0.000 C 
ENDBRANCH  28  29
ENDBRANCH  20  28
ENDBRANCH   4  20
TORSDOF 7
ENDMDL
MODEL 5
REMARK VINA RESULT:      -7.3      1.007      1.538
REMARK  Name = 
REMARK  9 active torsions:
REMARK  status: ('A' for Active; 'I' for Inactive)
REMARK    1  A    between atoms: C_1  and  C_2
REMARK    2  A    between atoms: C_2  and  O_3
REMARK    3  A    between atoms: O_3  and  C_4
REMARK    4  A    between atoms: C_9  and  N_10
REMARK    5  A    between atoms: N_13  and  C_14
REMARK    6  A    between atoms: C_14  and  C_15
REMARK    7  A    between atoms: C_14  and  C_18
REMARK    8  A    between atoms: C_15  and  O_16
REMARK    9  A    between atoms: O_16  and  C_17
REMARK                            x       y       z     vdW  Elec       q    Type
REMARK                         _______ _______ _______ _____ _____    ______ ____
ROOT
ATOM      1  N   UNL     1       7.162   4.962  17.932  0.00  0.00    +0.000 N 
ATOM      2  C   UNL     1       6.260   5.118  18.957  0.00  0.00    +0.000 C 
ATOM      3  O   UNL     1       6.627   5.506  20.064  0.00  0.00    +0.000 OA
ATOM      4  N   UNL     1       4.980   4.807  18.655  0.00  0.00    +0.000 N 
ATOM      5  H   UNL     1       8.116   5.151  18.200  0.00  0.00    +0.000 HD
ATOM      6  H   UNL     1       4.837   4.751  17.651  0.00  0.00    +0.000 HD
ENDROOT
BRANCH   1  12
ATOM      7  C   UNL     1       6.339   3.694  12.616  0.00  0.00    +0.000 A 
ATOM      8  N   UNL     1       7.136   4.583  12.016  0.00  0.00    +0.000 NA
ATOM      9  N   UNL     1       7.661   5.269  13.047  0.00  0.00    +0.000 N 
ATOM     10  C   UNL     1       7.234   4.854  14.279  0.00  0.00    +0.000 A 
ATOM     11  C   UNL     1       7.537   5.285  15.576  0.00  0.00    +0.000 A 
ATOM     12  C   UNL     1       6.899   4.590  16.595  0.00  0.00    +0.000 A 
ATOM     13  N   UNL     1       6.027   3.579  16.358  0.00  0.00    +0.000 NA
ATOM     14  C   UNL     1       5.742   3.175  15.091  0.00  0.00    +0.000 A 
ATOM     15  C   UNL     1       6.350   3.812  14.018  0.00  0.00    +0.000 A 
ATOM     16  H   UNL     1       8.313   6.016  12.835  0.00  0.00    +0.000 HD
BRANCH   7  17
ATOM     17  O   UNL     1       5.591   2.834  11.885  0.00  0.00    +0.000 OA
BRANCH  17  19
ATOM     18  C   UNL     1       6.052   0.549  11.296  0.00  0.00    +0.000 C 
ATOM     19  C   UNL     1       6.365   2.007  11.012  0.00  0.00    +0.000 C 
ENDBRANCH  17  19
ENDBRANCH   7  17
ENDBRANCH   1  12
BRANCH   4  20
ATOM     20  C   UNL     1       3.777   4.994  19.447  0.00  0.00    +0.000 C 
BRANCH  20  21
ATOM     21  C   UNL     1       3.143   6.339  19.077  0.00  0.00    +0.000 A 
ATOM     22  C   UNL     1       3.390   6.926  17.828  0.00  0.00    +0.000 A 
ATOM     23  C   UNL     1       2.772   8.131  17.482  0.00  0.00    +0.000 A 
ATOM     24  C   UNL     1       1.897   8.744  18.373  0.00  0.00    +0.000 A 
ATOM     25  F   UNL     1       1.292   9.887  18.025  0.00  0.00    +0.000 F 
ATOM     26  C   UNL     1       1.647   8.193  19.619  0.00  0.00    +0.000 A 
ATOM     27  C   UNL     1       2.288   7.010  19.978  0.00  0.00    +0.000 A 
ENDBRANCH  20  21
BRANCH  20  28
ATOM     28  C   UNL     1       2.748   3.845  19.367  0.00  0.00    +0.000 C 
BRANCH  28  29
ATOM     29  O   UNL     1       3.337   2.594  18.985  0.00  0.00    +0.000 OA
ATOM     30  C   UNL     1       2.721   2.085  17.808  0.00  0.00    +0.000 C 
ENDBRANCH  28  29
ENDBRANCH  20  28
ENDBRANCH   4  20
TORSDOF 7
ENDMDL
MODEL 6
REMARK VINA RESULT:      -7.3      0.962      1.141
REMARK  Name = 
REMARK  9 active torsions:
REMARK  status: ('A' for Active; 'I' for Inactive)
REMARK    1  A    between atoms: C_1  and  C_2
REMARK    2  A    between atoms: C_2  and  O_3
REMARK    3  A    between atoms: O_3  and  C_4
REMARK    4  A    between atoms: C_9  and  N_10
REMARK    5  A    between atoms: N_13  and  C_14
REMARK    6  A    between atoms: C_14  and  C_15
REMARK    7  A    between atoms: C_14  and  C_18
REMARK    8  A    between atoms: C_15  and  O_16
REMARK    9  A    between atoms: O_16  and  C_17
REMARK                            x       y       z     vdW  Elec       q    Type
REMARK                         _______ _______ _______ _____ _____    ______ ____
ROOT
ATOM      1  N   UNL     1       7.318   4.942  17.845  0.00  0.00    +0.000 N 
ATOM      2  C   UNL     1       6.449   5.098  18.899  0.00  0.00    +0.000 C 
ATOM      3  O   UNL     1       6.863   5.415  20.012  0.00  0.00    +0.000 OA
ATOM      4  N   UNL     1       5.148   4.870  18.617  0.00  0.00    +0.000 N 
ATOM      5  H   UNL     1       8.286   5.068  18.096  0.00  0.00    +0.000 HD
ATOM      6  H   UNL     1       4.978   4.867  17.615  0.00  0.00    +0.000 HD
ENDROOT
BRANCH   1  12
ATOM      7  C   UNL     1       6.313   3.949  12.501  0.00  0.00    +0.000 A 
ATOM      8  N   UNL     1       7.208   4.754  11.920  0.00  0.00    +0.000 NA
ATOM      9  N   UNL     1       7.818   5.339  12.966  0.00  0.00    +0.000 N 
ATOM     10  C   UNL     1       7.352   4.940  14.190  0.00  0.00    +0.000 A 
ATOM     11  C   UNL     1       7.713   5.291  15.496  0.00  0.00    +0.000 A 
ATOM     12  C   UNL     1       7.003   4.647  16.500  0.00  0.00    +0.000 A 
ATOM     13  N   UNL     1       6.013   3.756  16.241  0.00  0.00    +0.000 NA
ATOM     14  C   UNL     1       5.674   3.428  14.966  0.00  0.00    +0.000 A 
ATOM     15  C   UNL     1       6.347   4.021  13.906  0.00  0.00    +0.000 A 
ATOM     16  H   UNL     1       8.554   6.008  12.770  0.00  0.00    +0.000 HD
BRANCH   7  17
ATOM     17  O   UNL     1       5.462   3.208  11.752  0.00  0.00    +0.000 OA
BRANCH  17  19
ATOM     18  C   UNL     1       6.944   1.563  10.818  0.00  0.00    +0.000 C 
ATOM     19  C   UNL     1       5.774   1.813  11.751  0.00  0.00    +0.000 C 
ENDBRANCH  17  19
ENDBRANCH   7  17
ENDBRANCH   1  12
BRANCH   4  20
ATOM     20  C   UNL     1       3.976   5.083  19.448  0.00  0.00    +0.000 C 
BRANCH  20  21
ATOM     21  C   UNL     1       3.265   6.358  18.985  0.00  0.00    +0.000 A 
ATOM     22  C   UNL     1       2.354   7.015  19.826  0.00  0.00    +0.000 A 
ATOM     23  C   UNL     1       1.744   8.202  19.414  0.00  0.00    +0.000 A 
ATOM     24  C   UNL     1       2.051   8.745  18.170  0.00  0.00    +0.000 A 
ATOM     25  F   UNL     1       1.479   9.895  17.790  0.00  0.00    +0.000 F 
ATOM     26  C   UNL     1       2.935   8.109  17.314  0.00  0.00    +0.000 A 
ATOM     27  C   UNL     1       3.518   6.909  17.710  0.00  0.00    +0.000 A 
ENDBRANCH  20  21
BRANCH  20  28
ATOM     28  C   UNL     1       2.998   3.890  19.530  0.00  0.00    +0.000 C 
BRANCH  28  29
ATOM     29  O   UNL     1       3.603   2.645  19.154  0.00  0.00    +0.000 OA
ATOM     30  C   UNL     1       4.274   2.055  20.262  0.00  0.00    +0.000 C 
ENDBRANCH  28  29
ENDBRANCH  20  28
ENDBRANCH   4  20
TORSDOF 7
ENDMDL
MODEL 7
REMARK VINA RESULT:      -7.2      2.251      3.414
REMARK  Name = 
REMARK  9 active torsions:
REMARK  status: ('A' for Active; 'I' for Inactive)
REMARK    1  A    between atoms: C_1  and  C_2
REMARK    2  A    between atoms: C_2  and  O_3
REMARK    3  A    between atoms: O_3  and  C_4
REMARK    4  A    between atoms: C_9  and  N_10
REMARK    5  A    between atoms: N_13  and  C_14
REMARK    6  A    between atoms: C_14  and  C_15
REMARK    7  A    between atoms: C_14  and  C_18
REMARK    8  A    between atoms: C_15  and  O_16
REMARK    9  A    between atoms: O_16  and  C_17
REMARK                            x       y       z     vdW  Elec       q    Type
REMARK                         _______ _______ _______ _____ _____    ______ ____
ROOT
ATOM      1  N   UNL     1       6.244   5.098  17.653  0.00  0.00    +0.000 N 
ATOM      2  C   UNL     1       5.152   5.463  18.403  0.00  0.00    +0.000 C 
ATOM      3  O   UNL     1       5.287   5.852  19.562  0.00  0.00    +0.000 OA
ATOM      4  N   UNL     1       3.957   5.350  17.783  0.00  0.00    +0.000 N 
ATOM      5  H   UNL     1       7.115   5.142  18.158  0.00  0.00    +0.000 HD
ATOM      6  H   UNL     1       4.068   5.257  16.777  0.00  0.00    +0.000 HD
ENDROOT
BRANCH   1  12
ATOM      7  C   UNL     1       6.559   3.706  12.313  0.00  0.00    +0.000 A 
ATOM      8  N   UNL     1       7.448   4.599  11.870  0.00  0.00    +0.000 NA
ATOM      9  N   UNL     1       7.738   5.316  12.970  0.00  0.00    +0.000 N 
ATOM     10  C   UNL     1       7.071   4.917  14.098  0.00  0.00    +0.000 A 
ATOM     11  C   UNL     1       7.092   5.380  15.418  0.00  0.00    +0.000 A 
ATOM     12  C   UNL     1       6.269   4.694  16.300  0.00  0.00    +0.000 A 
ATOM     13  N   UNL     1       5.481   3.660  15.913  0.00  0.00    +0.000 NA
ATOM     14  C   UNL     1       5.471   3.224  14.624  0.00  0.00    +0.000 A 
ATOM     15  C   UNL     1       6.277   3.852  13.684  0.00  0.00    +0.000 A 
ATOM     16  H   UNL     1       8.407   6.071  12.880  0.00  0.00    +0.000 HD
BRANCH   7  17
ATOM     17  O   UNL     1       5.992   2.815  11.465  0.00  0.00    +0.000 OA
BRANCH  17  19
ATOM     18  C   UNL     1       3.967   3.825  10.651  0.00  0.00    +0.000 C 
ATOM     19  C   UNL     1       4.566   2.768  11.561  0.00  0.00    +0.000 C 
ENDBRANCH  17  19
ENDBRANCH   7  17
ENDBRANCH   1  12
BRANCH   4  20
ATOM     20  C   UNL     1       2.644   5.781  18.229  0.00  0.00    +0.000 C 
BRANCH  20  21
ATOM     21  C   UNL     1       2.144   4.815  19.307  0.00  0.00    +0.000 A 
ATOM     22  C   UNL     1       1.375   3.694  18.962  0.00  0.00    +0.000 A 
ATOM     23  C   UNL     1       0.961   2.793  19.947  0.00  0.00    +0.000 A 
ATOM     24  C   UNL     1       1.324   3.000  21.274  0.00  0.00    +0.000 A 
ATOM     25  F   UNL     1       0.943   2.121  22.209  0.00  0.00    +0.000 F 
ATOM     26  C   UNL     1       2.071   4.107  21.644  0.00  0.00    +0.000 A 
ATOM     27  C   UNL     1       2.455   5.023  20.668  0.00  0.00    +0.000 A 
ENDBRANCH  20  21
BRANCH  20  28
ATOM     28  C   UNL     1       2.555   7.249  18.701  0.00  0.00    +0.000 C 
BRANCH  28  29
ATOM     29  O   UNL     1       1.741   8.063  17.845  0.00  0.00    +0.000 OA
ATOM     30  C   UNL     1       2.041   9.442  18.024  0.00  0.00    +0.000 C 
ENDBRANCH  28  29
ENDBRANCH  20  28
ENDBRANCH   4  20
TORSDOF 7
ENDMDL
MODEL 8
REMARK VINA RESULT:      -7.2      3.590      7.839
REMARK  Name = 
REMARK  9 active torsions:
REMARK  status: ('A' for Active; 'I' for Inactive)
REMARK    1  A    between atoms: C_1  and  C_2
REMARK    2  A    between atoms: C_2  and  O_3
REMARK    3  A    between atoms: O_3  and  C_4
REMARK    4  A    between atoms: C_9  and  N_10
REMARK    5  A    between atoms: N_13  and  C_14
REMARK    6  A    between atoms: C_14  and  C_15
REMARK    7  A    between atoms: C_14  and  C_18
REMARK    8  A    between atoms: C_15  and  O_16
REMARK    9  A    between atoms: O_16  and  C_17
REMARK                            x       y       z     vdW  Elec       q    Type
REMARK                         _______ _______ _______ _____ _____    ______ ____
ROOT
ATOM      1  N   UNL     1       3.315   4.869  19.757  0.00  0.00    +0.000 N 
ATOM      2  C   UNL     1       4.557   4.442  19.353  0.00  0.00    +0.000 C 
ATOM      3  O   UNL     1       4.909   3.278  19.530  0.00  0.00    +0.000 OA
ATOM      4  N   UNL     1       5.336   5.383  18.776  0.00  0.00    +0.000 N 
ATOM      5  H   UNL     1       2.776   4.161  20.230  0.00  0.00    +0.000 HD
ATOM      6  H   UNL     1       4.793   6.196  18.497  0.00  0.00    +0.000 HD
ENDROOT
BRANCH   1  12
ATOM      7  C   UNL     1       0.990   9.866  19.325  0.00  0.00    +0.000 A 
ATOM      8  N   UNL     1       0.507  10.029  20.560  0.00  0.00    +0.000 NA
ATOM      9  N   UNL     1       0.856   8.887  21.179  0.00  0.00    +0.000 N 
ATOM     10  C   UNL     1       1.543   8.003  20.392  0.00  0.00    +0.000 A 
ATOM     11  C   UNL     1       2.083   6.737  20.646  0.00  0.00    +0.000 A 
ATOM     12  C   UNL     1       2.736   6.145  19.573  0.00  0.00    +0.000 A 
ATOM     13  N   UNL     1       2.830   6.736  18.356  0.00  0.00    +0.000 NA
ATOM     14  C   UNL     1       2.298   7.966  18.126  0.00  0.00    +0.000 A 
ATOM     15  C   UNL     1       1.639   8.629  19.153  0.00  0.00    +0.000 A 
ATOM     16  H   UNL     1       0.591   8.776  22.151  0.00  0.00    +0.000 HD
BRANCH   7  17
ATOM     17  O   UNL     1       0.794  10.812  18.376  0.00  0.00    +0.000 OA
BRANCH  17  19
ATOM     18  C   UNL     1       0.689  13.206  18.567  0.00  0.00    +0.000 C 
ATOM     19  C   UNL     1      -0.032  11.893  18.814  0.00  0.00    +0.000 C 
ENDBRANCH  17  19
ENDBRANCH   7  17
ENDBRANCH   1  12
BRANCH   4  20
ATOM     20  C   UNL     1       6.622   5.236  18.118  0.00  0.00    +0.000 C 
BRANCH  20  21
ATOM     21  C   UNL     1       6.389   4.896  16.643  0.00  0.00    +0.000 A 
ATOM     22  C   UNL     1       7.446   4.942  15.723  0.00  0.00    +0.000 A 
ATOM     23  C   UNL     1       7.234   4.586  14.387  0.00  0.00    +0.000 A 
ATOM     24  C   UNL     1       5.974   4.170  13.971  0.00  0.00    +0.000 A 
ATOM     25  F   UNL     1       5.783   3.809  12.696  0.00  0.00    +0.000 F 
ATOM     26  C   UNL     1       4.909   4.129  14.857  0.00  0.00    +0.000 A 
ATOM     27  C   UNL     1       5.111   4.516  16.179  0.00  0.00    +0.000 A 
ENDBRANCH  20  21
BRANCH  20  28
ATOM     28  C   UNL     1       7.586   6.433  18.275  0.00  0.00    +0.000 C 
BRANCH  28  29
ATOM     29  O   UNL     1       7.118   7.617  17.612  0.00  0.00    +0.000 OA
ATOM     30  C   UNL     1       8.019   8.699  17.816  0.00  0.00    +0.000 C 
ENDBRANCH  28  29
ENDBRANCH  20  28
ENDBRANCH   4  20
TORSDOF 7
ENDMDL
MODEL 9
REMARK VINA RESULT:      -7.1      4.251      7.948
REMARK  Name = 
REMARK  9 active torsions:
REMARK  status: ('A' for Active; 'I' for Inactive)
REMARK    1  A    between atoms: C_1  and  C_2
REMARK    2  A    between atoms: C_2  and  O_3
REMARK    3  A    between atoms: O_3  and  C_4
REMARK    4  A    between atoms: C_9  and  N_10
REMARK    5  A    between atoms: N_13  and  C_14
REMARK    6  A    between atoms: C_14  and  C_15
REMARK    7  A    between atoms: C_14  and  C_18
REMARK    8  A    between atoms: C_15  and  O_16
REMARK    9  A    between atoms: O_16  and  C_17
REMARK                            x       y       z     vdW  Elec       q    Type
REMARK                         _______ _______ _______ _____ _____    ______ ____
ROOT
ATOM      1  N   UNL     1       2.544   6.588  20.636  0.00  0.00    +0.000 N 
ATOM      2  C   UNL     1       2.911   5.519  19.854  0.00  0.00    +0.000 C 
ATOM      3  O   UNL     1       3.501   4.558  20.342  0.00  0.00    +0.000 OA
ATOM      4  N   UNL     1       2.587   5.619  18.546  0.00  0.00    +0.000 N 
ATOM      5  H   UNL     1       2.844   6.510  21.596  0.00  0.00    +0.000 HD
ATOM      6  H   UNL     1       1.898   6.349  18.388  0.00  0.00    +0.000 HD
ENDROOT
BRANCH   1  12
ATOM      7  C   UNL     1      -0.415  11.091  19.403  0.00  0.00    +0.000 A 
ATOM      8  N   UNL     1      -1.043  11.308  20.563  0.00  0.00    +0.000 NA
ATOM      9  N   UNL     1      -0.601  10.307  21.343  0.00  0.00    +0.000 N 
ATOM     10  C   UNL     1       0.285   9.460  20.731  0.00  0.00    +0.000 A 
ATOM     11  C   UNL     1       0.971   8.327  21.183  0.00  0.00    +0.000 A 
ATOM     12  C   UNL     1       1.810   7.732  20.251  0.00  0.00    +0.000 A 
ATOM     13  N   UNL     1       1.945   8.198  18.984  0.00  0.00    +0.000 NA
ATOM     14  C   UNL     1       1.270   9.300  18.561  0.00  0.00    +0.000 A 
ATOM     15  C   UNL     1       0.419   9.958  19.439  0.00  0.00    +0.000 A 
ATOM     16  H   UNL     1      -0.947  10.260  22.294  0.00  0.00    +0.000 HD
BRANCH   7  17
ATOM     17  O   UNL     1      -0.644  11.889  18.333  0.00  0.00    +0.000 OA
BRANCH  17  19
ATOM     18  C   UNL     1      -2.179  10.612  16.996  0.00  0.00    +0.000 C 
ATOM     19  C   UNL     1      -1.994  11.841  17.867  0.00  0.00    +0.000 C 
ENDBRANCH  17  19
ENDBRANCH   7  17
ENDBRANCH   1  12
BRANCH   4  20
ATOM     20  C   UNL     1       2.696   4.624  17.493  0.00  0.00    +0.000 C 
BRANCH  20  21
ATOM     21  C   UNL     1       4.070   4.753  16.830  0.00  0.00    +0.000 A 
ATOM     22  C   UNL     1       4.738   3.619  16.343  0.00  0.00    +0.000 A 
ATOM     23  C   UNL     1       5.971   3.750  15.699  0.00  0.00    +0.000 A 
ATOM     24  C   UNL     1       6.533   5.011  15.526  0.00  0.00    +0.000 A 
ATOM     25  F   UNL     1       7.704   5.131  14.888  0.00  0.00    +0.000 F 
ATOM     26  C   UNL     1       5.902   6.145  16.009  0.00  0.00    +0.000 A 
ATOM     27  C   UNL     1       4.690   6.012  16.681  0.00  0.00    +0.000 A 
ENDBRANCH  20  21
BRANCH  20  28
ATOM     28  C   UNL     1       2.412   3.169  17.926  0.00  0.00    +0.000 C 
BRANCH  28  29
ATOM     29  O   UNL     1       1.013   2.900  18.094  0.00  0.00    +0.000 OA
ATOM     30  C   UNL     1       0.726   2.536  19.439  0.00  0.00    +0.000 C 
ENDBRANCH  28  29
ENDBRANCH  20  28
ENDBRANCH   4  20
TORSDOF 7
ENDMDL
