MODEL 1
REMARK VINA RESULT:      -6.6      0.000      0.000
REMARK  Name = 
REMARK  6 active torsions:
REMARK  status: ('A' for Active; 'I' for Inactive)
REMARK    1  A    between atoms: C_1  and  C_2
REMARK    2  A    between atoms: C_2  and  N_3
REMARK    3  A    between atoms: C_5  and  C_6
REMARK    4  A    between atoms: C_6  and  O_8
REMARK    5  A    between atoms: C_19  and  N_20
REMARK    6  A    between atoms: N_20  and  N_21
REMARK                            x       y       z     vdW  Elec       q    Type
REMARK                         _______ _______ _______ _____ _____    ______ ____
ROOT
ATOM      1  N   UNL     1       3.870   5.428  18.186  0.00  0.00    +0.000 N 
ATOM      2  C   UNL     1       4.348   4.174  18.564  0.00  0.00    +0.000 A 
ATOM      3  C   UNL     1       3.963   3.463  19.640  0.00  0.00    +0.000 A 
ATOM      4  C   UNL     1       2.943   4.108  20.492  0.00  0.00    +0.000 A 
ATOM      5  O   UNL     1       2.535   3.535  21.511  0.00  0.00    +0.000 OA
ATOM      6  C   UNL     1       2.422   5.438  20.129  0.00  0.00    +0.000 A 
ATOM      7  C   UNL     1       1.481   6.057  20.938  0.00  0.00    +0.000 A 
ATOM      8  C   UNL     1       1.039   7.323  20.589  0.00  0.00    +0.000 A 
ATOM      9  F   UNL     1       0.135   7.914  21.382  0.00  0.00    +0.000 F 
ATOM     10  C   UNL     1       1.549   7.962  19.445  0.00  0.00    +0.000 A 
ATOM     11  N   UNL     1       1.191   9.253  19.109  0.00  0.00    +0.000 N 
ATOM     12  C   UNL     1       1.713   9.892  17.905  0.00  0.00    +0.000 C 
ATOM     13  C   UNL     1       2.285  11.215  18.398  0.00  0.00    +0.000 C 
ATOM     14  C   UNL     1       1.342  11.628  19.531  0.00  0.00    +0.000 C 
ATOM     15  C   UNL     1       0.961  10.251  20.161  0.00  0.00    +0.000 C 
ATOM     16  N   UNL     1       2.435   7.311  18.645  0.00  0.00    +0.000 NA
ATOM     17  C   UNL     1       2.890   6.077  18.979  0.00  0.00    +0.000 A 
ENDROOT
BRANCH   1  19
ATOM     18  C   UNL     1       5.161   5.283  16.090  0.00  0.00    +0.000 C 
ATOM     19  C   UNL     1       4.424   6.194  17.065  0.00  0.00    +0.000 C 
ENDBRANCH   1  19
BRANCH   3  20
ATOM     20  C   UNL     1       4.529   2.126  19.964  0.00  0.00    +0.000 C 
ATOM     21  O   UNL     1       5.103   1.879  21.027  0.00  0.00    +0.000 OA
BRANCH  20  22
ATOM     22  O   UNL     1       4.382   1.167  19.021  0.00  0.00    +0.000 OA
ATOM     23  H   UNL     1       5.178   0.976  18.471  0.00  0.00    +0.000 HD
ENDBRANCH  20  22
ENDBRANCH   3  20
BRANCH  14  24
ATOM     24  N   UNL     1       0.153  12.366  19.051  0.00  0.00    +0.000 NA
ATOM     25  H   UNL     1      -0.340  12.771  19.855  0.00  0.00    +0.000 HD
BRANCH  24  26
ATOM     26  N   UNL     1       0.500  13.397  18.099  0.00  0.00    +0.000 NA
ATOM     27  H   UNL     1      -0.186  13.464  17.342  0.00  0.00    +0.000 HD
ATOM     28  H   UNL     1       1.415  13.268  17.661  0.00  0.00    +0.000 HD
ENDBRANCH  24  26
ENDBRANCH  14  24
TORSDOF 5
ENDMDL
MODEL 2
REMARK VINA RESULT:      -6.5      0.907      1.104
REMARK  Name = 
REMARK  6 active torsions:
REMARK  status: ('A' for Active; 'I' for Inactive)
REMARK    1  A    between atoms: C_1  and  C_2
REMARK    2  A    between atoms: C_2  and  N_3
REMARK    3  A    between atoms: C_5  and  C_6
REMARK    4  A    between atoms: C_6  and  O_8
REMARK    5  A    between atoms: C_19  and  N_20
REMARK    6  A    between atoms: N_20  and  N_21
REMARK                            x       y       z     vdW  Elec       q    Type
REMARK                         _______ _______ _______ _____ _____    ______ ____
ROOT
ATOM      1  N   UNL     1       3.453   6.213  17.951  0.00  0.00    +0.000 N 
ATOM      2  C   UNL     1       3.921   4.912  18.129  0.00  0.00    +0.000 A 
ATOM      3  C   UNL     1       3.628   4.090  19.154  0.00  0.00    +0.000 A 
ATOM      4  C   UNL     1       2.728   4.656  20.179  0.00  0.00    +0.000 A 
ATOM      5  O   UNL     1       2.410   3.979  21.166  0.00  0.00    +0.000 OA
ATOM      6  C   UNL     1       2.221   6.032  20.029  0.00  0.00    +0.000 A 
ATOM      7  C   UNL     1       1.394   6.576  21.001  0.00  0.00    +0.000 A 
ATOM      8  C   UNL     1       0.965   7.884  20.848  0.00  0.00    +0.000 A 
ATOM      9  F   UNL     1       0.173   8.400  21.798  0.00  0.00    +0.000 F 
ATOM     10  C   UNL     1       1.373   8.638  19.735  0.00  0.00    +0.000 A 
ATOM     11  N   UNL     1       1.029   9.969  19.588  0.00  0.00    +0.000 N 
ATOM     12  C   UNL     1       1.444  10.731  18.415  0.00  0.00    +0.000 C 
ATOM     13  C   UNL     1       2.113  11.973  18.988  0.00  0.00    +0.000 C 
ATOM     14  C   UNL     1       1.312  12.274  20.258  0.00  0.00    +0.000 C 
ATOM     15  C   UNL     1       0.950  10.843  20.766  0.00  0.00    +0.000 C 
ATOM     16  N   UNL     1       2.145   8.064  18.774  0.00  0.00    +0.000 NA
ATOM     17  C   UNL     1       2.587   6.789  18.915  0.00  0.00    +0.000 A 
ENDROOT
BRANCH   1  19
ATOM     18  C   UNL     1       5.095   6.476  16.130  0.00  0.00    +0.000 C 
ATOM     19  C   UNL     1       3.912   7.091  16.869  0.00  0.00    +0.000 C 
ENDBRANCH   1  19
BRANCH   3  20
ATOM     20  C   UNL     1       4.174   2.711  19.260  0.00  0.00    +0.000 C 
ATOM     21  O   UNL     1       3.760   1.771  18.577  0.00  0.00    +0.000 OA
BRANCH  20  22
ATOM     22  O   UNL     1       5.170   2.527  20.157  0.00  0.00    +0.000 OA
ATOM     23  H   UNL     1       5.709   3.323  20.374  0.00  0.00    +0.000 HD
ENDBRANCH  20  22
ENDBRANCH   3  20
BRANCH  14  24
ATOM     24  N   UNL     1       0.107  13.091  19.998  0.00  0.00    +0.000 NA
ATOM     25  H   UNL     1      -0.277  13.420  20.891  0.00  0.00    +0.000 HD
BRANCH  24  26
ATOM     26  N   UNL     1       0.386  14.210  19.126  0.00  0.00    +0.000 NA
ATOM     27  H   UNL     1      -0.411  14.431  18.522  0.00  0.00    +0.000 HD
ATOM     28  H   UNL     1       1.193  14.070  18.515  0.00  0.00    +0.000 HD
ENDBRANCH  24  26
ENDBRANCH  14  24
TORSDOF 5
ENDMDL
MODEL 3
REMARK VINA RESULT:      -6.4      2.318      3.536
REMARK  Name = 
REMARK  6 active torsions:
REMARK  status: ('A' for Active; 'I' for Inactive)
REMARK    1  A    between atoms: C_1  and  C_2
REMARK    2  A    between atoms: C_2  and  N_3
REMARK    3  A    between atoms: C_5  and  C_6
REMARK    4  A    between atoms: C_6  and  O_8
REMARK    5  A    between atoms: C_19  and  N_20
REMARK    6  A    between atoms: N_20  and  N_21
REMARK                            x       y       z     vdW  Elec       q    Type
REMARK                         _______ _______ _______ _____ _____    ______ ____
ROOT
ATOM      1  N   UNL     1       2.646   4.520  20.227  0.00  0.00    +0.000 N 
ATOM      2  C   UNL     1       3.164   3.487  19.448  0.00  0.00    +0.000 A 
ATOM      3  C   UNL     1       3.644   3.595  18.195  0.00  0.00    +0.000 A 
ATOM      4  C   UNL     1       3.591   4.951  17.612  0.00  0.00    +0.000 A 
ATOM      5  O   UNL     1       3.999   5.147  16.460  0.00  0.00    +0.000 OA
ATOM      6  C   UNL     1       3.040   6.066  18.404  0.00  0.00    +0.000 A 
ATOM      7  C   UNL     1       2.967   7.337  17.853  0.00  0.00    +0.000 A 
ATOM      8  C   UNL     1       2.410   8.355  18.610  0.00  0.00    +0.000 A 
ATOM      9  F   UNL     1       2.338   9.577  18.064  0.00  0.00    +0.000 F 
ATOM     10  C   UNL     1       1.922   8.093  19.901  0.00  0.00    +0.000 A 
ATOM     11  N   UNL     1       1.291   9.064  20.655  0.00  0.00    +0.000 N 
ATOM     12  C   UNL     1       0.810   8.780  22.003  0.00  0.00    +0.000 C 
ATOM     13  C   UNL     1      -0.647   9.222  21.986  0.00  0.00    +0.000 C 
ATOM     14  C   UNL     1      -0.653  10.442  21.060  0.00  0.00    +0.000 C 
ATOM     15  C   UNL     1       0.429  10.057  20.002  0.00  0.00    +0.000 C 
ATOM     16  N   UNL     1       2.051   6.848  20.433  0.00  0.00    +0.000 NA
ATOM     17  C   UNL     1       2.579   5.836  19.702  0.00  0.00    +0.000 A 
ENDROOT
BRANCH   1  19
ATOM     18  C   UNL     1       1.494   2.882  21.667  0.00  0.00    +0.000 C 
ATOM     19  C   UNL     1       2.030   4.304  21.541  0.00  0.00    +0.000 C 
ENDBRANCH   1  19
BRANCH   3  20
ATOM     20  C   UNL     1       4.182   2.433  17.438  0.00  0.00    +0.000 C 
ATOM     21  O   UNL     1       3.787   1.278  17.612  0.00  0.00    +0.000 OA
BRANCH  20  22
ATOM     22  O   UNL     1       5.145   2.703  16.527  0.00  0.00    +0.000 OA
ATOM     23  H   UNL     1       4.933   3.406  15.869  0.00  0.00    +0.000 HD
ENDBRANCH  20  22
ENDBRANCH   3  20
BRANCH  14  24
ATOM     24  N   UNL     1      -0.319  11.700  21.762  0.00  0.00    +0.000 NA
ATOM     25  H   UNL     1      -0.708  12.493  21.238  0.00  0.00    +0.000 HD
BRANCH  24  26
ATOM     26  N   UNL     1      -0.804  11.708  23.124  0.00  0.00    +0.000 NA
ATOM     27  H   UNL     1      -0.135  12.146  23.764  0.00  0.00    +0.000 HD
ATOM     28  H   UNL     1      -1.010  10.780  23.498  0.00  0.00    +0.000 HD
ENDBRANCH  24  26
ENDBRANCH  14  24
TORSDOF 5
ENDMDL
MODEL 4
REMARK VINA RESULT:      -6.3      6.924     10.281
REMARK  Name = 
REMARK  6 active torsions:
REMARK  status: ('A' for Active; 'I' for Inactive)
REMARK    1  A    between atoms: C_1  and  C_2
REMARK    2  A    between atoms: C_2  and  N_3
REMARK    3  A    between atoms: C_5  and  C_6
REMARK    4  A    between atoms: C_6  and  O_8
REMARK    5  A    between atoms: C_19  and  N_20
REMARK    6  A    between atoms: N_20  and  N_21
REMARK                            x       y       z     vdW  Elec       q    Type
REMARK                         _______ _______ _______ _____ _____    ______ ____
ROOT
ATOM      1  N   UNL     1      -5.315  12.591  20.581  0.00  0.00    +0.000 N 
ATOM      2  C   UNL     1      -6.234  12.919  21.576  0.00  0.00    +0.000 A 
ATOM      3  C   UNL     1      -5.953  13.207  22.860  0.00  0.00    +0.000 A 
ATOM      4  C   UNL     1      -4.522  13.149  23.222  0.00  0.00    +0.000 A 
ATOM      5  O   UNL     1      -4.167  13.388  24.384  0.00  0.00    +0.000 OA
ATOM      6  C   UNL     1      -3.523  12.796  22.198  0.00  0.00    +0.000 A 
ATOM      7  C   UNL     1      -2.180  12.719  22.538  0.00  0.00    +0.000 A 
ATOM      8  C   UNL     1      -1.271  12.348  21.561  0.00  0.00    +0.000 A 
ATOM      9  F   UNL     1       0.023  12.269  21.904  0.00  0.00    +0.000 F 
ATOM     10  C   UNL     1      -1.710  12.048  20.261  0.00  0.00    +0.000 A 
ATOM     11  N   UNL     1      -0.843  11.600  19.282  0.00  0.00    +0.000 N 
ATOM     12  C   UNL     1      -1.313  11.315  17.930  0.00  0.00    +0.000 C 
ATOM     13  C   UNL     1      -0.818   9.903  17.648  0.00  0.00    +0.000 C 
ATOM     14  C   UNL     1       0.529   9.830  18.373  0.00  0.00    +0.000 C 
ATOM     15  C   UNL     1       0.271  10.712  19.636  0.00  0.00    +0.000 C 
ATOM     16  N   UNL     1      -3.026  12.179  19.944  0.00  0.00    +0.000 NA
ATOM     17  C   UNL     1      -3.932  12.526  20.891  0.00  0.00    +0.000 A 
ENDROOT
BRANCH   1  19
ATOM     18  C   UNL     1      -7.174  11.756  19.192  0.00  0.00    +0.000 C 
ATOM     19  C   UNL     1      -5.707  12.171  19.231  0.00  0.00    +0.000 C 
ENDBRANCH   1  19
BRANCH   3  20
ATOM     20  C   UNL     1      -7.004  13.550  23.856  0.00  0.00    +0.000 C 
ATOM     21  O   UNL     1      -7.916  12.779  24.160  0.00  0.00    +0.000 OA
BRANCH  20  22
ATOM     22  O   UNL     1      -6.913  14.773  24.427  0.00  0.00    +0.000 OA
ATOM     23  H   UNL     1      -6.328  15.422  23.970  0.00  0.00    +0.000 HD
ENDBRANCH  20  22
ENDBRANCH   3  20
BRANCH  14  24
ATOM     24  N   UNL     1       1.651  10.345  17.557  0.00  0.00    +0.000 NA
ATOM     25  H   UNL     1       1.327  10.495  16.595  0.00  0.00    +0.000 HD
BRANCH  24  26
ATOM     26  N   UNL     1       2.203  11.565  18.102  0.00  0.00    +0.000 NA
ATOM     27  H   UNL     1       2.574  12.176  17.369  0.00  0.00    +0.000 HD
ATOM     28  H   UNL     1       2.957  11.416  18.776  0.00  0.00    +0.000 HD
ENDBRANCH  24  26
ENDBRANCH  14  24
TORSDOF 5
ENDMDL
MODEL 5
REMARK VINA RESULT:      -6.3      4.403      8.060
REMARK  Name = 
REMARK  6 active torsions:
REMARK  status: ('A' for Active; 'I' for Inactive)
REMARK    1  A    between atoms: C_1  and  C_2
REMARK    2  A    between atoms: C_2  and  N_3
REMARK    3  A    between atoms: C_5  and  C_6
REMARK    4  A    between atoms: C_6  and  O_8
REMARK    5  A    between atoms: C_19  and  N_20
REMARK    6  A    between atoms: N_20  and  N_21
REMARK                            x       y       z     vdW  Elec       q    Type
REMARK                         _______ _______ _______ _____ _____    ______ ____
ROOT
ATOM      1  N   UNL     1       0.051   9.785  20.883  0.00  0.00    +0.000 N 
ATOM      2  C   UNL     1      -0.311  11.131  20.926  0.00  0.00    +0.000 A 
ATOM      3  C   UNL     1       0.043  12.082  20.042  0.00  0.00    +0.000 A 
ATOM      4  C   UNL     1       0.910  11.626  18.936  0.00  0.00    +0.000 A 
ATOM      5  O   UNL     1       1.296  12.432  18.080  0.00  0.00    +0.000 OA
ATOM      6  C   UNL     1       1.321  10.212  18.865  0.00  0.00    +0.000 A 
ATOM      7  C   UNL     1       2.153   9.784  17.841  0.00  0.00    +0.000 A 
ATOM      8  C   UNL     1       2.551   8.457  17.824  0.00  0.00    +0.000 A 
ATOM      9  F   UNL     1       3.361   8.057  16.834  0.00  0.00    +0.000 F 
ATOM     10  C   UNL     1       2.124   7.575  18.831  0.00  0.00    +0.000 A 
ATOM     11  N   UNL     1       2.562   6.266  18.890  0.00  0.00    +0.000 N 
ATOM     12  C   UNL     1       2.091   5.359  19.931  0.00  0.00    +0.000 C 
ATOM     13  C   UNL     1       3.365   4.791  20.542  0.00  0.00    +0.000 C 
ATOM     14  C   UNL     1       4.330   4.686  19.358  0.00  0.00    +0.000 C 
ATOM     15  C   UNL     1       3.939   5.932  18.502  0.00  0.00    +0.000 C 
ATOM     16  N   UNL     1       1.270   8.012  19.795  0.00  0.00    +0.000 NA
ATOM     17  C   UNL     1       0.882   9.311  19.837  0.00  0.00    +0.000 A 
ENDROOT
BRANCH   1  19
ATOM     18  C   UNL     1      -0.041   9.448  23.324  0.00  0.00    +0.000 C 
ATOM     19  C   UNL     1      -0.274   8.832  21.949  0.00  0.00    +0.000 C 
ENDBRANCH   1  19
BRANCH   3  20
ATOM     20  C   UNL     1      -0.395  13.498  20.167  0.00  0.00    +0.000 C 
ATOM     21  O   UNL     1      -0.190  14.177  21.175  0.00  0.00    +0.000 OA
BRANCH  20  22
ATOM     22  O   UNL     1      -1.042  14.023  19.101  0.00  0.00    +0.000 OA
ATOM     23  H   UNL     1      -0.473  14.322  18.354  0.00  0.00    +0.000 HD
ENDBRANCH  20  22
ENDBRANCH   3  20
BRANCH  14  24
ATOM     24  N   UNL     1       4.177   3.424  18.600  0.00  0.00    +0.000 NA
ATOM     25  H   UNL     1       4.631   3.523  17.684  0.00  0.00    +0.000 HD
BRANCH  24  26
ATOM     26  N   UNL     1       4.722   2.291  19.314  0.00  0.00    +0.000 NA
ATOM     27  H   UNL     1       5.611   2.519  19.768  0.00  0.00    +0.000 HD
ATOM     28  H   UNL     1       4.887   1.470  18.729  0.00  0.00    +0.000 HD
ENDBRANCH  24  26
ENDBRANCH  14  24
TORSDOF 5
ENDMDL
MODEL 6
REMARK VINA RESULT:      -6.1      4.097      7.875
REMARK  Name = 
REMARK  6 active torsions:
REMARK  status: ('A' for Active; 'I' for Inactive)
REMARK    1  A    between atoms: C_1  and  C_2
REMARK    2  A    between atoms: C_2  and  N_3
REMARK    3  A    between atoms: C_5  and  C_6
REMARK    4  A    between atoms: C_6  and  O_8
REMARK    5  A    between atoms: C_19  and  N_20
REMARK    6  A    between atoms: N_20  and  N_21
REMARK                            x       y       z     vdW  Elec       q    Type
REMARK                         _______ _______ _______ _____ _____    ______ ____
ROOT
ATOM      1  N   UNL     1       0.513   9.493  20.814  0.00  0.00    +0.000 N 
ATOM      2  C   UNL     1       0.490  10.882  20.691  0.00  0.00    +0.000 A 
ATOM      3  C   UNL     1       1.103  11.610  19.739  0.00  0.00    +0.000 A 
ATOM      4  C   UNL     1       1.877  10.833  18.750  0.00  0.00    +0.000 A 
ATOM      5  O   UNL     1       2.486  11.417  17.843  0.00  0.00    +0.000 OA
ATOM      6  C   UNL     1       1.932   9.364  18.855  0.00  0.00    +0.000 A 
ATOM      7  C   UNL     1       2.677   8.631  17.942  0.00  0.00    +0.000 A 
ATOM      8  C   UNL     1       2.738   7.256  18.090  0.00  0.00    +0.000 A 
ATOM      9  F   UNL     1       3.466   6.560  17.206  0.00  0.00    +0.000 F 
ATOM     10  C   UNL     1       2.066   6.626  19.152  0.00  0.00    +0.000 A 
ATOM     11  N   UNL     1       2.166   5.267  19.377  0.00  0.00    +0.000 N 
ATOM     12  C   UNL     1       1.444   4.627  20.472  0.00  0.00    +0.000 C 
ATOM     13  C   UNL     1       2.513   3.848  21.226  0.00  0.00    +0.000 C 
ATOM     14  C   UNL     1       3.472   3.377  20.129  0.00  0.00    +0.000 C 
ATOM     15  C   UNL     1       3.435   4.571  19.124  0.00  0.00    +0.000 C 
ATOM     16  N   UNL     1       1.304   7.365  20.003  0.00  0.00    +0.000 NA
ATOM     17  C   UNL     1       1.245   8.714  19.882  0.00  0.00    +0.000 A 
ENDROOT
BRANCH   1  19
ATOM     18  C   UNL     1      -0.321   9.719  23.123  0.00  0.00    +0.000 C 
ATOM     19  C   UNL     1      -0.081   8.778  21.948  0.00  0.00    +0.000 C 
ENDBRANCH   1  19
BRANCH   3  20
ATOM     20  C   UNL     1       1.020  13.094  19.685  0.00  0.00    +0.000 C 
ATOM     21  O   UNL     1       1.349  13.819  20.627  0.00  0.00    +0.000 OA
BRANCH  20  22
ATOM     22  O   UNL     1       0.560  13.628  18.531  0.00  0.00    +0.000 OA
ATOM     23  H   UNL     1       1.239  14.026  17.937  0.00  0.00    +0.000 HD
ENDBRANCH  20  22
ENDBRANCH   3  20
BRANCH  14  24
ATOM     24  N   UNL     1       3.047   2.108  19.498  0.00  0.00    +0.000 NA
ATOM     25  H   UNL     1       2.129   2.241  19.058  0.00  0.00    +0.000 HD
BRANCH  24  26
ATOM     26  N   UNL     1       4.009   1.634  18.528  0.00  0.00    +0.000 NA
ATOM     27  H   UNL     1       4.588   2.395  18.163  0.00  0.00    +0.000 HD
ATOM     28  H   UNL     1       3.591   1.164  17.722  0.00  0.00    +0.000 HD
ENDBRANCH  24  26
ENDBRANCH  14  24
TORSDOF 5
ENDMDL
MODEL 7
REMARK VINA RESULT:      -6.1      3.468      7.180
REMARK  Name = 
REMARK  6 active torsions:
REMARK  status: ('A' for Active; 'I' for Inactive)
REMARK    1  A    between atoms: C_1  and  C_2
REMARK    2  A    between atoms: C_2  and  N_3
REMARK    3  A    between atoms: C_5  and  C_6
REMARK    4  A    between atoms: C_6  and  O_8
REMARK    5  A    between atoms: C_19  and  N_20
REMARK    6  A    between atoms: N_20  and  N_21
REMARK                            x       y       z     vdW  Elec       q    Type
REMARK                         _______ _______ _______ _____ _____    ______ ____
ROOT
ATOM      1  N   UNL     1       1.275  10.045  19.203  0.00  0.00    +0.000 N 
ATOM      2  C   UNL     1       0.335  10.895  19.786  0.00  0.00    +0.000 A 
ATOM      3  C   UNL     1      -0.409  10.634  20.877  0.00  0.00    +0.000 A 
ATOM      4  C   UNL     1      -0.194   9.305  21.486  0.00  0.00    +0.000 A 
ATOM      5  O   UNL     1      -0.842   8.971  22.486  0.00  0.00    +0.000 OA
ATOM      6  C   UNL     1       0.784   8.378  20.890  0.00  0.00    +0.000 A 
ATOM      7  C   UNL     1       0.972   7.120  21.445  0.00  0.00    +0.000 A 
ATOM      8  C   UNL     1       1.872   6.259  20.840  0.00  0.00    +0.000 A 
ATOM      9  F   UNL     1       2.040   5.044  21.381  0.00  0.00    +0.000 F 
ATOM     10  C   UNL     1       2.566   6.655  19.684  0.00  0.00    +0.000 A 
ATOM     11  N   UNL     1       3.412   5.796  19.008  0.00  0.00    +0.000 N 
ATOM     12  C   UNL     1       4.140   6.231  17.822  0.00  0.00    +0.000 C 
ATOM     13  C   UNL     1       3.814   5.179  16.770  0.00  0.00    +0.000 C 
ATOM     14  C   UNL     1       3.708   3.877  17.569  0.00  0.00    +0.000 C 
ATOM     15  C   UNL     1       3.088   4.366  18.916  0.00  0.00    +0.000 C 
ATOM     16  N   UNL     1       2.396   7.911  19.190  0.00  0.00    +0.000 NA
ATOM     17  C   UNL     1       1.508   8.762  19.760  0.00  0.00    +0.000 A 
ENDROOT
BRANCH   1  19
ATOM     18  C   UNL     1       2.449  11.795  17.922  0.00  0.00    +0.000 C 
ATOM     19  C   UNL     1       1.962  10.351  17.944  0.00  0.00    +0.000 C 
ENDBRANCH   1  19
BRANCH   3  20
ATOM     20  C   UNL     1      -1.389  11.606  21.431  0.00  0.00    +0.000 C 
ATOM     21  O   UNL     1      -2.166  12.252  20.725  0.00  0.00    +0.000 OA
BRANCH  20  22
ATOM     22  O   UNL     1      -1.393  11.754  22.776  0.00  0.00    +0.000 OA
ATOM     23  H   UNL     1      -0.860  12.504  23.130  0.00  0.00    +0.000 HD
ENDBRANCH  20  22
ENDBRANCH   3  20
BRANCH  14  24
ATOM     24  N   UNL     1       5.017   3.216  17.769  0.00  0.00    +0.000 NA
ATOM     25  H   UNL     1       5.749   3.772  17.313  0.00  0.00    +0.000 HD
BRANCH  24  26
ATOM     26  N   UNL     1       5.322   3.027  19.169  0.00  0.00    +0.000 NA
ATOM     27  H   UNL     1       5.918   2.209  19.323  0.00  0.00    +0.000 HD
ATOM     28  H   UNL     1       4.498   2.912  19.763  0.00  0.00    +0.000 HD
ENDBRANCH  24  26
ENDBRANCH  14  24
TORSDOF 5
ENDMDL
MODEL 8
REMARK VINA RESULT:      -6.0      9.424     11.442
REMARK  Name = 
REMARK  6 active torsions:
REMARK  status: ('A' for Active; 'I' for Inactive)
REMARK    1  A    between atoms: C_1  and  C_2
REMARK    2  A    between atoms: C_2  and  N_3
REMARK    3  A    between atoms: C_5  and  C_6
REMARK    4  A    between atoms: C_6  and  O_8
REMARK    5  A    between atoms: C_19  and  N_20
REMARK    6  A    between atoms: N_20  and  N_21
REMARK                            x       y       z     vdW  Elec       q    Type
REMARK                         _______ _______ _______ _____ _____    ______ ____
ROOT
ATOM      1  N   UNL     1       8.175  15.916  19.739  0.00  0.00    +0.000 N 
ATOM      2  C   UNL     1       8.955  16.469  18.725  0.00  0.00    +0.000 A 
ATOM      3  C   UNL     1       9.973  15.867  18.081  0.00  0.00    +0.000 A 
ATOM      4  C   UNL     1      10.274  14.490  18.524  0.00  0.00    +0.000 A 
ATOM      5  O   UNL     1      11.200  13.859  17.998  0.00  0.00    +0.000 OA
ATOM      6  C   UNL     1       9.475  13.877  19.601  0.00  0.00    +0.000 A 
ATOM      7  C   UNL     1       9.769  12.593  20.036  0.00  0.00    +0.000 A 
ATOM      8  C   UNL     1       9.024  12.060  21.074  0.00  0.00    +0.000 A 
ATOM      9  F   UNL     1       9.322  10.821  21.490  0.00  0.00    +0.000 F 
ATOM     10  C   UNL     1       8.002  12.816  21.675  0.00  0.00    +0.000 A 
ATOM     11  N   UNL     1       7.290  12.348  22.763  0.00  0.00    +0.000 N 
ATOM     12  C   UNL     1       6.218  13.137  23.360  0.00  0.00    +0.000 C 
ATOM     13  C   UNL     1       6.568  13.190  24.841  0.00  0.00    +0.000 C 
ATOM     14  C   UNL     1       7.205  11.826  25.122  0.00  0.00    +0.000 C 
ATOM     15  C   UNL     1       7.960  11.535  23.786  0.00  0.00    +0.000 C 
ATOM     16  N   UNL     1       7.705  14.053  21.196  0.00  0.00    +0.000 NA
ATOM     17  C   UNL     1       8.434  14.597  20.190  0.00  0.00    +0.000 A 
ENDROOT
BRANCH   1  19
ATOM     18  C   UNL     1       6.110  17.249  19.531  0.00  0.00    +0.000 C 
ATOM     19  C   UNL     1       7.161  16.677  20.477  0.00  0.00    +0.000 C 
ENDBRANCH   1  19
BRANCH   3  20
ATOM     20  C   UNL     1      10.751  16.536  17.005  0.00  0.00    +0.000 C 
ATOM     21  O   UNL     1      11.292  17.634  17.152  0.00  0.00    +0.000 OA
BRANCH  20  22
ATOM     22  O   UNL     1      10.845  15.872  15.830  0.00  0.00    +0.000 OA
ATOM     23  H   UNL     1      11.695  15.977  15.340  0.00  0.00    +0.000 HD
ENDBRANCH  20  22
ENDBRANCH   3  20
BRANCH  14  24
ATOM     24  N   UNL     1       6.208  10.779  25.434  0.00  0.00    +0.000 NA
ATOM     25  H   UNL     1       6.482   9.904  24.973  0.00  0.00    +0.000 HD
BRANCH  24  26
ATOM     26  N   UNL     1       6.062  10.575  26.858  0.00  0.00    +0.000 NA
ATOM     27  H   UNL     1       6.701   9.855  27.208  0.00  0.00    +0.000 HD
ATOM     28  H   UNL     1       5.120  10.302  27.145  0.00  0.00    +0.000 HD
ENDBRANCH  24  26
ENDBRANCH  14  24
TORSDOF 5
ENDMDL
MODEL 9
REMARK VINA RESULT:      -5.8      2.816      4.061
REMARK  Name = 
REMARK  6 active torsions:
REMARK  status: ('A' for Active; 'I' for Inactive)
REMARK    1  A    between atoms: C_1  and  C_2
REMARK    2  A    between atoms: C_2  and  N_3
REMARK    3  A    between atoms: C_5  and  C_6
REMARK    4  A    between atoms: C_6  and  O_8
REMARK    5  A    between atoms: C_19  and  N_20
REMARK    6  A    between atoms: N_20  and  N_21
REMARK                            x       y       z     vdW  Elec       q    Type
REMARK                         _______ _______ _______ _____ _____    ______ ____
ROOT
ATOM      1  N   UNL     1       3.667   4.994  18.835  0.00  0.00    +0.000 N 
ATOM      2  C   UNL     1       4.400   4.343  17.843  0.00  0.00    +0.000 A 
ATOM      3  C   UNL     1       4.857   4.887  16.700  0.00  0.00    +0.000 A 
ATOM      4  C   UNL     1       4.522   6.312  16.501  0.00  0.00    +0.000 A 
ATOM      5  O   UNL     1       4.890   6.896  15.473  0.00  0.00    +0.000 OA
ATOM      6  C   UNL     1       3.740   7.029  17.523  0.00  0.00    +0.000 A 
ATOM      7  C   UNL     1       3.403   8.361  17.329  0.00  0.00    +0.000 A 
ATOM      8  C   UNL     1       2.636   8.996  18.292  0.00  0.00    +0.000 A 
ATOM      9  F   UNL     1       2.311  10.281  18.090  0.00  0.00    +0.000 F 
ATOM     10  C   UNL     1       2.203   8.295  19.430  0.00  0.00    +0.000 A 
ATOM     11  N   UNL     1       1.373   8.871  20.372  0.00  0.00    +0.000 N 
ATOM     12  C   UNL     1       0.952   8.135  21.560  0.00  0.00    +0.000 C 
ATOM     13  C   UNL     1      -0.566   8.262  21.564  0.00  0.00    +0.000 C 
ATOM     14  C   UNL     1      -0.823   9.662  21.000  0.00  0.00    +0.000 C 
ATOM     15  C   UNL     1       0.326   9.812  19.953  0.00  0.00    +0.000 C 
ATOM     16  N   UNL     1       2.589   7.004  19.617  0.00  0.00    +0.000 NA
ATOM     17  C   UNL     1       3.327   6.362  18.678  0.00  0.00    +0.000 A 
ENDROOT
BRANCH   1  19
ATOM     18  C   UNL     1       1.912   3.436  19.594  0.00  0.00    +0.000 C 
ATOM     19  C   UNL     1       3.099   4.304  19.998  0.00  0.00    +0.000 C 
ENDBRANCH   1  19
BRANCH   3  20
ATOM     20  C   UNL     1       5.636   4.113  15.697  0.00  0.00    +0.000 C 
ATOM     21  O   UNL     1       5.254   3.942  14.537  0.00  0.00    +0.000 OA
BRANCH  20  22
ATOM     22  O   UNL     1       6.811   3.593  16.121  0.00  0.00    +0.000 OA
ATOM     23  H   UNL     1       6.823   3.248  17.044  0.00  0.00    +0.000 HD
ENDBRANCH  20  22
ENDBRANCH   3  20
BRANCH  14  24
ATOM     24  N   UNL     1      -0.770  10.718  22.035  0.00  0.00    +0.000 NA
ATOM     25  H   UNL     1      -1.501  11.414  21.845  0.00  0.00    +0.000 HD
BRANCH  24  26
ATOM     26  N   UNL     1      -0.918  10.180  23.369  0.00  0.00    +0.000 NA
ATOM     27  H   UNL     1      -1.876   9.868  23.550  0.00  0.00    +0.000 HD
ATOM     28  H   UNL     1      -0.673  10.838  24.112  0.00  0.00    +0.000 HD
ENDBRANCH  24  26
ENDBRANCH  14  24
TORSDOF 5
ENDMDL
