MODEL 1
REMARK VINA RESULT:      -7.3      0.000      0.000
REMARK  Name = 
REMARK  7 active torsions:
REMARK  status: ('A' for Active; 'I' for Inactive)
REMARK    1  A    between atoms: C_1  and  O_2
REMARK    2  A    between atoms: O_2  and  C_3
REMARK    3  A    between atoms: C_6  and  S_7
REMARK    4  A    between atoms: S_7  and  C_8
REMARK    5  A    between atoms: C_8  and  C_9
REMARK    6  A    between atoms: C_9  and  N_10
REMARK    7  A    between atoms: C_14  and  C_16
REMARK                            x       y       z     vdW  Elec       q    Type
REMARK                         _______ _______ _______ _____ _____    ______ ____
ROOT
ATOM      1  N   UNL     1      -0.517  10.095  20.800  0.00  0.00    +0.000 NA
ATOM      2  C   UNL     1      -0.178  10.350  19.383  0.00  0.00    +0.000 C 
ATOM      3  C   UNL     1       1.291  10.069  19.027  0.00  0.00    +0.000 C 
ATOM      4  N   UNL     1       1.693   8.700  19.397  0.00  0.00    +0.000 N 
ATOM      5  C   UNL     1       2.279   7.924  18.404  0.00  0.00    +0.000 C 
ATOM      6  O   UNL     1       2.476   8.431  17.296  0.00  0.00    +0.000 OA
ATOM      7  C   UNL     1       1.354   8.339  20.774  0.00  0.00    +0.000 C 
ATOM      8  C   UNL     1      -0.111   8.706  21.125  0.00  0.00    +0.000 C 
ENDROOT
BRANCH   5   9
ATOM      9  C   UNL     1       2.614   6.516  18.568  0.00  0.00    +0.000 A 
ATOM     10  C   UNL     1       1.934   5.507  17.894  0.00  0.00    +0.000 A 
ATOM     11  C   UNL     1       2.513   4.261  18.196  0.00  0.00    +0.000 A 
ATOM     12  C   UNL     1       2.235   2.945  17.788  0.00  0.00    +0.000 A 
ATOM     13  C   UNL     1       2.972   1.893  18.329  0.00  0.00    +0.000 A 
ATOM     14  C   UNL     1       3.977   2.147  19.254  0.00  0.00    +0.000 A 
ATOM     15  C   UNL     1       4.305   3.458  19.643  0.00  0.00    +0.000 A 
ATOM     16  C   UNL     1       3.552   4.506  19.090  0.00  0.00    +0.000 A 
ATOM     17  N   UNL     1       3.640   5.881  19.241  0.00  0.00    +0.000 N 
ATOM     18  H   UNL     1       4.386   6.340  19.738  0.00  0.00    +0.000 HD
ENDBRANCH   5   9
BRANCH   1  19
ATOM     19  C   UNL     1       0.091  11.069  21.733  0.00  0.00    +0.000 C 
BRANCH  19  20
ATOM     20  C   UNL     1       0.067  12.526  21.227  0.00  0.00    +0.000 C 
BRANCH  20  21
ATOM     21  S   UNL     1      -0.670  13.608  22.502  0.00  0.00    +0.000 S 
BRANCH  21  25
ATOM     22  C   UNL     1      -5.181  12.675  22.438  0.00  0.00    +0.000 A 
ATOM     23  C   UNL     1      -4.474  12.821  23.629  0.00  0.00    +0.000 A 
ATOM     24  C   UNL     1      -3.105  13.095  23.613  0.00  0.00    +0.000 A 
ATOM     25  C   UNL     1      -2.411  13.205  22.404  0.00  0.00    +0.000 A 
ATOM     26  C   UNL     1      -3.124  13.047  21.209  0.00  0.00    +0.000 A 
ATOM     27  C   UNL     1      -4.501  12.780  21.226  0.00  0.00    +0.000 A 
BRANCH  22  29
ATOM     28  C   UNL     1      -7.038  12.559  23.895  0.00  0.00    +0.000 C 
ATOM     29  O   UNL     1      -6.513  12.403  22.582  0.00  0.00    +0.000 OA
ENDBRANCH  22  29
ENDBRANCH  21  25
ENDBRANCH  20  21
ENDBRANCH  19  20
ENDBRANCH   1  19
TORSDOF 6
ENDMDL
MODEL 2
REMARK VINA RESULT:      -7.2      1.273      1.384
REMARK  Name = 
REMARK  7 active torsions:
REMARK  status: ('A' for Active; 'I' for Inactive)
REMARK    1  A    between atoms: C_1  and  O_2
REMARK    2  A    between atoms: O_2  and  C_3
REMARK    3  A    between atoms: C_6  and  S_7
REMARK    4  A    between atoms: S_7  and  C_8
REMARK    5  A    between atoms: C_8  and  C_9
REMARK    6  A    between atoms: C_9  and  N_10
REMARK    7  A    between atoms: C_14  and  C_16
REMARK                            x       y       z     vdW  Elec       q    Type
REMARK                         _______ _______ _______ _____ _____    ______ ____
ROOT
ATOM      1  N   UNL     1      -0.685  11.281  19.924  0.00  0.00    +0.000 NA
ATOM      2  C   UNL     1      -0.089  11.191  18.573  0.00  0.00    +0.000 C 
ATOM      3  C   UNL     1       1.355  10.664  18.556  0.00  0.00    +0.000 C 
ATOM      4  N   UNL     1       1.471   9.363  19.240  0.00  0.00    +0.000 N 
ATOM      5  C   UNL     1       2.077   8.331  18.535  0.00  0.00    +0.000 C 
ATOM      6  O   UNL     1       2.527   8.567  17.409  0.00  0.00    +0.000 OA
ATOM      7  C   UNL     1       0.864   9.342  20.572  0.00  0.00    +0.000 C 
ATOM      8  C   UNL     1      -0.561   9.952  20.568  0.00  0.00    +0.000 C 
ENDROOT
BRANCH   5   9
ATOM      9  C   UNL     1       2.155   6.957  19.014  0.00  0.00    +0.000 A 
ATOM     10  C   UNL     1       2.259   5.873  18.149  0.00  0.00    +0.000 A 
ATOM     11  C   UNL     1       2.380   4.684  18.890  0.00  0.00    +0.000 A 
ATOM     12  C   UNL     1       2.524   3.333  18.530  0.00  0.00    +0.000 A 
ATOM     13  C   UNL     1       2.556   2.360  19.527  0.00  0.00    +0.000 A 
ATOM     14  C   UNL     1       2.456   2.726  20.864  0.00  0.00    +0.000 A 
ATOM     15  C   UNL     1       2.357   4.075  21.253  0.00  0.00    +0.000 A 
ATOM     16  C   UNL     1       2.325   5.042  20.236  0.00  0.00    +0.000 A 
ATOM     17  N   UNL     1       2.263   6.425  20.284  0.00  0.00    +0.000 N 
ATOM     18  H   UNL     1       2.338   6.957  21.137  0.00  0.00    +0.000 HD
ENDBRANCH   5   9
BRANCH   1  19
ATOM     19  C   UNL     1      -0.087  12.346  20.760  0.00  0.00    +0.000 C 
BRANCH  19  20
ATOM     20  C   UNL     1      -1.120  13.221  21.499  0.00  0.00    +0.000 C 
BRANCH  20  21
ATOM     21  S   UNL     1      -1.564  12.438  23.089  0.00  0.00    +0.000 S 
BRANCH  21  25
ATOM     22  C   UNL     1      -6.147  12.827  23.330  0.00  0.00    +0.000 A 
ATOM     23  C   UNL     1      -5.367  12.578  24.456  0.00  0.00    +0.000 A 
ATOM     24  C   UNL     1      -3.980  12.456  24.347  0.00  0.00    +0.000 A 
ATOM     25  C   UNL     1      -3.349  12.559  23.104  0.00  0.00    +0.000 A 
ATOM     26  C   UNL     1      -4.138  12.800  21.973  0.00  0.00    +0.000 A 
ATOM     27  C   UNL     1      -5.531  12.929  22.085  0.00  0.00    +0.000 A 
BRANCH  22  29
ATOM     28  C   UNL     1      -7.916  14.060  24.300  0.00  0.00    +0.000 C 
ATOM     29  O   UNL     1      -7.492  12.919  23.563  0.00  0.00    +0.000 OA
ENDBRANCH  22  29
ENDBRANCH  21  25
ENDBRANCH  20  21
ENDBRANCH  19  20
ENDBRANCH   1  19
TORSDOF 6
ENDMDL
MODEL 3
REMARK VINA RESULT:      -7.1      0.703      1.186
REMARK  Name = 
REMARK  7 active torsions:
REMARK  status: ('A' for Active; 'I' for Inactive)
REMARK    1  A    between atoms: C_1  and  O_2
REMARK    2  A    between atoms: O_2  and  C_3
REMARK    3  A    between atoms: C_6  and  S_7
REMARK    4  A    between atoms: S_7  and  C_8
REMARK    5  A    between atoms: C_8  and  C_9
REMARK    6  A    between atoms: C_9  and  N_10
REMARK    7  A    between atoms: C_14  and  C_16
REMARK                            x       y       z     vdW  Elec       q    Type
REMARK                         _______ _______ _______ _____ _____    ______ ____
ROOT
ATOM      1  N   UNL     1      -0.559  10.018  20.974  0.00  0.00    +0.000 NA
ATOM      2  C   UNL     1      -0.254  10.311  19.557  0.00  0.00    +0.000 C 
ATOM      3  C   UNL     1       1.212  10.064  19.165  0.00  0.00    +0.000 C 
ATOM      4  N   UNL     1       1.644   8.694  19.495  0.00  0.00    +0.000 N 
ATOM      5  C   UNL     1       2.223   7.950  18.474  0.00  0.00    +0.000 C 
ATOM      6  O   UNL     1       2.389   8.485  17.374  0.00  0.00    +0.000 OA
ATOM      7  C   UNL     1       1.340   8.296  20.871  0.00  0.00    +0.000 C 
ATOM      8  C   UNL     1      -0.123   8.630  21.259  0.00  0.00    +0.000 C 
ENDROOT
BRANCH   5   9
ATOM      9  C   UNL     1       2.584   6.544  18.598  0.00  0.00    +0.000 A 
ATOM     10  C   UNL     1       1.931   5.543  17.888  0.00  0.00    +0.000 A 
ATOM     11  C   UNL     1       2.531   4.300  18.158  0.00  0.00    +0.000 A 
ATOM     12  C   UNL     1       2.283   2.992  17.708  0.00  0.00    +0.000 A 
ATOM     13  C   UNL     1       3.036   1.938  18.225  0.00  0.00    +0.000 A 
ATOM     14  C   UNL     1       4.028   2.184  19.167  0.00  0.00    +0.000 A 
ATOM     15  C   UNL     1       4.326   3.489  19.598  0.00  0.00    +0.000 A 
ATOM     16  C   UNL     1       3.557   4.538  19.069  0.00  0.00    +0.000 A 
ATOM     17  N   UNL     1       3.616   5.909  19.263  0.00  0.00    +0.000 N 
ATOM     18  H   UNL     1       4.349   6.368  19.780  0.00  0.00    +0.000 HD
ENDBRANCH   5   9
BRANCH   1  19
ATOM     19  C   UNL     1       0.052  10.982  21.917  0.00  0.00    +0.000 C 
BRANCH  19  20
ATOM     20  C   UNL     1       0.094  12.433  21.396  0.00  0.00    +0.000 C 
BRANCH  20  21
ATOM     21  S   UNL     1      -0.824  13.523  22.539  0.00  0.00    +0.000 S 
BRANCH  21  25
ATOM     22  C   UNL     1      -5.146  12.622  21.223  0.00  0.00    +0.000 A 
ATOM     23  C   UNL     1      -4.122  12.833  20.303  0.00  0.00    +0.000 A 
ATOM     24  C   UNL     1      -2.824  13.113  20.735  0.00  0.00    +0.000 A 
ATOM     25  C   UNL     1      -2.530  13.211  22.098  0.00  0.00    +0.000 A 
ATOM     26  C   UNL     1      -3.564  13.009  23.021  0.00  0.00    +0.000 A 
ATOM     27  C   UNL     1      -4.866  12.720  22.585  0.00  0.00    +0.000 A 
BRANCH  22  29
ATOM     28  C   UNL     1      -7.412  13.268  21.036  0.00  0.00    +0.000 C 
ATOM     29  O   UNL     1      -6.373  12.363  20.679  0.00  0.00    +0.000 OA
ENDBRANCH  22  29
ENDBRANCH  21  25
ENDBRANCH  20  21
ENDBRANCH  19  20
ENDBRANCH   1  19
TORSDOF 6
ENDMDL
MODEL 4
REMARK VINA RESULT:      -7.0      3.141     10.931
REMARK  Name = 
REMARK  7 active torsions:
REMARK  status: ('A' for Active; 'I' for Inactive)
REMARK    1  A    between atoms: C_1  and  O_2
REMARK    2  A    between atoms: O_2  and  C_3
REMARK    3  A    between atoms: C_6  and  S_7
REMARK    4  A    between atoms: S_7  and  C_8
REMARK    5  A    between atoms: C_8  and  C_9
REMARK    6  A    between atoms: C_9  and  N_10
REMARK    7  A    between atoms: C_14  and  C_16
REMARK                            x       y       z     vdW  Elec       q    Type
REMARK                         _______ _______ _______ _____ _____    ______ ____
ROOT
ATOM      1  N   UNL     1       1.140  10.036  19.512  0.00  0.00    +0.000 NA
ATOM      2  C   UNL     1       1.334  11.501  19.439  0.00  0.00    +0.000 C 
ATOM      3  C   UNL     1       0.154  12.261  18.812  0.00  0.00    +0.000 C 
ATOM      4  N   UNL     1      -1.117  11.960  19.495  0.00  0.00    +0.000 N 
ATOM      5  C   UNL     1      -1.869  13.042  19.937  0.00  0.00    +0.000 C 
ATOM      6  O   UNL     1      -1.464  14.182  19.693  0.00  0.00    +0.000 OA
ATOM      7  C   UNL     1      -1.374  10.528  19.656  0.00  0.00    +0.000 C 
ATOM      8  C   UNL     1      -0.139   9.778  20.217  0.00  0.00    +0.000 C 
ENDROOT
BRANCH   5   9
ATOM      9  C   UNL     1      -3.078  12.916  20.739  0.00  0.00    +0.000 A 
ATOM     10  C   UNL     1      -3.064  13.015  22.126  0.00  0.00    +0.000 A 
ATOM     11  C   UNL     1      -4.376  12.917  22.623  0.00  0.00    +0.000 A 
ATOM     12  C   UNL     1      -4.923  12.965  23.917  0.00  0.00    +0.000 A 
ATOM     13  C   UNL     1      -6.293  12.771  24.086  0.00  0.00    +0.000 A 
ATOM     14  C   UNL     1      -7.108  12.544  22.984  0.00  0.00    +0.000 A 
ATOM     15  C   UNL     1      -6.592  12.537  21.675  0.00  0.00    +0.000 A 
ATOM     16  C   UNL     1      -5.210  12.732  21.523  0.00  0.00    +0.000 A 
ATOM     17  N   UNL     1      -4.411  12.809  20.393  0.00  0.00    +0.000 N 
ATOM     18  H   UNL     1      -4.775  12.832  19.453  0.00  0.00    +0.000 HD
ENDBRANCH   5   9
BRANCH   1  19
ATOM     19  C   UNL     1       1.171   9.373  18.189  0.00  0.00    +0.000 C 
BRANCH  19  20
ATOM     20  C   UNL     1       2.512   8.684  17.861  0.00  0.00    +0.000 C 
BRANCH  20  21
ATOM     21  S   UNL     1       2.566   7.038  18.651  0.00  0.00    +0.000 S 
BRANCH  21  25
ATOM     22  C   UNL     1       5.284   4.530  15.904  0.00  0.00    +0.000 A 
ATOM     23  C   UNL     1       4.391   3.942  16.796  0.00  0.00    +0.000 A 
ATOM     24  C   UNL     1       3.587   4.731  17.622  0.00  0.00    +0.000 A 
ATOM     25  C   UNL     1       3.679   6.126  17.587  0.00  0.00    +0.000 A 
ATOM     26  C   UNL     1       4.586   6.713  16.696  0.00  0.00    +0.000 A 
ATOM     27  C   UNL     1       5.387   5.919  15.862  0.00  0.00    +0.000 A 
BRANCH  22  29
ATOM     28  C   UNL     1       6.541   4.169  13.935  0.00  0.00    +0.000 C 
ATOM     29  O   UNL     1       6.019   3.654  15.155  0.00  0.00    +0.000 OA
ENDBRANCH  22  29
ENDBRANCH  21  25
ENDBRANCH  20  21
ENDBRANCH  19  20
ENDBRANCH   1  19
TORSDOF 6
ENDMDL
MODEL 5
REMARK VINA RESULT:      -6.9      3.179      4.404
REMARK  Name = 
REMARK  7 active torsions:
REMARK  status: ('A' for Active; 'I' for Inactive)
REMARK    1  A    between atoms: C_1  and  O_2
REMARK    2  A    between atoms: O_2  and  C_3
REMARK    3  A    between atoms: C_6  and  S_7
REMARK    4  A    between atoms: S_7  and  C_8
REMARK    5  A    between atoms: C_8  and  C_9
REMARK    6  A    between atoms: C_9  and  N_10
REMARK    7  A    between atoms: C_14  and  C_16
REMARK                            x       y       z     vdW  Elec       q    Type
REMARK                         _______ _______ _______ _____ _____    ______ ____
ROOT
ATOM      1  N   UNL     1       1.137  12.297  19.418  0.00  0.00    +0.000 NA
ATOM      2  C   UNL     1       1.050  11.451  20.628  0.00  0.00    +0.000 C 
ATOM      3  C   UNL     1       0.507  10.036  20.369  0.00  0.00    +0.000 C 
ATOM      4  N   UNL     1       1.278   9.336  19.326  0.00  0.00    +0.000 N 
ATOM      5  C   UNL     1       1.771   8.077  19.643  0.00  0.00    +0.000 C 
ATOM      6  O   UNL     1       1.499   7.595  20.747  0.00  0.00    +0.000 OA
ATOM      7  C   UNL     1       1.457  10.119  18.102  0.00  0.00    +0.000 C 
ATOM      8  C   UNL     1       1.930  11.564  18.403  0.00  0.00    +0.000 C 
ENDROOT
BRANCH   5   9
ATOM      9  C   UNL     1       2.657   7.310  18.776  0.00  0.00    +0.000 A 
ATOM     10  C   UNL     1       2.646   5.920  18.744  0.00  0.00    +0.000 A 
ATOM     11  C   UNL     1       3.555   5.461  17.775  0.00  0.00    +0.000 A 
ATOM     12  C   UNL     1       3.924   4.179  17.330  0.00  0.00    +0.000 A 
ATOM     13  C   UNL     1       4.927   4.052  16.371  0.00  0.00    +0.000 A 
ATOM     14  C   UNL     1       5.547   5.184  15.854  0.00  0.00    +0.000 A 
ATOM     15  C   UNL     1       5.163   6.478  16.249  0.00  0.00    +0.000 A 
ATOM     16  C   UNL     1       4.153   6.588  17.217  0.00  0.00    +0.000 A 
ATOM     17  N   UNL     1       3.541   7.693  17.786  0.00  0.00    +0.000 N 
ATOM     18  H   UNL     1       3.695   8.639  17.473  0.00  0.00    +0.000 HD
ENDBRANCH   5   9
BRANCH   1  19
ATOM     19  C   UNL     1      -0.185  12.698  18.886  0.00  0.00    +0.000 C 
BRANCH  19  20
ATOM     20  C   UNL     1      -1.084  13.420  19.911  0.00  0.00    +0.000 C 
BRANCH  20  21
ATOM     21  S   UNL     1      -2.519  12.365  20.321  0.00  0.00    +0.000 S 
BRANCH  21  25
ATOM     22  C   UNL     1      -3.470  10.245  16.344  0.00  0.00    +0.000 A 
ATOM     23  C   UNL     1      -2.387   9.876  17.137  0.00  0.00    +0.000 A 
ATOM     24  C   UNL     1      -2.121  10.545  18.333  0.00  0.00    +0.000 A 
ATOM     25  C   UNL     1      -2.921  11.614  18.748  0.00  0.00    +0.000 A 
ATOM     26  C   UNL     1      -4.003  11.990  17.942  0.00  0.00    +0.000 A 
ATOM     27  C   UNL     1      -4.273  11.312  16.744  0.00  0.00    +0.000 A 
BRANCH  22  29
ATOM     28  C   UNL     1      -3.305  10.202  13.986  0.00  0.00    +0.000 C 
ATOM     29  O   UNL     1      -3.623   9.521  15.195  0.00  0.00    +0.000 OA
ENDBRANCH  22  29
ENDBRANCH  21  25
ENDBRANCH  20  21
ENDBRANCH  19  20
ENDBRANCH   1  19
TORSDOF 6
ENDMDL
MODEL 6
REMARK VINA RESULT:      -6.9      1.135      1.274
REMARK  Name = 
REMARK  7 active torsions:
REMARK  status: ('A' for Active; 'I' for Inactive)
REMARK    1  A    between atoms: C_1  and  O_2
REMARK    2  A    between atoms: O_2  and  C_3
REMARK    3  A    between atoms: C_6  and  S_7
REMARK    4  A    between atoms: S_7  and  C_8
REMARK    5  A    between atoms: C_8  and  C_9
REMARK    6  A    between atoms: C_9  and  N_10
REMARK    7  A    between atoms: C_14  and  C_16
REMARK                            x       y       z     vdW  Elec       q    Type
REMARK                         _______ _______ _______ _____ _____    ______ ____
ROOT
ATOM      1  N   UNL     1      -0.546  10.042  20.857  0.00  0.00    +0.000 NA
ATOM      2  C   UNL     1      -0.209  10.313  19.442  0.00  0.00    +0.000 C 
ATOM      3  C   UNL     1       1.264  10.053  19.085  0.00  0.00    +0.000 C 
ATOM      4  N   UNL     1       1.682   8.685  19.445  0.00  0.00    +0.000 N 
ATOM      5  C   UNL     1       2.278   7.924  18.447  0.00  0.00    +0.000 C 
ATOM      6  O   UNL     1       2.470   8.442  17.343  0.00  0.00    +0.000 OA
ATOM      7  C   UNL     1       1.346   8.309  20.819  0.00  0.00    +0.000 C 
ATOM      8  C   UNL     1      -0.123   8.656  21.171  0.00  0.00    +0.000 C 
ENDROOT
BRANCH   5   9
ATOM      9  C   UNL     1       2.629   6.518  18.599  0.00  0.00    +0.000 A 
ATOM     10  C   UNL     1       1.927   5.503  17.958  0.00  0.00    +0.000 A 
ATOM     11  C   UNL     1       2.527   4.262  18.238  0.00  0.00    +0.000 A 
ATOM     12  C   UNL     1       2.240   2.943  17.847  0.00  0.00    +0.000 A 
ATOM     13  C   UNL     1       3.007   1.897  18.358  0.00  0.00    +0.000 A 
ATOM     14  C   UNL     1       4.051   2.161  19.237  0.00  0.00    +0.000 A 
ATOM     15  C   UNL     1       4.387   3.476  19.607  0.00  0.00    +0.000 A 
ATOM     16  C   UNL     1       3.603   4.517  19.085  0.00  0.00    +0.000 A 
ATOM     17  N   UNL     1       3.688   5.892  19.228  0.00  0.00    +0.000 N 
ATOM     18  H   UNL     1       4.452   6.359  19.690  0.00  0.00    +0.000 HD
ENDBRANCH   5   9
BRANCH   1  19
ATOM     19  C   UNL     1       0.050  11.016  21.799  0.00  0.00    +0.000 C 
BRANCH  19  20
ATOM     20  C   UNL     1      -0.926  11.527  22.877  0.00  0.00    +0.000 C 
BRANCH  20  21
ATOM     21  S   UNL     1      -1.082  13.344  22.756  0.00  0.00    +0.000 S 
BRANCH  21  25
ATOM     22  C   UNL     1      -5.516  14.254  23.614  0.00  0.00    +0.000 A 
ATOM     23  C   UNL     1      -4.513  15.197  23.829  0.00  0.00    +0.000 A 
ATOM     24  C   UNL     1      -3.177  14.886  23.566  0.00  0.00    +0.000 A 
ATOM     25  C   UNL     1      -2.816  13.616  23.107  0.00  0.00    +0.000 A 
ATOM     26  C   UNL     1      -3.825  12.667  22.902  0.00  0.00    +0.000 A 
ATOM     27  C   UNL     1      -5.168  12.984  23.159  0.00  0.00    +0.000 A 
BRANCH  22  29
ATOM     28  C   UNL     1      -7.126  15.977  23.456  0.00  0.00    +0.000 C 
ATOM     29  O   UNL     1      -6.782  14.674  23.913  0.00  0.00    +0.000 OA
ENDBRANCH  22  29
ENDBRANCH  21  25
ENDBRANCH  20  21
ENDBRANCH  19  20
ENDBRANCH   1  19
TORSDOF 6
ENDMDL
MODEL 7
REMARK VINA RESULT:      -6.9      1.196      1.581
REMARK  Name = 
REMARK  7 active torsions:
REMARK  status: ('A' for Active; 'I' for Inactive)
REMARK    1  A    between atoms: C_1  and  O_2
REMARK    2  A    between atoms: O_2  and  C_3
REMARK    3  A    between atoms: C_6  and  S_7
REMARK    4  A    between atoms: S_7  and  C_8
REMARK    5  A    between atoms: C_8  and  C_9
REMARK    6  A    between atoms: C_9  and  N_10
REMARK    7  A    between atoms: C_14  and  C_16
REMARK                            x       y       z     vdW  Elec       q    Type
REMARK                         _______ _______ _______ _____ _____    ______ ____
ROOT
ATOM      1  N   UNL     1      -0.731  10.903  20.478  0.00  0.00    +0.000 NA
ATOM      2  C   UNL     1      -0.255  11.023  19.083  0.00  0.00    +0.000 C 
ATOM      3  C   UNL     1       1.213  10.613  18.882  0.00  0.00    +0.000 C 
ATOM      4  N   UNL     1       1.475   9.252  19.383  0.00  0.00    +0.000 N 
ATOM      5  C   UNL     1       2.082   8.362  18.506  0.00  0.00    +0.000 C 
ATOM      6  O   UNL     1       2.411   8.766  17.387  0.00  0.00    +0.000 OA
ATOM      7  C   UNL     1       0.994   9.024  20.747  0.00  0.00    +0.000 C 
ATOM      8  C   UNL     1      -0.462   9.519  20.937  0.00  0.00    +0.000 C 
ENDROOT
BRANCH   5   9
ATOM      9  C   UNL     1       2.293   6.950  18.799  0.00  0.00    +0.000 A 
ATOM     10  C   UNL     1       2.203   5.967  17.820  0.00  0.00    +0.000 A 
ATOM     11  C   UNL     1       2.515   4.714  18.377  0.00  0.00    +0.000 A 
ATOM     12  C   UNL     1       2.590   3.414  17.846  0.00  0.00    +0.000 A 
ATOM     13  C   UNL     1       2.874   2.345  18.694  0.00  0.00    +0.000 A 
ATOM     14  C   UNL     1       3.092   2.567  20.049  0.00  0.00    +0.000 A 
ATOM     15  C   UNL     1       3.069   3.863  20.595  0.00  0.00    +0.000 A 
ATOM     16  C   UNL     1       2.779   4.927  19.727  0.00  0.00    +0.000 A 
ATOM     17  N   UNL     1       2.710   6.295  19.941  0.00  0.00    +0.000 N 
ATOM     18  H   UNL     1       2.979   6.739  20.805  0.00  0.00    +0.000 HD
ENDBRANCH   5   9
BRANCH   1  19
ATOM     19  C   UNL     1      -0.131  11.902  21.391  0.00  0.00    +0.000 C 
BRANCH  19  20
ATOM     20  C   UNL     1      -1.004  12.240  22.617  0.00  0.00    +0.000 C 
BRANCH  20  21
ATOM     21  S   UNL     1      -1.831  13.849  22.360  0.00  0.00    +0.000 S 
BRANCH  21  25
ATOM     22  C   UNL     1      -6.100  12.489  21.288  0.00  0.00    +0.000 A 
ATOM     23  C   UNL     1      -5.074  12.512  20.347  0.00  0.00    +0.000 A 
ATOM     24  C   UNL     1      -3.792  12.938  20.702  0.00  0.00    +0.000 A 
ATOM     25  C   UNL     1      -3.519  13.373  22.003  0.00  0.00    +0.000 A 
ATOM     26  C   UNL     1      -4.555  13.359  22.944  0.00  0.00    +0.000 A 
ATOM     27  C   UNL     1      -5.841  12.923  22.587  0.00  0.00    +0.000 A 
BRANCH  22  29
ATOM     28  C   UNL     1      -7.363  10.700  20.400  0.00  0.00    +0.000 C 
ATOM     29  O   UNL     1      -7.310  12.059  20.820  0.00  0.00    +0.000 OA
ENDBRANCH  22  29
ENDBRANCH  21  25
ENDBRANCH  20  21
ENDBRANCH  19  20
ENDBRANCH   1  19
TORSDOF 6
ENDMDL
MODEL 8
REMARK VINA RESULT:      -6.9      4.375     11.062
REMARK  Name = 
REMARK  7 active torsions:
REMARK  status: ('A' for Active; 'I' for Inactive)
REMARK    1  A    between atoms: C_1  and  O_2
REMARK    2  A    between atoms: O_2  and  C_3
REMARK    3  A    between atoms: C_6  and  S_7
REMARK    4  A    between atoms: S_7  and  C_8
REMARK    5  A    between atoms: C_8  and  C_9
REMARK    6  A    between atoms: C_9  and  N_10
REMARK    7  A    between atoms: C_14  and  C_16
REMARK                            x       y       z     vdW  Elec       q    Type
REMARK                         _______ _______ _______ _____ _____    ______ ____
ROOT
ATOM      1  N   UNL     1       0.295   9.557  19.709  0.00  0.00    +0.000 NA
ATOM      2  C   UNL     1      -0.286  10.203  20.907  0.00  0.00    +0.000 C 
ATOM      3  C   UNL     1       0.553  11.363  21.465  0.00  0.00    +0.000 C 
ATOM      4  N   UNL     1       0.834  12.381  20.437  0.00  0.00    +0.000 N 
ATOM      5  C   UNL     1       0.514  13.698  20.747  0.00  0.00    +0.000 C 
ATOM      6  O   UNL     1       0.066  13.949  21.870  0.00  0.00    +0.000 OA
ATOM      7  C   UNL     1       1.369  11.829  19.192  0.00  0.00    +0.000 C 
ATOM      8  C   UNL     1       0.546  10.612  18.698  0.00  0.00    +0.000 C 
ENDROOT
BRANCH   5   9
ATOM      9  C   UNL     1       0.607  14.800  19.799  0.00  0.00    +0.000 A 
ATOM     10  C   UNL     1      -0.516  15.467  19.321  0.00  0.00    +0.000 A 
ATOM     11  C   UNL     1      -0.120  16.519  18.476  0.00  0.00    +0.000 A 
ATOM     12  C   UNL     1      -0.830  17.494  17.754  0.00  0.00    +0.000 A 
ATOM     13  C   UNL     1      -0.130  18.383  16.939  0.00  0.00    +0.000 A 
ATOM     14  C   UNL     1       1.255  18.310  16.853  0.00  0.00    +0.000 A 
ATOM     15  C   UNL     1       1.991  17.373  17.602  0.00  0.00    +0.000 A 
ATOM     16  C   UNL     1       1.270  16.484  18.415  0.00  0.00    +0.000 A 
ATOM     17  N   UNL     1       1.689  15.485  19.280  0.00  0.00    +0.000 N 
ATOM     18  H   UNL     1       2.653  15.326  19.523  0.00  0.00    +0.000 HD
ENDBRANCH   5   9
BRANCH   1  19
ATOM     19  C   UNL     1       1.521   8.780  19.998  0.00  0.00    +0.000 C 
BRANCH  19  20
ATOM     20  C   UNL     1       2.082   8.015  18.782  0.00  0.00    +0.000 C 
BRANCH  20  21
ATOM     21  S   UNL     1       2.611   6.344  19.297  0.00  0.00    +0.000 S 
BRANCH  21  25
ATOM     22  C   UNL     1       5.804   5.451  16.099  0.00  0.00    +0.000 A 
ATOM     23  C   UNL     1       5.147   6.677  16.164  0.00  0.00    +0.000 A 
ATOM     24  C   UNL     1       4.178   6.912  17.141  0.00  0.00    +0.000 A 
ATOM     25  C   UNL     1       3.829   5.915  18.057  0.00  0.00    +0.000 A 
ATOM     26  C   UNL     1       4.483   4.680  17.981  0.00  0.00    +0.000 A 
ATOM     27  C   UNL     1       5.463   4.448  17.004  0.00  0.00    +0.000 A 
BRANCH  22  29
ATOM     28  C   UNL     1       6.442   4.365  14.098  0.00  0.00    +0.000 C 
ATOM     29  O   UNL     1       6.727   5.338  15.096  0.00  0.00    +0.000 OA
ENDBRANCH  22  29
ENDBRANCH  21  25
ENDBRANCH  20  21
ENDBRANCH  19  20
ENDBRANCH   1  19
TORSDOF 6
ENDMDL
MODEL 9
REMARK VINA RESULT:      -6.8      2.160      2.826
REMARK  Name = 
REMARK  7 active torsions:
REMARK  status: ('A' for Active; 'I' for Inactive)
REMARK    1  A    between atoms: C_1  and  O_2
REMARK    2  A    between atoms: O_2  and  C_3
REMARK    3  A    between atoms: C_6  and  S_7
REMARK    4  A    between atoms: S_7  and  C_8
REMARK    5  A    between atoms: C_8  and  C_9
REMARK    6  A    between atoms: C_9  and  N_10
REMARK    7  A    between atoms: C_14  and  C_16
REMARK                            x       y       z     vdW  Elec       q    Type
REMARK                         _______ _______ _______ _____ _____    ______ ____
ROOT
ATOM      1  N   UNL     1       1.174  11.999  19.456  0.00  0.00    +0.000 NA
ATOM      2  C   UNL     1       1.201  11.178  20.686  0.00  0.00    +0.000 C 
ATOM      3  C   UNL     1       0.632   9.761  20.509  0.00  0.00    +0.000 C 
ATOM      4  N   UNL     1       1.297   9.036  19.411  0.00  0.00    +0.000 N 
ATOM      5  C   UNL     1       1.815   7.781  19.706  0.00  0.00    +0.000 C 
ATOM      6  O   UNL     1       1.648   7.324  20.840  0.00  0.00    +0.000 OA
ATOM      7  C   UNL     1       1.361   9.793  18.160  0.00  0.00    +0.000 C 
ATOM      8  C   UNL     1       1.865  11.241  18.385  0.00  0.00    +0.000 C 
ENDROOT
BRANCH   5   9
ATOM      9  C   UNL     1       2.612   6.993  18.774  0.00  0.00    +0.000 A 
ATOM     10  C   UNL     1       3.503   7.576  17.881  0.00  0.00    +0.000 A 
ATOM     11  C   UNL     1       4.173   6.574  17.157  0.00  0.00    +0.000 A 
ATOM     12  C   UNL     1       5.163   6.604  16.159  0.00  0.00    +0.000 A 
ATOM     13  C   UNL     1       5.589   5.407  15.584  0.00  0.00    +0.000 A 
ATOM     14  C   UNL     1       5.045   4.198  16.002  0.00  0.00    +0.000 A 
ATOM     15  C   UNL     1       4.087   4.139  17.030  0.00  0.00    +0.000 A 
ATOM     16  C   UNL     1       3.669   5.353  17.598  0.00  0.00    +0.000 A 
ATOM     17  N   UNL     1       2.781   5.630  18.626  0.00  0.00    +0.000 N 
ATOM     18  H   UNL     1       2.364   4.921  19.208  0.00  0.00    +0.000 HD
ENDBRANCH   5   9
BRANCH   1  19
ATOM     19  C   UNL     1      -0.191  12.396  19.044  0.00  0.00    +0.000 C 
BRANCH  19  20
ATOM     20  C   UNL     1      -0.293  13.837  18.506  0.00  0.00    +0.000 C 
BRANCH  20  21
ATOM     21  S   UNL     1      -0.619  14.988  19.887  0.00  0.00    +0.000 S 
BRANCH  21  25
ATOM     22  C   UNL     1      -2.991  12.506  22.959  0.00  0.00    +0.000 A 
ATOM     23  C   UNL     1      -1.687  12.933  23.202  0.00  0.00    +0.000 A 
ATOM     24  C   UNL     1      -0.993  13.677  22.246  0.00  0.00    +0.000 A 
ATOM     25  C   UNL     1      -1.582  13.988  21.016  0.00  0.00    +0.000 A 
ATOM     26  C   UNL     1      -2.888  13.548  20.771  0.00  0.00    +0.000 A 
ATOM     27  C   UNL     1      -3.587  12.807  21.737  0.00  0.00    +0.000 A 
BRANCH  22  29
ATOM     28  C   UNL     1      -4.490  12.485  24.786  0.00  0.00    +0.000 C 
ATOM     29  O   UNL     1      -3.563  11.781  23.967  0.00  0.00    +0.000 OA
ENDBRANCH  22  29
ENDBRANCH  21  25
ENDBRANCH  20  21
ENDBRANCH  19  20
ENDBRANCH   1  19
TORSDOF 6
ENDMDL
