MODEL 1
REMARK VINA RESULT:      -8.4      0.000      0.000
REMARK  Name = 
REMARK  5 active torsions:
REMARK  status: ('A' for Active; 'I' for Inactive)
REMARK    1  A    between atoms: C_1  and  C_2
REMARK    2  A    between atoms: C_2  and  C_3
REMARK    3  A    between atoms: N_5  and  N_6
REMARK    4  A    between atoms: C_17  and  C_18
REMARK    5  A    between atoms: C_25  and  C_26
REMARK                            x       y       z     vdW  Elec       q    Type
REMARK                         _______ _______ _______ _____ _____    ______ ____
ROOT
ATOM      1  C   UNL     1       5.024   6.055  18.069  0.00  0.00    +0.000 C 
ATOM      2  C   UNL     1       6.124   6.794  17.298  0.00  0.00    +0.000 C 
ATOM      3  N   UNL     1       6.802   7.685  17.958  0.00  0.00    +0.000 NA
ATOM      4  C   UNL     1       6.287   6.474  15.826  0.00  0.00    +0.000 C 
ATOM      5  C   UNL     1       6.388   4.955  15.666  0.00  0.00    +0.000 C 
ATOM      6  N   UNL     1       5.207   4.311  16.253  0.00  0.00    +0.000 NA
ATOM      7  C   UNL     1       5.143   4.551  17.708  0.00  0.00    +0.000 C 
ATOM      8  H   UNL     1       5.283   3.304  16.102  0.00  0.00    +0.000 HD
ENDROOT
BRANCH   3   9
ATOM      9  N   UNL     1       7.692   8.479  17.294  0.00  0.00    +0.000 N 
ATOM     10  C   UNL     1       8.418   9.429  17.945  0.00  0.00    +0.000 A 
ATOM     11  N   UNL     1       8.856  10.519  17.353  0.00  0.00    +0.000 NA
ATOM     12  C   UNL     1       9.485  11.343  18.274  0.00  0.00    +0.000 A 
ATOM     13  C   UNL     1      10.028  12.619  18.014  0.00  0.00    +0.000 A 
ATOM     14  C   UNL     1      10.624  13.346  19.051  0.00  0.00    +0.000 A 
ATOM     15  C   UNL     1      10.693  12.818  20.335  0.00  0.00    +0.000 A 
ATOM     16  C   UNL     1      10.169  11.554  20.617  0.00  0.00    +0.000 A 
ATOM     17  C   UNL     1       9.564  10.840  19.572  0.00  0.00    +0.000 A 
ATOM     18  S   UNL     1       8.820   9.294  19.617  0.00  0.00    +0.000 S 
ATOM     19  H   UNL     1       7.450   8.774  16.347  0.00  0.00    +0.000 HD
ENDBRANCH   3   9
BRANCH   5  20
ATOM     20  C   UNL     1       6.534   4.552  14.207  0.00  0.00    +0.000 A 
ATOM     21  C   UNL     1       5.660   3.610  13.640  0.00  0.00    +0.000 A 
ATOM     22  C   UNL     1       5.801   3.221  12.306  0.00  0.00    +0.000 A 
ATOM     23  C   UNL     1       6.813   3.771  11.521  0.00  0.00    +0.000 A 
ATOM     24  C   UNL     1       7.674   4.721  12.063  0.00  0.00    +0.000 A 
ATOM     25  C   UNL     1       7.531   5.114  13.395  0.00  0.00    +0.000 A 
ENDBRANCH   5  20
BRANCH   7  26
ATOM     26  C   UNL     1       4.080   3.645  18.316  0.00  0.00    +0.000 A 
ATOM     27  C   UNL     1       3.057   3.118  17.514  0.00  0.00    +0.000 A 
ATOM     28  C   UNL     1       2.028   2.358  18.077  0.00  0.00    +0.000 A 
ATOM     29  C   UNL     1       2.015   2.101  19.447  0.00  0.00    +0.000 A 
ATOM     30  C   UNL     1       3.027   2.607  20.257  0.00  0.00    +0.000 A 
ATOM     31  C   UNL     1       4.044   3.381  19.697  0.00  0.00    +0.000 A 
ENDBRANCH   7  26
BRANCH   1  33
ATOM     32  C   UNL     1       2.754   6.796  19.020  0.00  0.00    +0.000 C 
ATOM     33  C   UNL     1       3.664   6.727  17.794  0.00  0.00    +0.000 C 
ENDBRANCH   1  33
TORSDOF 4
ENDMDL
MODEL 2
REMARK VINA RESULT:      -8.1      8.828     12.027
REMARK  Name = 
REMARK  5 active torsions:
REMARK  status: ('A' for Active; 'I' for Inactive)
REMARK    1  A    between atoms: C_1  and  C_2
REMARK    2  A    between atoms: C_2  and  C_3
REMARK    3  A    between atoms: N_5  and  N_6
REMARK    4  A    between atoms: C_17  and  C_18
REMARK    5  A    between atoms: C_25  and  C_26
REMARK                            x       y       z     vdW  Elec       q    Type
REMARK                         _______ _______ _______ _____ _____    ______ ____
ROOT
ATOM      1  C   UNL     1      -0.823  10.716  19.052  0.00  0.00    +0.000 C 
ATOM      2  C   UNL     1      -1.365  12.127  19.307  0.00  0.00    +0.000 C 
ATOM      3  N   UNL     1      -2.503  12.213  19.927  0.00  0.00    +0.000 NA
ATOM      4  C   UNL     1      -0.566  13.294  18.762  0.00  0.00    +0.000 C 
ATOM      5  C   UNL     1       0.889  13.142  19.213  0.00  0.00    +0.000 C 
ATOM      6  N   UNL     1       1.416  11.846  18.769  0.00  0.00    +0.000 NA
ATOM      7  C   UNL     1       0.688  10.733  19.407  0.00  0.00    +0.000 C 
ATOM      8  H   UNL     1       2.395  11.786  19.052  0.00  0.00    +0.000 HD
ENDROOT
BRANCH   3   9
ATOM      9  N   UNL     1      -3.108  13.430  20.052  0.00  0.00    +0.000 N 
ATOM     10  C   UNL     1      -4.081  13.646  20.982  0.00  0.00    +0.000 A 
ATOM     11  N   UNL     1      -5.027  14.545  20.825  0.00  0.00    +0.000 NA
ATOM     12  C   UNL     1      -5.924  14.485  21.880  0.00  0.00    +0.000 A 
ATOM     13  C   UNL     1      -7.095  15.258  22.022  0.00  0.00    +0.000 A 
ATOM     14  C   UNL     1      -7.916  15.079  23.141  0.00  0.00    +0.000 A 
ATOM     15  C   UNL     1      -7.585  14.148  24.119  0.00  0.00    +0.000 A 
ATOM     16  C   UNL     1      -6.427  13.374  24.005  0.00  0.00    +0.000 A 
ATOM     17  C   UNL     1      -5.617  13.556  22.874  0.00  0.00    +0.000 A 
ATOM     18  S   UNL     1      -4.166  12.745  22.451  0.00  0.00    +0.000 S 
ATOM     19  H   UNL     1      -3.277  13.967  19.201  0.00  0.00    +0.000 HD
ENDBRANCH   3   9
BRANCH   5  20
ATOM     20  C   UNL     1       1.761  14.271  18.686  0.00  0.00    +0.000 A 
ATOM     21  C   UNL     1       3.011  13.993  18.110  0.00  0.00    +0.000 A 
ATOM     22  C   UNL     1       3.826  15.027  17.642  0.00  0.00    +0.000 A 
ATOM     23  C   UNL     1       3.400  16.350  17.740  0.00  0.00    +0.000 A 
ATOM     24  C   UNL     1       2.154  16.640  18.289  0.00  0.00    +0.000 A 
ATOM     25  C   UNL     1       1.337  15.607  18.753  0.00  0.00    +0.000 A 
ENDBRANCH   5  20
BRANCH   7  26
ATOM     26  C   UNL     1       1.437   9.433  19.148  0.00  0.00    +0.000 A 
ATOM     27  C   UNL     1       2.046   9.204  17.905  0.00  0.00    +0.000 A 
ATOM     28  C   UNL     1       2.660   7.980  17.626  0.00  0.00    +0.000 A 
ATOM     29  C   UNL     1       2.687   6.973  18.589  0.00  0.00    +0.000 A 
ATOM     30  C   UNL     1       2.097   7.186  19.831  0.00  0.00    +0.000 A 
ATOM     31  C   UNL     1       1.468   8.401  20.104  0.00  0.00    +0.000 A 
ENDBRANCH   7  26
BRANCH   1  33
ATOM     32  C   UNL     1      -2.597   9.683  17.505  0.00  0.00    +0.000 C 
ATOM     33  C   UNL     1      -1.192  10.273  17.622  0.00  0.00    +0.000 C 
ENDBRANCH   1  33
TORSDOF 4
ENDMDL
MODEL 3
REMARK VINA RESULT:      -8.0      6.507     10.492
REMARK  Name = 
REMARK  5 active torsions:
REMARK  status: ('A' for Active; 'I' for Inactive)
REMARK    1  A    between atoms: C_1  and  C_2
REMARK    2  A    between atoms: C_2  and  C_3
REMARK    3  A    between atoms: N_5  and  N_6
REMARK    4  A    between atoms: C_17  and  C_18
REMARK    5  A    between atoms: C_25  and  C_26
REMARK                            x       y       z     vdW  Elec       q    Type
REMARK                         _______ _______ _______ _____ _____    ______ ____
ROOT
ATOM      1  C   UNL     1       0.658  11.423  20.490  0.00  0.00    +0.000 C 
ATOM      2  C   UNL     1       0.815  10.226  19.545  0.00  0.00    +0.000 C 
ATOM      3  N   UNL     1       1.704   9.337  19.871  0.00  0.00    +0.000 NA
ATOM      4  C   UNL     1      -0.028  10.210  18.286  0.00  0.00    +0.000 C 
ATOM      5  C   UNL     1      -1.488  10.454  18.674  0.00  0.00    +0.000 C 
ATOM      6  N   UNL     1      -1.604  11.718  19.411  0.00  0.00    +0.000 NA
ATOM      7  C   UNL     1      -0.864  11.657  20.685  0.00  0.00    +0.000 C 
ATOM      8  H   UNL     1      -2.591  11.873  19.626  0.00  0.00    +0.000 HD
ENDROOT
BRANCH   3   9
ATOM      9  N   UNL     1       1.996   8.328  19.000  0.00  0.00    +0.000 N 
ATOM     10  C   UNL     1       2.155   7.045  19.428  0.00  0.00    +0.000 A 
ATOM     11  N   UNL     1       2.914   6.174  18.799  0.00  0.00    +0.000 NA
ATOM     12  C   UNL     1       2.959   4.981  19.504  0.00  0.00    +0.000 A 
ATOM     13  C   UNL     1       3.717   3.841  19.163  0.00  0.00    +0.000 A 
ATOM     14  C   UNL     1       3.673   2.707  19.981  0.00  0.00    +0.000 A 
ATOM     15  C   UNL     1       2.883   2.690  21.125  0.00  0.00    +0.000 A 
ATOM     16  C   UNL     1       2.118   3.804  21.481  0.00  0.00    +0.000 A 
ATOM     17  C   UNL     1       2.178   4.939  20.658  0.00  0.00    +0.000 A 
ATOM     18  S   UNL     1       1.381   6.446  20.848  0.00  0.00    +0.000 S 
ATOM     19  H   UNL     1       2.613   8.541  18.215  0.00  0.00    +0.000 HD
ENDBRANCH   3   9
BRANCH   5  20
ATOM     20  C   UNL     1      -2.397  10.472  17.455  0.00  0.00    +0.000 A 
ATOM     21  C   UNL     1      -2.064   9.732  16.309  0.00  0.00    +0.000 A 
ATOM     22  C   UNL     1      -2.884   9.760  15.179  0.00  0.00    +0.000 A 
ATOM     23  C   UNL     1      -4.049  10.525  15.181  0.00  0.00    +0.000 A 
ATOM     24  C   UNL     1      -4.404  11.248  16.317  0.00  0.00    +0.000 A 
ATOM     25  C   UNL     1      -3.587  11.217  17.448  0.00  0.00    +0.000 A 
ENDBRANCH   5  20
BRANCH   7  26
ATOM     26  C   UNL     1      -1.238  12.861  21.539  0.00  0.00    +0.000 A 
ATOM     27  C   UNL     1      -1.744  14.023  20.937  0.00  0.00    +0.000 A 
ATOM     28  C   UNL     1      -2.007  15.165  21.699  0.00  0.00    +0.000 A 
ATOM     29  C   UNL     1      -1.783  15.157  23.075  0.00  0.00    +0.000 A 
ATOM     30  C   UNL     1      -1.291  14.010  23.690  0.00  0.00    +0.000 A 
ATOM     31  C   UNL     1      -1.011  12.876  22.927  0.00  0.00    +0.000 A 
ENDBRANCH   7  26
BRANCH   1  33
ATOM     32  C   UNL     1       2.206  13.399  21.042  0.00  0.00    +0.000 C 
ATOM     33  C   UNL     1       1.477  12.614  19.952  0.00  0.00    +0.000 C 
ENDBRANCH   1  33
TORSDOF 4
ENDMDL
MODEL 4
REMARK VINA RESULT:      -7.9      6.510     10.522
REMARK  Name = 
REMARK  5 active torsions:
REMARK  status: ('A' for Active; 'I' for Inactive)
REMARK    1  A    between atoms: C_1  and  C_2
REMARK    2  A    between atoms: C_2  and  C_3
REMARK    3  A    between atoms: N_5  and  N_6
REMARK    4  A    between atoms: C_17  and  C_18
REMARK    5  A    between atoms: C_25  and  C_26
REMARK                            x       y       z     vdW  Elec       q    Type
REMARK                         _______ _______ _______ _____ _____    ______ ____
ROOT
ATOM      1  C   UNL     1       0.723  11.471  20.470  0.00  0.00    +0.000 C 
ATOM      2  C   UNL     1       0.864  10.268  19.530  0.00  0.00    +0.000 C 
ATOM      3  N   UNL     1       1.754   9.378  19.851  0.00  0.00    +0.000 NA
ATOM      4  C   UNL     1       0.007  10.247  18.281  0.00  0.00    +0.000 C 
ATOM      5  C   UNL     1      -1.448  10.500  18.684  0.00  0.00    +0.000 C 
ATOM      6  N   UNL     1      -1.551  11.768  19.415  0.00  0.00    +0.000 NA
ATOM      7  C   UNL     1      -0.796  11.712  20.681  0.00  0.00    +0.000 C 
ATOM      8  H   UNL     1      -2.534  11.929  19.640  0.00  0.00    +0.000 HD
ENDROOT
BRANCH   3   9
ATOM      9  N   UNL     1       2.032   8.362  18.983  0.00  0.00    +0.000 N 
ATOM     10  C   UNL     1       2.173   7.078  19.415  0.00  0.00    +0.000 A 
ATOM     11  N   UNL     1       2.920   6.195  18.788  0.00  0.00    +0.000 NA
ATOM     12  C   UNL     1       2.949   5.004  19.496  0.00  0.00    +0.000 A 
ATOM     13  C   UNL     1       3.691   3.853  19.159  0.00  0.00    +0.000 A 
ATOM     14  C   UNL     1       3.633   2.722  19.980  0.00  0.00    +0.000 A 
ATOM     15  C   UNL     1       2.843   2.719  21.124  0.00  0.00    +0.000 A 
ATOM     16  C   UNL     1       2.094   3.844  21.477  0.00  0.00    +0.000 A 
ATOM     17  C   UNL     1       2.169   4.976  20.651  0.00  0.00    +0.000 A 
ATOM     18  S   UNL     1       1.392   6.494  20.837  0.00  0.00    +0.000 S 
ATOM     19  H   UNL     1       2.651   8.565  18.197  0.00  0.00    +0.000 HD
ENDBRANCH   3   9
BRANCH   5  20
ATOM     20  C   UNL     1      -2.371  10.514  17.476  0.00  0.00    +0.000 A 
ATOM     21  C   UNL     1      -3.544  11.286  17.487  0.00  0.00    +0.000 A 
ATOM     22  C   UNL     1      -4.406  11.288  16.388  0.00  0.00    +0.000 A 
ATOM     23  C   UNL     1      -4.106  10.523  15.263  0.00  0.00    +0.000 A 
ATOM     24  C   UNL     1      -2.936   9.768  15.229  0.00  0.00    +0.000 A 
ATOM     25  C   UNL     1      -2.071   9.769  16.324  0.00  0.00    +0.000 A 
ENDBRANCH   5  20
BRANCH   7  26
ATOM     26  C   UNL     1      -1.156  12.923  21.531  0.00  0.00    +0.000 A 
ATOM     27  C   UNL     1      -1.000  12.880  22.924  0.00  0.00    +0.000 A 
ATOM     28  C   UNL     1      -1.410  13.952  23.722  0.00  0.00    +0.000 A 
ATOM     29  C   UNL     1      -1.966  15.089  23.137  0.00  0.00    +0.000 A 
ATOM     30  C   UNL     1      -2.118  15.154  21.756  0.00  0.00    +0.000 A 
ATOM     31  C   UNL     1      -1.727  14.075  20.961  0.00  0.00    +0.000 A 
ENDBRANCH   7  26
BRANCH   1  33
ATOM     32  C   UNL     1       2.419  13.339  20.962  0.00  0.00    +0.000 C 
ATOM     33  C   UNL     1       1.540  12.655  19.915  0.00  0.00    +0.000 C 
ENDBRANCH   1  33
TORSDOF 4
ENDMDL
MODEL 5
REMARK VINA RESULT:      -7.9      8.557     11.318
REMARK  Name = 
REMARK  5 active torsions:
REMARK  status: ('A' for Active; 'I' for Inactive)
REMARK    1  A    between atoms: C_1  and  C_2
REMARK    2  A    between atoms: C_2  and  C_3
REMARK    3  A    between atoms: N_5  and  N_6
REMARK    4  A    between atoms: C_17  and  C_18
REMARK    5  A    between atoms: C_25  and  C_26
REMARK                            x       y       z     vdW  Elec       q    Type
REMARK                         _______ _______ _______ _____ _____    ______ ____
ROOT
ATOM      1  C   UNL     1      -0.945  10.642  18.919  0.00  0.00    +0.000 C 
ATOM      2  C   UNL     1      -1.493  12.052  19.165  0.00  0.00    +0.000 C 
ATOM      3  N   UNL     1      -2.646  12.136  19.757  0.00  0.00    +0.000 NA
ATOM      4  C   UNL     1      -0.680  13.222  18.646  0.00  0.00    +0.000 C 
ATOM      5  C   UNL     1       0.763  13.067  19.132  0.00  0.00    +0.000 C 
ATOM      6  N   UNL     1       1.300  11.773  18.697  0.00  0.00    +0.000 NA
ATOM      7  C   UNL     1       0.556  10.657  19.312  0.00  0.00    +0.000 C 
ATOM      8  H   UNL     1       2.273  11.711  19.004  0.00  0.00    +0.000 HD
ENDROOT
BRANCH   3   9
ATOM      9  N   UNL     1      -3.254  13.353  19.872  0.00  0.00    +0.000 N 
ATOM     10  C   UNL     1      -3.282  14.023  21.058  0.00  0.00    +0.000 A 
ATOM     11  N   UNL     1      -4.237  14.870  21.373  0.00  0.00    +0.000 NA
ATOM     12  C   UNL     1      -4.058  15.333  22.668  0.00  0.00    +0.000 A 
ATOM     13  C   UNL     1      -4.916  16.209  23.365  0.00  0.00    +0.000 A 
ATOM     14  C   UNL     1      -4.612  16.581  24.679  0.00  0.00    +0.000 A 
ATOM     15  C   UNL     1      -3.466  16.100  25.303  0.00  0.00    +0.000 A 
ATOM     16  C   UNL     1      -2.597  15.236  24.632  0.00  0.00    +0.000 A 
ATOM     17  C   UNL     1      -2.918  14.862  23.319  0.00  0.00    +0.000 A 
ATOM     18  S   UNL     1      -2.068  13.810  22.264  0.00  0.00    +0.000 S 
ATOM     19  H   UNL     1      -4.105  13.512  19.331  0.00  0.00    +0.000 HD
ENDBRANCH   3   9
BRANCH   5  20
ATOM     20  C   UNL     1       1.648  14.197  18.632  0.00  0.00    +0.000 A 
ATOM     21  C   UNL     1       2.929  13.925  18.124  0.00  0.00    +0.000 A 
ATOM     22  C   UNL     1       3.755  14.961  17.682  0.00  0.00    +0.000 A 
ATOM     23  C   UNL     1       3.311  16.281  17.738  0.00  0.00    +0.000 A 
ATOM     24  C   UNL     1       2.036  16.565  18.220  0.00  0.00    +0.000 A 
ATOM     25  C   UNL     1       1.208  15.530  18.658  0.00  0.00    +0.000 A 
ENDBRANCH   5  20
BRANCH   7  26
ATOM     26  C   UNL     1       1.311   9.358  19.067  0.00  0.00    +0.000 A 
ATOM     27  C   UNL     1       1.379   8.380  20.070  0.00  0.00    +0.000 A 
ATOM     28  C   UNL     1       2.143   7.223  19.888  0.00  0.00    +0.000 A 
ATOM     29  C   UNL     1       2.836   7.020  18.697  0.00  0.00    +0.000 A 
ATOM     30  C   UNL     1       2.772   7.975  17.687  0.00  0.00    +0.000 A 
ATOM     31  C   UNL     1       2.025   9.138  17.875  0.00  0.00    +0.000 A 
ENDBRANCH   7  26
BRANCH   1  33
ATOM     32  C   UNL     1      -2.748   9.841  17.271  0.00  0.00    +0.000 C 
ATOM     33  C   UNL     1      -1.278  10.206  17.478  0.00  0.00    +0.000 C 
ENDBRANCH   1  33
TORSDOF 4
ENDMDL
MODEL 6
REMARK VINA RESULT:      -7.8      8.595     11.343
REMARK  Name = 
REMARK  5 active torsions:
REMARK  status: ('A' for Active; 'I' for Inactive)
REMARK    1  A    between atoms: C_1  and  C_2
REMARK    2  A    between atoms: C_2  and  C_3
REMARK    3  A    between atoms: N_5  and  N_6
REMARK    4  A    between atoms: C_17  and  C_18
REMARK    5  A    between atoms: C_25  and  C_26
REMARK                            x       y       z     vdW  Elec       q    Type
REMARK                         _______ _______ _______ _____ _____    ______ ____
ROOT
ATOM      1  C   UNL     1      -0.886  10.655  18.981  0.00  0.00    +0.000 C 
ATOM      2  C   UNL     1      -1.468  12.057  19.195  0.00  0.00    +0.000 C 
ATOM      3  N   UNL     1      -2.630  12.125  19.771  0.00  0.00    +0.000 NA
ATOM      4  C   UNL     1      -0.676  13.235  18.665  0.00  0.00    +0.000 C 
ATOM      5  C   UNL     1       0.764  13.122  19.171  0.00  0.00    +0.000 C 
ATOM      6  N   UNL     1       1.336  11.833  18.766  0.00  0.00    +0.000 NA
ATOM      7  C   UNL     1       0.610  10.712  19.392  0.00  0.00    +0.000 C 
ATOM      8  H   UNL     1       2.306  11.799  19.085  0.00  0.00    +0.000 HD
ENDROOT
BRANCH   3   9
ATOM      9  N   UNL     1      -3.267  13.329  19.857  0.00  0.00    +0.000 N 
ATOM     10  C   UNL     1      -3.327  14.018  21.031  0.00  0.00    +0.000 A 
ATOM     11  N   UNL     1      -4.306  14.848  21.319  0.00  0.00    +0.000 NA
ATOM     12  C   UNL     1      -4.155  15.336  22.608  0.00  0.00    +0.000 A 
ATOM     13  C   UNL     1      -5.042  16.205  23.278  0.00  0.00    +0.000 A 
ATOM     14  C   UNL     1      -4.765  16.606  24.589  0.00  0.00    +0.000 A 
ATOM     15  C   UNL     1      -3.618  16.162  25.237  0.00  0.00    +0.000 A 
ATOM     16  C   UNL     1      -2.720  15.306  24.593  0.00  0.00    +0.000 A 
ATOM     17  C   UNL     1      -3.014  14.903  23.282  0.00  0.00    +0.000 A 
ATOM     18  S   UNL     1      -2.125  13.853  22.257  0.00  0.00    +0.000 S 
ATOM     19  H   UNL     1      -4.114  13.459  19.302  0.00  0.00    +0.000 HD
ENDBRANCH   3   9
BRANCH   5  20
ATOM     20  C   UNL     1       1.629  14.263  18.661  0.00  0.00    +0.000 A 
ATOM     21  C   UNL     1       1.173  15.589  18.737  0.00  0.00    +0.000 A 
ATOM     22  C   UNL     1       1.955  16.641  18.252  0.00  0.00    +0.000 A 
ATOM     23  C   UNL     1       3.202  16.381  17.689  0.00  0.00    +0.000 A 
ATOM     24  C   UNL     1       3.677  15.074  17.624  0.00  0.00    +0.000 A 
ATOM     25  C   UNL     1       2.899  14.023  18.113  0.00  0.00    +0.000 A 
ENDBRANCH   5  20
BRANCH   7  26
ATOM     26  C   UNL     1       1.398   9.426  19.179  0.00  0.00    +0.000 A 
ATOM     27  C   UNL     1       2.044   9.187  17.957  0.00  0.00    +0.000 A 
ATOM     28  C   UNL     1       2.695   7.973  17.719  0.00  0.00    +0.000 A 
ATOM     29  C   UNL     1       2.722   6.988  18.704  0.00  0.00    +0.000 A 
ATOM     30  C   UNL     1       2.096   7.211  19.926  0.00  0.00    +0.000 A 
ATOM     31  C   UNL     1       1.430   8.415  20.156  0.00  0.00    +0.000 A 
ENDBRANCH   7  26
BRANCH   1  33
ATOM     32  C   UNL     1      -2.668   9.879  17.300  0.00  0.00    +0.000 C 
ATOM     33  C   UNL     1      -1.191  10.185  17.544  0.00  0.00    +0.000 C 
ENDBRANCH   1  33
TORSDOF 4
ENDMDL
MODEL 7
REMARK VINA RESULT:      -7.6      7.849     10.939
REMARK  Name = 
REMARK  5 active torsions:
REMARK  status: ('A' for Active; 'I' for Inactive)
REMARK    1  A    between atoms: C_1  and  C_2
REMARK    2  A    between atoms: C_2  and  C_3
REMARK    3  A    between atoms: N_5  and  N_6
REMARK    4  A    between atoms: C_17  and  C_18
REMARK    5  A    between atoms: C_25  and  C_26
REMARK                            x       y       z     vdW  Elec       q    Type
REMARK                         _______ _______ _______ _____ _____    ______ ____
ROOT
ATOM      1  C   UNL     1       0.728  10.188  20.830  0.00  0.00    +0.000 C 
ATOM      2  C   UNL     1      -0.162  11.434  20.744  0.00  0.00    +0.000 C 
ATOM      3  N   UNL     1       0.150  12.428  21.520  0.00  0.00    +0.000 NA
ATOM      4  C   UNL     1      -1.358  11.381  19.816  0.00  0.00    +0.000 C 
ATOM      5  C   UNL     1      -0.886  10.910  18.438  0.00  0.00    +0.000 C 
ATOM      6  N   UNL     1      -0.210   9.613  18.558  0.00  0.00    +0.000 NA
ATOM      7  C   UNL     1       1.013   9.728  19.375  0.00  0.00    +0.000 C 
ATOM      8  H   UNL     1       0.063   9.307  17.623  0.00  0.00    +0.000 HD
ENDROOT
BRANCH   3   9
ATOM      9  N   UNL     1      -0.685  13.505  21.599  0.00  0.00    +0.000 N 
ATOM     10  C   UNL     1      -1.891  13.424  22.228  0.00  0.00    +0.000 A 
ATOM     11  N   UNL     1      -2.914  14.184  21.906  0.00  0.00    +0.000 NA
ATOM     12  C   UNL     1      -4.030  13.825  22.647  0.00  0.00    +0.000 A 
ATOM     13  C   UNL     1      -5.321  14.382  22.531  0.00  0.00    +0.000 A 
ATOM     14  C   UNL     1      -6.358  13.907  23.341  0.00  0.00    +0.000 A 
ATOM     15  C   UNL     1      -6.127  12.894  24.265  0.00  0.00    +0.000 A 
ATOM     16  C   UNL     1      -4.856  12.330  24.403  0.00  0.00    +0.000 A 
ATOM     17  C   UNL     1      -3.826  12.808  23.579  0.00  0.00    +0.000 A 
ATOM     18  S   UNL     1      -2.189  12.301  23.503  0.00  0.00    +0.000 S 
ATOM     19  H   UNL     1      -0.722  14.138  20.799  0.00  0.00    +0.000 HD
ENDBRANCH   3   9
BRANCH   5  20
ATOM     20  C   UNL     1      -2.040  10.811  17.453  0.00  0.00    +0.000 A 
ATOM     21  C   UNL     1      -1.978   9.912  16.375  0.00  0.00    +0.000 A 
ATOM     22  C   UNL     1      -3.026   9.830  15.455  0.00  0.00    +0.000 A 
ATOM     23  C   UNL     1      -4.149  10.642  15.601  0.00  0.00    +0.000 A 
ATOM     24  C   UNL     1      -4.234  11.524  16.676  0.00  0.00    +0.000 A 
ATOM     25  C   UNL     1      -3.189  11.603  17.598  0.00  0.00    +0.000 A 
ENDBRANCH   5  20
BRANCH   7  26
ATOM     26  C   UNL     1       1.825   8.446  19.241  0.00  0.00    +0.000 A 
ATOM     27  C   UNL     1       2.571   8.201  18.079  0.00  0.00    +0.000 A 
ATOM     28  C   UNL     1       3.248   6.990  17.907  0.00  0.00    +0.000 A 
ATOM     29  C   UNL     1       3.202   6.015  18.901  0.00  0.00    +0.000 A 
ATOM     30  C   UNL     1       2.476   6.244  20.065  0.00  0.00    +0.000 A 
ATOM     31  C   UNL     1       1.784   7.445  20.228  0.00  0.00    +0.000 A 
ENDBRANCH   7  26
BRANCH   1  33
ATOM     32  C   UNL     1       0.285   9.451  23.252  0.00  0.00    +0.000 C 
ATOM     33  C   UNL     1       0.074   9.154  21.768  0.00  0.00    +0.000 C 
ENDBRANCH   1  33
TORSDOF 4
ENDMDL
MODEL 8
REMARK VINA RESULT:      -7.5      6.522     10.105
REMARK  Name = 
REMARK  5 active torsions:
REMARK  status: ('A' for Active; 'I' for Inactive)
REMARK    1  A    between atoms: C_1  and  C_2
REMARK    2  A    between atoms: C_2  and  C_3
REMARK    3  A    between atoms: N_5  and  N_6
REMARK    4  A    between atoms: C_17  and  C_18
REMARK    5  A    between atoms: C_25  and  C_26
REMARK                            x       y       z     vdW  Elec       q    Type
REMARK                         _______ _______ _______ _____ _____    ______ ____
ROOT
ATOM      1  C   UNL     1      -0.245  10.954  20.724  0.00  0.00    +0.000 C 
ATOM      2  C   UNL     1       0.587  10.679  19.465  0.00  0.00    +0.000 C 
ATOM      3  N   UNL     1       0.385   9.544  18.868  0.00  0.00    +0.000 NA
ATOM      4  C   UNL     1       1.612  11.719  19.060  0.00  0.00    +0.000 C 
ATOM      5  C   UNL     1       0.928  13.088  19.016  0.00  0.00    +0.000 C 
ATOM      6  N   UNL     1       0.314  13.381  20.316  0.00  0.00    +0.000 NA
ATOM      7  C   UNL     1      -0.758  12.415  20.625  0.00  0.00    +0.000 C 
ATOM      8  H   UNL     1      -0.104  14.312  20.269  0.00  0.00    +0.000 HD
ENDROOT
BRANCH   3   9
ATOM      9  N   UNL     1       1.195   9.177  17.832  0.00  0.00    +0.000 N 
ATOM     10  C   UNL     1       2.157   8.225  17.986  0.00  0.00    +0.000 A 
ATOM     11  N   UNL     1       3.255   8.200  17.262  0.00  0.00    +0.000 NA
ATOM     12  C   UNL     1       4.089   7.180  17.694  0.00  0.00    +0.000 A 
ATOM     13  C   UNL     1       5.375   6.888  17.191  0.00  0.00    +0.000 A 
ATOM     14  C   UNL     1       6.111   5.830  17.736  0.00  0.00    +0.000 A 
ATOM     15  C   UNL     1       5.584   5.059  18.766  0.00  0.00    +0.000 A 
ATOM     16  C   UNL     1       4.310   5.325  19.277  0.00  0.00    +0.000 A 
ATOM     17  C   UNL     1       3.586   6.394  18.729  0.00  0.00    +0.000 A 
ATOM     18  S   UNL     1       2.029   6.968  19.161  0.00  0.00    +0.000 S 
ATOM     19  H   UNL     1       1.486   9.903  17.177  0.00  0.00    +0.000 HD
ENDBRANCH   3   9
BRANCH   5  20
ATOM     20  C   UNL     1       1.902  14.191  18.635  0.00  0.00    +0.000 A 
ATOM     21  C   UNL     1       1.500  15.536  18.667  0.00  0.00    +0.000 A 
ATOM     22  C   UNL     1       2.384  16.553  18.299  0.00  0.00    +0.000 A 
ATOM     23  C   UNL     1       3.682  16.239  17.899  0.00  0.00    +0.000 A 
ATOM     24  C   UNL     1       4.102  14.912  17.882  0.00  0.00    +0.000 A 
ATOM     25  C   UNL     1       3.220  13.895  18.254  0.00  0.00    +0.000 A 
ENDBRANCH   5  20
BRANCH   7  26
ATOM     26  C   UNL     1      -1.549  12.915  21.827  0.00  0.00    +0.000 A 
ATOM     27  C   UNL     1      -0.996  13.875  22.687  0.00  0.00    +0.000 A 
ATOM     28  C   UNL     1      -1.676  14.275  23.841  0.00  0.00    +0.000 A 
ATOM     29  C   UNL     1      -2.924  13.734  24.143  0.00  0.00    +0.000 A 
ATOM     30  C   UNL     1      -3.492  12.787  23.296  0.00  0.00    +0.000 A 
ATOM     31  C   UNL     1      -2.805  12.374  22.154  0.00  0.00    +0.000 A 
ENDBRANCH   7  26
BRANCH   1  33
ATOM     32  C   UNL     1      -0.174   9.728  22.982  0.00  0.00    +0.000 C 
ATOM     33  C   UNL     1       0.582  10.594  21.974  0.00  0.00    +0.000 C 
ENDBRANCH   1  33
TORSDOF 4
ENDMDL
MODEL 9
REMARK VINA RESULT:      -7.3      7.831     11.634
REMARK  Name = 
REMARK  5 active torsions:
REMARK  status: ('A' for Active; 'I' for Inactive)
REMARK    1  A    between atoms: C_1  and  C_2
REMARK    2  A    between atoms: C_2  and  C_3
REMARK    3  A    between atoms: N_5  and  N_6
REMARK    4  A    between atoms: C_17  and  C_18
REMARK    5  A    between atoms: C_25  and  C_26
REMARK                            x       y       z     vdW  Elec       q    Type
REMARK                         _______ _______ _______ _____ _____    ______ ____
ROOT
ATOM      1  C   UNL     1       0.476  13.893  19.778  0.00  0.00    +0.000 C 
ATOM      2  C   UNL     1       0.411  12.629  18.914  0.00  0.00    +0.000 C 
ATOM      3  N   UNL     1       1.522  11.977  18.749  0.00  0.00    +0.000 NA
ATOM      4  C   UNL     1      -0.919  12.281  18.277  0.00  0.00    +0.000 C 
ATOM      5  C   UNL     1      -1.998  12.297  19.362  0.00  0.00    +0.000 C 
ATOM      6  N   UNL     1      -2.019  13.606  20.026  0.00  0.00    +0.000 NA
ATOM      7  C   UNL     1      -0.749  13.861  20.731  0.00  0.00    +0.000 C 
ATOM      8  H   UNL     1      -2.769  13.600  20.719  0.00  0.00    +0.000 HD
ENDROOT
BRANCH   3   9
ATOM      9  N   UNL     1       1.563  10.930  17.873  0.00  0.00    +0.000 N 
ATOM     10  C   UNL     1       1.750   9.651  18.305  0.00  0.00    +0.000 A 
ATOM     11  N   UNL     1       2.306   8.723  17.557  0.00  0.00    +0.000 NA
ATOM     12  C   UNL     1       2.448   7.549  18.280  0.00  0.00    +0.000 A 
ATOM     13  C   UNL     1       3.054   6.359  17.825  0.00  0.00    +0.000 A 
ATOM     14  C   UNL     1       3.138   5.251  18.675  0.00  0.00    +0.000 A 
ATOM     15  C   UNL     1       2.622   5.309  19.965  0.00  0.00    +0.000 A 
ATOM     16  C   UNL     1       2.012   6.474  20.438  0.00  0.00    +0.000 A 
ATOM     17  C   UNL     1       1.943   7.581  19.579  0.00  0.00    +0.000 A 
ATOM     18  S   UNL     1       1.283   9.135  19.883  0.00  0.00    +0.000 S 
ATOM     19  H   UNL     1       2.000  11.088  16.964  0.00  0.00    +0.000 HD
ENDBRANCH   3   9
BRANCH   5  20
ATOM     20  C   UNL     1      -3.371  11.976  18.793  0.00  0.00    +0.000 A 
ATOM     21  C   UNL     1      -3.492  11.346  17.543  0.00  0.00    +0.000 A 
ATOM     22  C   UNL     1      -4.751  11.066  17.006  0.00  0.00    +0.000 A 
ATOM     23  C   UNL     1      -5.903  11.408  17.710  0.00  0.00    +0.000 A 
ATOM     24  C   UNL     1      -5.799  12.015  18.960  0.00  0.00    +0.000 A 
ATOM     25  C   UNL     1      -4.542  12.291  19.500  0.00  0.00    +0.000 A 
ENDBRANCH   5  20
BRANCH   7  26
ATOM     26  C   UNL     1      -0.913  15.080  21.629  0.00  0.00    +0.000 A 
ATOM     27  C   UNL     1      -2.033  15.913  21.492  0.00  0.00    +0.000 A 
ATOM     28  C   UNL     1      -2.150  17.082  22.250  0.00  0.00    +0.000 A 
ATOM     29  C   UNL     1      -1.158  17.427  23.165  0.00  0.00    +0.000 A 
ATOM     30  C   UNL     1      -0.044  16.607  23.321  0.00  0.00    +0.000 A 
ATOM     31  C   UNL     1       0.082  15.450  22.552  0.00  0.00    +0.000 A 
ENDBRANCH   7  26
BRANCH   1  33
ATOM     32  C   UNL     1       1.950  15.856  19.015  0.00  0.00    +0.000 C 
ATOM     33  C   UNL     1       0.612  15.131  18.868  0.00  0.00    +0.000 C 
ENDBRANCH   1  33
TORSDOF 4
ENDMDL
