MODEL 1
REMARK VINA RESULT:      -8.3      0.000      0.000
REMARK  Name = 
REMARK  12 active torsions:
REMARK  status: ('A' for Active; 'I' for Inactive)
REMARK    1  A    between atoms: C_1  and  C_2
REMARK    2  A    between atoms: C_4  and  C_5
REMARK    3  A    between atoms: C_7  and  N_8
REMARK    4  A    between atoms: N_8  and  C_25
REMARK    5  A    between atoms: C_9  and  O_11
REMARK    6  A    between atoms: O_11  and  C_12
REMARK    7  A    between atoms: C_12  and  C_13
REMARK    8  A    between atoms: C_16  and  C_17
REMARK    9  A    between atoms: C_17  and  O_18
REMARK   10  A    between atoms: O_18  and  C_19
REMARK   11  A    between atoms: C_19  and  C_20
REMARK   12  A    between atoms: C_20  and  O_22
REMARK                            x       y       z     vdW  Elec       q    Type
REMARK                         _______ _______ _______ _____ _____    ______ ____
ROOT
ATOM      1  N   UNL     1       3.092   5.822  18.762  0.00  0.00    +0.000 N 
ATOM      2  C   UNL     1       2.570   7.093  19.078  0.00  0.00    +0.000 C 
ATOM      3  O   UNL     1       1.702   7.307  19.921  0.00  0.00    +0.000 OA
ENDROOT
BRANCH   1  10
ATOM      4  C   UNL     1       5.843   4.781  14.738  0.00  0.00    +0.000 C 
ATOM      5  C   UNL     1       5.750   5.133  16.196  0.00  0.00    +0.000 A 
ATOM      6  C   UNL     1       6.903   5.282  16.971  0.00  0.00    +0.000 A 
ATOM      7  C   UNL     1       6.816   5.624  18.325  0.00  0.00    +0.000 A 
ATOM      8  C   UNL     1       8.057   5.754  19.161  0.00  0.00    +0.000 C 
ATOM      9  C   UNL     1       5.551   5.829  18.903  0.00  0.00    +0.000 A 
ATOM     10  C   UNL     1       4.378   5.666  18.151  0.00  0.00    +0.000 A 
ATOM     11  C   UNL     1       4.493   5.314  16.793  0.00  0.00    +0.000 A 
ENDBRANCH   1  10
BRANCH   1  12
ATOM     12  C   UNL     1       2.390   4.627  19.177  0.00  0.00    +0.000 A 
ATOM     13  C   UNL     1       1.626   3.891  18.248  0.00  0.00    +0.000 A 
ATOM     14  C   UNL     1       0.890   2.762  18.624  0.00  0.00    +0.000 A 
ATOM     15  C   UNL     1       0.911   2.333  19.943  0.00  0.00    +0.000 A 
ATOM     16  C   UNL     1       1.670   3.035  20.869  0.00  0.00    +0.000 A 
ATOM     17  F   UNL     1       1.685   2.625  22.145  0.00  0.00    +0.000 F 
ATOM     18  C   UNL     1       2.404   4.164  20.503  0.00  0.00    +0.000 A 
ENDBRANCH   1  12
BRANCH   2  19
ATOM     19  O   UNL     1       3.047   8.104  18.283  0.00  0.00    +0.000 OA
BRANCH  19  20
ATOM     20  C   UNL     1       2.039   8.869  17.577  0.00  0.00    +0.000 C 
BRANCH  20  21
ATOM     21  C   UNL     1       1.393   9.936  18.494  0.00  0.00    +0.000 C 
ATOM     22  C   UNL     1       2.012  11.334  18.294  0.00  0.00    +0.000 C 
ATOM     23  C   UNL     1       1.290  12.431  19.097  0.00  0.00    +0.000 C 
ATOM     24  C   UNL     1      -0.224  12.432  18.832  0.00  0.00    +0.000 C 
ATOM     25  C   UNL     1      -0.803  11.040  19.105  0.00  0.00    +0.000 C 
ATOM     26  C   UNL     1      -0.122   9.979  18.252  0.00  0.00    +0.000 C 
BRANCH  24  27
ATOM     27  C   UNL     1      -0.987  13.473  19.664  0.00  0.00    +0.000 C 
BRANCH  27  28
ATOM     28  O   UNL     1      -1.681  12.839  20.742  0.00  0.00    +0.000 OA
BRANCH  28  29
ATOM     29  C   UNL     1      -0.883  12.864  21.939  0.00  0.00    +0.000 C 
BRANCH  29  30
ATOM     30  C   UNL     1      -1.412  11.818  22.905  0.00  0.00    +0.000 C 
ATOM     31  O   UNL     1      -2.560  11.775  23.325  0.00  0.00    +0.000 OA
BRANCH  30  32
ATOM     32  O   UNL     1      -0.456  10.921  23.259  0.00  0.00    +0.000 OA
ATOM     33  H   UNL     1       0.188  11.396  23.838  0.00  0.00    +0.000 HD
ENDBRANCH  30  32
ENDBRANCH  29  30
ENDBRANCH  28  29
ENDBRANCH  27  28
ENDBRANCH  24  27
ENDBRANCH  20  21
ENDBRANCH  19  20
ENDBRANCH   2  19
TORSDOF 10
ENDMDL
MODEL 2
REMARK VINA RESULT:      -8.1      1.433      1.795
REMARK  Name = 
REMARK  12 active torsions:
REMARK  status: ('A' for Active; 'I' for Inactive)
REMARK    1  A    between atoms: C_1  and  C_2
REMARK    2  A    between atoms: C_4  and  C_5
REMARK    3  A    between atoms: C_7  and  N_8
REMARK    4  A    between atoms: N_8  and  C_25
REMARK    5  A    between atoms: C_9  and  O_11
REMARK    6  A    between atoms: O_11  and  C_12
REMARK    7  A    between atoms: C_12  and  C_13
REMARK    8  A    between atoms: C_16  and  C_17
REMARK    9  A    between atoms: C_17  and  O_18
REMARK   10  A    between atoms: O_18  and  C_19
REMARK   11  A    between atoms: C_19  and  C_20
REMARK   12  A    between atoms: C_20  and  O_22
REMARK                            x       y       z     vdW  Elec       q    Type
REMARK                         _______ _______ _______ _____ _____    ______ ____
ROOT
ATOM      1  N   UNL     1       2.979   6.008  19.100  0.00  0.00    +0.000 N 
ATOM      2  C   UNL     1       2.436   7.284  19.353  0.00  0.00    +0.000 C 
ATOM      3  O   UNL     1       1.618   7.538  20.234  0.00  0.00    +0.000 OA
ENDROOT
BRANCH   1  10
ATOM      4  C   UNL     1       5.495   5.177  14.878  0.00  0.00    +0.000 C 
ATOM      5  C   UNL     1       5.483   5.409  16.362  0.00  0.00    +0.000 A 
ATOM      6  C   UNL     1       6.675   5.436  17.091  0.00  0.00    +0.000 A 
ATOM      7  C   UNL     1       6.665   5.666  18.472  0.00  0.00    +0.000 A 
ATOM      8  C   UNL     1       7.946   5.665  19.255  0.00  0.00    +0.000 C 
ATOM      9  C   UNL     1       5.439   5.884  19.124  0.00  0.00    +0.000 A 
ATOM     10  C   UNL     1       4.227   5.841  18.418  0.00  0.00    +0.000 A 
ATOM     11  C   UNL     1       4.265   5.600  17.032  0.00  0.00    +0.000 A 
ENDBRANCH   1  10
BRANCH   1  12
ATOM     12  C   UNL     1       2.346   4.828  19.651  0.00  0.00    +0.000 A 
ATOM     13  C   UNL     1       2.570   4.462  20.993  0.00  0.00    +0.000 A 
ATOM     14  C   UNL     1       2.020   3.300  21.545  0.00  0.00    +0.000 A 
ATOM     15  C   UNL     1       1.218   2.479  20.766  0.00  0.00    +0.000 A 
ATOM     16  C   UNL     1       0.972   2.832  19.447  0.00  0.00    +0.000 A 
ATOM     17  F   UNL     1       0.203   2.036  18.691  0.00  0.00    +0.000 F 
ATOM     18  C   UNL     1       1.520   3.987  18.887  0.00  0.00    +0.000 A 
ENDBRANCH   1  12
BRANCH   2  19
ATOM     19  O   UNL     1       2.827   8.243  18.454  0.00  0.00    +0.000 OA
BRANCH  19  20
ATOM     20  C   UNL     1       1.758   8.844  17.681  0.00  0.00    +0.000 C 
BRANCH  20  21
ATOM     21  C   UNL     1       0.871   9.759  18.558  0.00  0.00    +0.000 C 
ATOM     22  C   UNL     1       1.533  11.122  18.841  0.00  0.00    +0.000 C 
ATOM     23  C   UNL     1       0.607  12.094  19.596  0.00  0.00    +0.000 C 
ATOM     24  C   UNL     1      -0.752  12.252  18.894  0.00  0.00    +0.000 C 
ATOM     25  C   UNL     1      -1.398  10.878  18.693  0.00  0.00    +0.000 C 
ATOM     26  C   UNL     1      -0.496   9.953  17.888  0.00  0.00    +0.000 C 
BRANCH  24  27
ATOM     27  C   UNL     1      -1.725  13.166  19.653  0.00  0.00    +0.000 C 
BRANCH  27  28
ATOM     28  O   UNL     1      -2.896  12.440  20.037  0.00  0.00    +0.000 OA
BRANCH  28  29
ATOM     29  C   UNL     1      -3.934  13.344  20.459  0.00  0.00    +0.000 C 
BRANCH  29  30
ATOM     30  C   UNL     1      -4.657  12.742  21.650  0.00  0.00    +0.000 C 
ATOM     31  O   UNL     1      -5.629  12.004  21.575  0.00  0.00    +0.000 OA
BRANCH  30  32
ATOM     32  O   UNL     1      -4.099  13.120  22.830  0.00  0.00    +0.000 OA
ATOM     33  H   UNL     1      -4.216  14.097  22.907  0.00  0.00    +0.000 HD
ENDBRANCH  30  32
ENDBRANCH  29  30
ENDBRANCH  28  29
ENDBRANCH  27  28
ENDBRANCH  24  27
ENDBRANCH  20  21
ENDBRANCH  19  20
ENDBRANCH   2  19
TORSDOF 10
ENDMDL
MODEL 3
REMARK VINA RESULT:      -8.1      2.363      3.124
REMARK  Name = 
REMARK  12 active torsions:
REMARK  status: ('A' for Active; 'I' for Inactive)
REMARK    1  A    between atoms: C_1  and  C_2
REMARK    2  A    between atoms: C_4  and  C_5
REMARK    3  A    between atoms: C_7  and  N_8
REMARK    4  A    between atoms: N_8  and  C_25
REMARK    5  A    between atoms: C_9  and  O_11
REMARK    6  A    between atoms: O_11  and  C_12
REMARK    7  A    between atoms: C_12  and  C_13
REMARK    8  A    between atoms: C_16  and  C_17
REMARK    9  A    between atoms: C_17  and  O_18
REMARK   10  A    between atoms: O_18  and  C_19
REMARK   11  A    between atoms: C_19  and  C_20
REMARK   12  A    between atoms: C_20  and  O_22
REMARK                            x       y       z     vdW  Elec       q    Type
REMARK                         _______ _______ _______ _____ _____    ______ ____
ROOT
ATOM      1  N   UNL     1       3.030   5.874  19.001  0.00  0.00    +0.000 N 
ATOM      2  C   UNL     1       2.514   7.166  19.233  0.00  0.00    +0.000 C 
ATOM      3  O   UNL     1       1.701   7.451  20.108  0.00  0.00    +0.000 OA
ENDROOT
BRANCH   1  10
ATOM      4  C   UNL     1       5.523   4.725  14.840  0.00  0.00    +0.000 C 
ATOM      5  C   UNL     1       5.521   5.085  16.299  0.00  0.00    +0.000 A 
ATOM      6  C   UNL     1       6.718   5.196  17.011  0.00  0.00    +0.000 A 
ATOM      7  C   UNL     1       6.716   5.544  18.366  0.00  0.00    +0.000 A 
ATOM      8  C   UNL     1       8.005   5.633  19.134  0.00  0.00    +0.000 C 
ATOM      9  C   UNL     1       5.492   5.796  19.010  0.00  0.00    +0.000 A 
ATOM     10  C   UNL     1       4.276   5.671  18.323  0.00  0.00    +0.000 A 
ATOM     11  C   UNL     1       4.305   5.312  16.963  0.00  0.00    +0.000 A 
ENDBRANCH   1  10
BRANCH   1  12
ATOM     12  C   UNL     1       2.373   4.717  19.571  0.00  0.00    +0.000 A 
ATOM     13  C   UNL     1       2.596   4.365  20.918  0.00  0.00    +0.000 A 
ATOM     14  C   UNL     1       2.022   3.223  21.489  0.00  0.00    +0.000 A 
ATOM     15  C   UNL     1       1.198   2.410  20.724  0.00  0.00    +0.000 A 
ATOM     16  C   UNL     1       0.954   2.751  19.401  0.00  0.00    +0.000 A 
ATOM     17  F   UNL     1       0.163   1.962  18.660  0.00  0.00    +0.000 F 
ATOM     18  C   UNL     1       1.525   3.885  18.823  0.00  0.00    +0.000 A 
ENDBRANCH   1  12
BRANCH   2  19
ATOM     19  O   UNL     1       2.924   8.102  18.318  0.00  0.00    +0.000 OA
BRANCH  19  20
ATOM     20  C   UNL     1       1.865   8.878  17.704  0.00  0.00    +0.000 C 
BRANCH  20  21
ATOM     21  C   UNL     1       1.660  10.229  18.430  0.00  0.00    +0.000 C 
ATOM     22  C   UNL     1       2.447  11.377  17.766  0.00  0.00    +0.000 C 
ATOM     23  C   UNL     1       2.147  12.751  18.393  0.00  0.00    +0.000 C 
ATOM     24  C   UNL     1       0.637  13.043  18.438  0.00  0.00    +0.000 C 
ATOM     25  C   UNL     1      -0.091  11.906  19.162  0.00  0.00    +0.000 C 
ATOM     26  C   UNL     1       0.164  10.565  18.489  0.00  0.00    +0.000 C 
BRANCH  24  27
ATOM     27  C   UNL     1       0.296  14.378  19.114  0.00  0.00    +0.000 C 
BRANCH  27  28
ATOM     28  O   UNL     1       1.365  15.312  18.946  0.00  0.00    +0.000 OA
BRANCH  28  29
ATOM     29  C   UNL     1       1.134  16.491  19.738  0.00  0.00    +0.000 C 
BRANCH  29  30
ATOM     30  C   UNL     1       1.880  17.657  19.114  0.00  0.00    +0.000 C 
ATOM     31  O   UNL     1       2.198  17.730  17.936  0.00  0.00    +0.000 OA
BRANCH  30  32
ATOM     32  O   UNL     1       2.161  18.628  20.023  0.00  0.00    +0.000 OA
ATOM     33  H   UNL     1       1.310  19.083  20.234  0.00  0.00    +0.000 HD
ENDBRANCH  30  32
ENDBRANCH  29  30
ENDBRANCH  28  29
ENDBRANCH  27  28
ENDBRANCH  24  27
ENDBRANCH  20  21
ENDBRANCH  19  20
ENDBRANCH   2  19
TORSDOF 10
ENDMDL
MODEL 4
REMARK VINA RESULT:      -8.1      1.855      2.589
REMARK  Name = 
REMARK  12 active torsions:
REMARK  status: ('A' for Active; 'I' for Inactive)
REMARK    1  A    between atoms: C_1  and  C_2
REMARK    2  A    between atoms: C_4  and  C_5
REMARK    3  A    between atoms: C_7  and  N_8
REMARK    4  A    between atoms: N_8  and  C_25
REMARK    5  A    between atoms: C_9  and  O_11
REMARK    6  A    between atoms: O_11  and  C_12
REMARK    7  A    between atoms: C_12  and  C_13
REMARK    8  A    between atoms: C_16  and  C_17
REMARK    9  A    between atoms: C_17  and  O_18
REMARK   10  A    between atoms: O_18  and  C_19
REMARK   11  A    between atoms: C_19  and  C_20
REMARK   12  A    between atoms: C_20  and  O_22
REMARK                            x       y       z     vdW  Elec       q    Type
REMARK                         _______ _______ _______ _____ _____    ______ ____
ROOT
ATOM      1  N   UNL     1       3.026   5.916  18.979  0.00  0.00    +0.000 N 
ATOM      2  C   UNL     1       2.519   7.214  19.195  0.00  0.00    +0.000 C 
ATOM      3  O   UNL     1       1.703   7.514  20.062  0.00  0.00    +0.000 OA
ENDROOT
BRANCH   1  10
ATOM      4  C   UNL     1       5.540   4.723  14.843  0.00  0.00    +0.000 C 
ATOM      5  C   UNL     1       5.529   5.088  16.301  0.00  0.00    +0.000 A 
ATOM      6  C   UNL     1       6.722   5.186  17.022  0.00  0.00    +0.000 A 
ATOM      7  C   UNL     1       6.713   5.539  18.376  0.00  0.00    +0.000 A 
ATOM      8  C   UNL     1       7.996   5.615  19.154  0.00  0.00    +0.000 C 
ATOM      9  C   UNL     1       5.487   5.808  19.009  0.00  0.00    +0.000 A 
ATOM     10  C   UNL     1       4.274   5.696  18.312  0.00  0.00    +0.000 A 
ATOM     11  C   UNL     1       4.311   5.331  16.953  0.00  0.00    +0.000 A 
ENDBRANCH   1  10
BRANCH   1  12
ATOM     12  C   UNL     1       2.354   4.770  19.554  0.00  0.00    +0.000 A 
ATOM     13  C   UNL     1       2.533   4.451  20.915  0.00  0.00    +0.000 A 
ATOM     14  C   UNL     1       1.944   3.320  21.493  0.00  0.00    +0.000 A 
ATOM     15  C   UNL     1       1.148   2.486  20.722  0.00  0.00    +0.000 A 
ATOM     16  C   UNL     1       0.947   2.795  19.384  0.00  0.00    +0.000 A 
ATOM     17  F   UNL     1       0.184   1.985  18.636  0.00  0.00    +0.000 F 
ATOM     18  C   UNL     1       1.534   3.917  18.798  0.00  0.00    +0.000 A 
ENDBRANCH   1  12
BRANCH   2  19
ATOM     19  O   UNL     1       2.945   8.138  18.275  0.00  0.00    +0.000 OA
BRANCH  19  20
ATOM     20  C   UNL     1       1.896   8.896  17.623  0.00  0.00    +0.000 C 
BRANCH  20  21
ATOM     21  C   UNL     1       1.446  10.098  18.487  0.00  0.00    +0.000 C 
ATOM     22  C   UNL     1       2.101  11.421  18.040  0.00  0.00    +0.000 C 
ATOM     23  C   UNL     1       1.560  12.646  18.800  0.00  0.00    +0.000 C 
ATOM     24  C   UNL     1       0.025  12.721  18.747  0.00  0.00    +0.000 C 
ATOM     25  C   UNL     1      -0.579  11.410  19.261  0.00  0.00    +0.000 C 
ATOM     26  C   UNL     1      -0.084  10.217  18.454  0.00  0.00    +0.000 C 
BRANCH  24  27
ATOM     27  C   UNL     1      -0.554  13.896  19.548  0.00  0.00    +0.000 C 
BRANCH  27  28
ATOM     28  O   UNL     1       0.352  15.002  19.540  0.00  0.00    +0.000 OA
BRANCH  28  29
ATOM     29  C   UNL     1      -0.155  16.063  18.711  0.00  0.00    +0.000 C 
BRANCH  29  30
ATOM     30  C   UNL     1      -1.073  16.942  19.541  0.00  0.00    +0.000 C 
ATOM     31  O   UNL     1      -0.858  17.276  20.697  0.00  0.00    +0.000 OA
BRANCH  30  32
ATOM     32  O   UNL     1      -2.179  17.322  18.849  0.00  0.00    +0.000 OA
ATOM     33  H   UNL     1      -2.886  17.508  19.512  0.00  0.00    +0.000 HD
ENDBRANCH  30  32
ENDBRANCH  29  30
ENDBRANCH  28  29
ENDBRANCH  27  28
ENDBRANCH  24  27
ENDBRANCH  20  21
ENDBRANCH  19  20
ENDBRANCH   2  19
TORSDOF 10
ENDMDL
MODEL 5
REMARK VINA RESULT:      -8.1      2.198      2.942
REMARK  Name = 
REMARK  12 active torsions:
REMARK  status: ('A' for Active; 'I' for Inactive)
REMARK    1  A    between atoms: C_1  and  C_2
REMARK    2  A    between atoms: C_4  and  C_5
REMARK    3  A    between atoms: C_7  and  N_8
REMARK    4  A    between atoms: N_8  and  C_25
REMARK    5  A    between atoms: C_9  and  O_11
REMARK    6  A    between atoms: O_11  and  C_12
REMARK    7  A    between atoms: C_12  and  C_13
REMARK    8  A    between atoms: C_16  and  C_17
REMARK    9  A    between atoms: C_17  and  O_18
REMARK   10  A    between atoms: O_18  and  C_19
REMARK   11  A    between atoms: C_19  and  C_20
REMARK   12  A    between atoms: C_20  and  O_22
REMARK                            x       y       z     vdW  Elec       q    Type
REMARK                         _______ _______ _______ _____ _____    ______ ____
ROOT
ATOM      1  N   UNL     1       3.054   5.794  18.806  0.00  0.00    +0.000 N 
ATOM      2  C   UNL     1       2.508   7.050  19.140  0.00  0.00    +0.000 C 
ATOM      3  O   UNL     1       1.646   7.237  19.996  0.00  0.00    +0.000 OA
ENDROOT
BRANCH   1  10
ATOM      4  C   UNL     1       5.777   4.949  14.718  0.00  0.00    +0.000 C 
ATOM      5  C   UNL     1       5.694   5.235  16.190  0.00  0.00    +0.000 A 
ATOM      6  C   UNL     1       6.853   5.356  16.962  0.00  0.00    +0.000 A 
ATOM      7  C   UNL     1       6.776   5.637  18.331  0.00  0.00    +0.000 A 
ATOM      8  C   UNL     1       8.023   5.736  19.162  0.00  0.00    +0.000 C 
ATOM      9  C   UNL     1       5.515   5.809  18.928  0.00  0.00    +0.000 A 
ATOM     10  C   UNL     1       4.336   5.672  18.179  0.00  0.00    +0.000 A 
ATOM     11  C   UNL     1       4.442   5.382  16.806  0.00  0.00    +0.000 A 
ENDBRANCH   1  10
BRANCH   1  12
ATOM     12  C   UNL     1       2.385   4.579  19.219  0.00  0.00    +0.000 A 
ATOM     13  C   UNL     1       1.553   3.884  18.318  0.00  0.00    +0.000 A 
ATOM     14  C   UNL     1       0.847   2.737  18.697  0.00  0.00    +0.000 A 
ATOM     15  C   UNL     1       0.966   2.249  19.991  0.00  0.00    +0.000 A 
ATOM     16  C   UNL     1       1.793   2.911  20.887  0.00  0.00    +0.000 A 
ATOM     17  F   UNL     1       1.904   2.445  22.139  0.00  0.00    +0.000 F 
ATOM     18  C   UNL     1       2.498   4.058  20.518  0.00  0.00    +0.000 A 
ENDBRANCH   1  12
BRANCH   2  19
ATOM     19  O   UNL     1       2.952   8.079  18.349  0.00  0.00    +0.000 OA
BRANCH  19  20
ATOM     20  C   UNL     1       1.916   8.867  17.714  0.00  0.00    +0.000 C 
BRANCH  20  21
ATOM     21  C   UNL     1       1.660  10.187  18.478  0.00  0.00    +0.000 C 
ATOM     22  C   UNL     1       2.399  11.384  17.846  0.00  0.00    +0.000 C 
ATOM     23  C   UNL     1       2.047  12.727  18.512  0.00  0.00    +0.000 C 
ATOM     24  C   UNL     1       0.528  12.958  18.569  0.00  0.00    +0.000 C 
ATOM     25  C   UNL     1      -0.153  11.773  19.261  0.00  0.00    +0.000 C 
ATOM     26  C   UNL     1       0.152  10.463  18.549  0.00  0.00    +0.000 C 
BRANCH  24  27
ATOM     27  C   UNL     1       0.136  14.259  19.283  0.00  0.00    +0.000 C 
BRANCH  27  28
ATOM     28  O   UNL     1       1.232  15.177  19.286  0.00  0.00    +0.000 OA
BRANCH  28  29
ATOM     29  C   UNL     1       0.870  16.397  18.612  0.00  0.00    +0.000 C 
BRANCH  29  30
ATOM     30  C   UNL     1       2.126  17.212  18.361  0.00  0.00    +0.000 C 
ATOM     31  O   UNL     1       2.696  17.298  17.283  0.00  0.00    +0.000 OA
BRANCH  30  32
ATOM     32  O   UNL     1       2.556  17.845  19.484  0.00  0.00    +0.000 OA
ATOM     33  H   UNL     1       3.415  18.278  19.262  0.00  0.00    +0.000 HD
ENDBRANCH  30  32
ENDBRANCH  29  30
ENDBRANCH  28  29
ENDBRANCH  27  28
ENDBRANCH  24  27
ENDBRANCH  20  21
ENDBRANCH  19  20
ENDBRANCH   2  19
TORSDOF 10
ENDMDL
MODEL 6
REMARK VINA RESULT:      -8.0      1.148      2.141
REMARK  Name = 
REMARK  12 active torsions:
REMARK  status: ('A' for Active; 'I' for Inactive)
REMARK    1  A    between atoms: C_1  and  C_2
REMARK    2  A    between atoms: C_4  and  C_5
REMARK    3  A    between atoms: C_7  and  N_8
REMARK    4  A    between atoms: N_8  and  C_25
REMARK    5  A    between atoms: C_9  and  O_11
REMARK    6  A    between atoms: O_11  and  C_12
REMARK    7  A    between atoms: C_12  and  C_13
REMARK    8  A    between atoms: C_16  and  C_17
REMARK    9  A    between atoms: C_17  and  O_18
REMARK   10  A    between atoms: O_18  and  C_19
REMARK   11  A    between atoms: C_19  and  C_20
REMARK   12  A    between atoms: C_20  and  O_22
REMARK                            x       y       z     vdW  Elec       q    Type
REMARK                         _______ _______ _______ _____ _____    ______ ____
ROOT
ATOM      1  N   UNL     1       3.061   5.938  19.004  0.00  0.00    +0.000 N 
ATOM      2  C   UNL     1       2.561   7.238  19.225  0.00  0.00    +0.000 C 
ATOM      3  O   UNL     1       1.740   7.538  20.088  0.00  0.00    +0.000 OA
ENDROOT
BRANCH   1  10
ATOM      4  C   UNL     1       8.038   5.723  19.179  0.00  0.00    +0.000 C 
ATOM      5  C   UNL     1       6.757   5.628  18.399  0.00  0.00    +0.000 A 
ATOM      6  C   UNL     1       6.773   5.352  17.029  0.00  0.00    +0.000 A 
ATOM      7  C   UNL     1       5.579   5.250  16.306  0.00  0.00    +0.000 A 
ATOM      8  C   UNL     1       5.603   4.982  14.828  0.00  0.00    +0.000 C 
ATOM      9  C   UNL     1       4.354   5.416  16.973  0.00  0.00    +0.000 A 
ATOM     10  C   UNL     1       4.312   5.714  18.344  0.00  0.00    +0.000 A 
ATOM     11  C   UNL     1       5.527   5.820  19.046  0.00  0.00    +0.000 A 
ENDBRANCH   1  10
BRANCH   1  12
ATOM     12  C   UNL     1       2.379   4.793  19.569  0.00  0.00    +0.000 A 
ATOM     13  C   UNL     1       2.559   4.456  20.925  0.00  0.00    +0.000 A 
ATOM     14  C   UNL     1       1.961   3.325  21.493  0.00  0.00    +0.000 A 
ATOM     15  C   UNL     1       1.153   2.508  20.715  0.00  0.00    +0.000 A 
ATOM     16  C   UNL     1       0.951   2.834  19.381  0.00  0.00    +0.000 A 
ATOM     17  F   UNL     1       0.176   2.042  18.626  0.00  0.00    +0.000 F 
ATOM     18  C   UNL     1       1.547   3.957  18.806  0.00  0.00    +0.000 A 
ENDBRANCH   1  12
BRANCH   2  19
ATOM     19  O   UNL     1       2.997   8.165  18.313  0.00  0.00    +0.000 OA
BRANCH  19  20
ATOM     20  C   UNL     1       1.956   8.846  17.571  0.00  0.00    +0.000 C 
BRANCH  20  21
ATOM     21  C   UNL     1       1.125   9.777  18.487  0.00  0.00    +0.000 C 
ATOM     22  C   UNL     1       1.705  11.204  18.554  0.00  0.00    +0.000 C 
ATOM     23  C   UNL     1       0.816  12.177  19.349  0.00  0.00    +0.000 C 
ATOM     24  C   UNL     1      -0.636  12.172  18.842  0.00  0.00    +0.000 C 
ATOM     25  C   UNL     1      -1.188  10.743  18.855  0.00  0.00    +0.000 C 
ATOM     26  C   UNL     1      -0.333   9.810  18.008  0.00  0.00    +0.000 C 
BRANCH  24  27
ATOM     27  C   UNL     1      -1.567  13.084  19.653  0.00  0.00    +0.000 C 
BRANCH  27  28
ATOM     28  O   UNL     1      -2.649  12.329  20.207  0.00  0.00    +0.000 OA
BRANCH  28  29
ATOM     29  C   UNL     1      -3.548  13.191  20.928  0.00  0.00    +0.000 C 
BRANCH  29  30
ATOM     30  C   UNL     1      -3.048  13.343  22.354  0.00  0.00    +0.000 C 
ATOM     31  O   UNL     1      -2.792  14.410  22.892  0.00  0.00    +0.000 OA
BRANCH  30  32
ATOM     32  O   UNL     1      -2.911  12.143  22.976  0.00  0.00    +0.000 OA
ATOM     33  H   UNL     1      -3.021  12.304  23.944  0.00  0.00    +0.000 HD
ENDBRANCH  30  32
ENDBRANCH  29  30
ENDBRANCH  28  29
ENDBRANCH  27  28
ENDBRANCH  24  27
ENDBRANCH  20  21
ENDBRANCH  19  20
ENDBRANCH   2  19
TORSDOF 10
ENDMDL
MODEL 7
REMARK VINA RESULT:      -8.0      1.336      2.158
REMARK  Name = 
REMARK  12 active torsions:
REMARK  status: ('A' for Active; 'I' for Inactive)
REMARK    1  A    between atoms: C_1  and  C_2
REMARK    2  A    between atoms: C_4  and  C_5
REMARK    3  A    between atoms: C_7  and  N_8
REMARK    4  A    between atoms: N_8  and  C_25
REMARK    5  A    between atoms: C_9  and  O_11
REMARK    6  A    between atoms: O_11  and  C_12
REMARK    7  A    between atoms: C_12  and  C_13
REMARK    8  A    between atoms: C_16  and  C_17
REMARK    9  A    between atoms: C_17  and  O_18
REMARK   10  A    between atoms: O_18  and  C_19
REMARK   11  A    between atoms: C_19  and  C_20
REMARK   12  A    between atoms: C_20  and  O_22
REMARK                            x       y       z     vdW  Elec       q    Type
REMARK                         _______ _______ _______ _____ _____    ______ ____
ROOT
ATOM      1  N   UNL     1       3.098   5.676  18.835  0.00  0.00    +0.000 N 
ATOM      2  C   UNL     1       2.578   6.937  19.192  0.00  0.00    +0.000 C 
ATOM      3  O   UNL     1       1.718   7.125  20.049  0.00  0.00    +0.000 OA
ENDROOT
BRANCH   1  10
ATOM      4  C   UNL     1       8.072   5.764  19.149  0.00  0.00    +0.000 C 
ATOM      5  C   UNL     1       6.822   5.602  18.331  0.00  0.00    +0.000 A 
ATOM      6  C   UNL     1       6.892   5.348  16.959  0.00  0.00    +0.000 A 
ATOM      7  C   UNL     1       5.727   5.184  16.200  0.00  0.00    +0.000 A 
ATOM      8  C   UNL     1       5.808   4.940  14.720  0.00  0.00    +0.000 C 
ATOM      9  C   UNL     1       4.476   5.265  16.835  0.00  0.00    +0.000 A 
ATOM     10  C   UNL     1       4.379   5.539  18.208  0.00  0.00    +0.000 A 
ATOM     11  C   UNL     1       5.565   5.708  18.946  0.00  0.00    +0.000 A 
ENDBRANCH   1  10
BRANCH   1  12
ATOM     12  C   UNL     1       2.403   4.467  19.225  0.00  0.00    +0.000 A 
ATOM     13  C   UNL     1       1.547   3.815  18.314  0.00  0.00    +0.000 A 
ATOM     14  C   UNL     1       0.815   2.677  18.671  0.00  0.00    +0.000 A 
ATOM     15  C   UNL     1       0.934   2.154  19.951  0.00  0.00    +0.000 A 
ATOM     16  C   UNL     1       1.785   2.773  20.856  0.00  0.00    +0.000 A 
ATOM     17  F   UNL     1       1.895   2.273  22.095  0.00  0.00    +0.000 F 
ATOM     18  C   UNL     1       2.514   3.911  20.509  0.00  0.00    +0.000 A 
ENDBRANCH   1  12
BRANCH   2  19
ATOM     19  O   UNL     1       3.045   7.970  18.421  0.00  0.00    +0.000 OA
BRANCH  19  20
ATOM     20  C   UNL     1       2.035   8.702  17.683  0.00  0.00    +0.000 C 
BRANCH  20  21
ATOM     21  C   UNL     1       1.534   9.932  18.476  0.00  0.00    +0.000 C 
ATOM     22  C   UNL     1       2.200  11.242  18.008  0.00  0.00    +0.000 C 
ATOM     23  C   UNL     1       1.614  12.491  18.692  0.00  0.00    +0.000 C 
ATOM     24  C   UNL     1       0.083  12.549  18.564  0.00  0.00    +0.000 C 
ATOM     25  C   UNL     1      -0.535  11.254  19.100  0.00  0.00    +0.000 C 
ATOM     26  C   UNL     1       0.007  10.035  18.366  0.00  0.00    +0.000 C 
BRANCH  24  27
ATOM     27  C   UNL     1      -0.543  13.749  19.289  0.00  0.00    +0.000 C 
BRANCH  27  28
ATOM     28  O   UNL     1      -0.260  13.691  20.689  0.00  0.00    +0.000 OA
BRANCH  28  29
ATOM     29  C   UNL     1      -0.212  15.016  21.249  0.00  0.00    +0.000 C 
BRANCH  29  30
ATOM     30  C   UNL     1       0.949  15.097  22.225  0.00  0.00    +0.000 C 
ATOM     31  O   UNL     1       1.034  15.902  23.141  0.00  0.00    +0.000 OA
BRANCH  30  32
ATOM     32  O   UNL     1       1.900  14.162  21.964  0.00  0.00    +0.000 OA
ATOM     33  H   UNL     1       2.695  14.642  21.628  0.00  0.00    +0.000 HD
ENDBRANCH  30  32
ENDBRANCH  29  30
ENDBRANCH  28  29
ENDBRANCH  27  28
ENDBRANCH  24  27
ENDBRANCH  20  21
ENDBRANCH  19  20
ENDBRANCH   2  19
TORSDOF 10
ENDMDL
MODEL 8
REMARK VINA RESULT:      -8.0      1.015      1.667
REMARK  Name = 
REMARK  12 active torsions:
REMARK  status: ('A' for Active; 'I' for Inactive)
REMARK    1  A    between atoms: C_1  and  C_2
REMARK    2  A    between atoms: C_4  and  C_5
REMARK    3  A    between atoms: C_7  and  N_8
REMARK    4  A    between atoms: N_8  and  C_25
REMARK    5  A    between atoms: C_9  and  O_11
REMARK    6  A    between atoms: O_11  and  C_12
REMARK    7  A    between atoms: C_12  and  C_13
REMARK    8  A    between atoms: C_16  and  C_17
REMARK    9  A    between atoms: C_17  and  O_18
REMARK   10  A    between atoms: O_18  and  C_19
REMARK   11  A    between atoms: C_19  and  C_20
REMARK   12  A    between atoms: C_20  and  O_22
REMARK                            x       y       z     vdW  Elec       q    Type
REMARK                         _______ _______ _______ _____ _____    ______ ____
ROOT
ATOM      1  N   UNL     1       2.956   5.983  19.153  0.00  0.00    +0.000 N 
ATOM      2  C   UNL     1       2.404   7.248  19.442  0.00  0.00    +0.000 C 
ATOM      3  O   UNL     1       1.585   7.471  20.329  0.00  0.00    +0.000 OA
ENDROOT
BRANCH   1  10
ATOM      4  C   UNL     1       5.474   5.286  14.908  0.00  0.00    +0.000 C 
ATOM      5  C   UNL     1       5.462   5.478  16.398  0.00  0.00    +0.000 A 
ATOM      6  C   UNL     1       6.654   5.495  17.127  0.00  0.00    +0.000 A 
ATOM      7  C   UNL     1       6.644   5.687  18.513  0.00  0.00    +0.000 A 
ATOM      8  C   UNL     1       7.926   5.675  19.296  0.00  0.00    +0.000 C 
ATOM      9  C   UNL     1       5.417   5.877  19.172  0.00  0.00    +0.000 A 
ATOM     10  C   UNL     1       4.205   5.844  18.466  0.00  0.00    +0.000 A 
ATOM     11  C   UNL     1       4.243   5.641  17.074  0.00  0.00    +0.000 A 
ENDBRANCH   1  10
BRANCH   1  12
ATOM     12  C   UNL     1       2.332   4.784  19.671  0.00  0.00    +0.000 A 
ATOM     13  C   UNL     1       2.557   4.385  21.004  0.00  0.00    +0.000 A 
ATOM     14  C   UNL     1       2.016   3.204  21.525  0.00  0.00    +0.000 A 
ATOM     15  C   UNL     1       1.223   2.396  20.723  0.00  0.00    +0.000 A 
ATOM     16  C   UNL     1       0.977   2.782  19.413  0.00  0.00    +0.000 A 
ATOM     17  F   UNL     1       0.216   1.998  18.634  0.00  0.00    +0.000 F 
ATOM     18  C   UNL     1       1.516   3.955  18.884  0.00  0.00    +0.000 A 
ENDBRANCH   1  12
BRANCH   2  19
ATOM     19  O   UNL     1       2.786   8.234  18.569  0.00  0.00    +0.000 OA
BRANCH  19  20
ATOM     20  C   UNL     1       1.779   8.642  17.611  0.00  0.00    +0.000 C 
BRANCH  20  21
ATOM     21  C   UNL     1       1.182  10.023  17.970  0.00  0.00    +0.000 C 
ATOM     22  C   UNL     1       0.274   9.963  19.216  0.00  0.00    +0.000 C 
ATOM     23  C   UNL     1      -0.218  11.350  19.667  0.00  0.00    +0.000 C 
ATOM     24  C   UNL     1       0.945  12.338  19.855  0.00  0.00    +0.000 C 
ATOM     25  C   UNL     1       1.779  12.410  18.571  0.00  0.00    +0.000 C 
ATOM     26  C   UNL     1       2.313  11.040  18.178  0.00  0.00    +0.000 C 
BRANCH  24  27
ATOM     27  C   UNL     1       0.488  13.751  20.244  0.00  0.00    +0.000 C 
BRANCH  27  28
ATOM     28  O   UNL     1      -0.753  13.697  20.953  0.00  0.00    +0.000 OA
BRANCH  28  29
ATOM     29  C   UNL     1      -0.525  13.770  22.373  0.00  0.00    +0.000 C 
BRANCH  29  30
ATOM     30  C   UNL     1      -1.303  12.659  23.054  0.00  0.00    +0.000 C 
ATOM     31  O   UNL     1      -0.885  11.523  23.231  0.00  0.00    +0.000 OA
BRANCH  30  32
ATOM     32  O   UNL     1      -2.537  13.068  23.451  0.00  0.00    +0.000 OA
ATOM     33  H   UNL     1      -2.787  13.833  22.878  0.00  0.00    +0.000 HD
ENDBRANCH  30  32
ENDBRANCH  29  30
ENDBRANCH  28  29
ENDBRANCH  27  28
ENDBRANCH  24  27
ENDBRANCH  20  21
ENDBRANCH  19  20
ENDBRANCH   2  19
TORSDOF 10
ENDMDL
MODEL 9
REMARK VINA RESULT:      -8.0      2.431      3.377
REMARK  Name = 
REMARK  12 active torsions:
REMARK  status: ('A' for Active; 'I' for Inactive)
REMARK    1  A    between atoms: C_1  and  C_2
REMARK    2  A    between atoms: C_4  and  C_5
REMARK    3  A    between atoms: C_7  and  N_8
REMARK    4  A    between atoms: N_8  and  C_25
REMARK    5  A    between atoms: C_9  and  O_11
REMARK    6  A    between atoms: O_11  and  C_12
REMARK    7  A    between atoms: C_12  and  C_13
REMARK    8  A    between atoms: C_16  and  C_17
REMARK    9  A    between atoms: C_17  and  O_18
REMARK   10  A    between atoms: O_18  and  C_19
REMARK   11  A    between atoms: C_19  and  C_20
REMARK   12  A    between atoms: C_20  and  O_22
REMARK                            x       y       z     vdW  Elec       q    Type
REMARK                         _______ _______ _______ _____ _____    ______ ____
ROOT
ATOM      1  N   UNL     1       2.945   5.936  19.185  0.00  0.00    +0.000 N 
ATOM      2  C   UNL     1       2.402   7.200  19.492  0.00  0.00    +0.000 C 
ATOM      3  O   UNL     1       1.596   7.418  20.393  0.00  0.00    +0.000 OA
ENDROOT
BRANCH   1  10
ATOM      4  C   UNL     1       5.402   5.167  14.916  0.00  0.00    +0.000 C 
ATOM      5  C   UNL     1       5.412   5.398  16.401  0.00  0.00    +0.000 A 
ATOM      6  C   UNL     1       6.616   5.453  17.108  0.00  0.00    +0.000 A 
ATOM      7  C   UNL     1       6.626   5.682  18.488  0.00  0.00    +0.000 A 
ATOM      8  C   UNL     1       7.922   5.711  19.248  0.00  0.00    +0.000 C 
ATOM      9  C   UNL     1       5.408   5.870  19.164  0.00  0.00    +0.000 A 
ATOM     10  C   UNL     1       4.185   5.799  18.480  0.00  0.00    +0.000 A 
ATOM     11  C   UNL     1       4.202   5.560  17.093  0.00  0.00    +0.000 A 
ENDBRANCH   1  10
BRANCH   1  12
ATOM     12  C   UNL     1       2.325   4.734  19.702  0.00  0.00    +0.000 A 
ATOM     13  C   UNL     1       2.563   4.326  21.030  0.00  0.00    +0.000 A 
ATOM     14  C   UNL     1       2.025   3.143  21.549  0.00  0.00    +0.000 A 
ATOM     15  C   UNL     1       1.222   2.342  20.749  0.00  0.00    +0.000 A 
ATOM     16  C   UNL     1       0.964   2.736  19.444  0.00  0.00    +0.000 A 
ATOM     17  F   UNL     1       0.194   1.960  18.669  0.00  0.00    +0.000 F 
ATOM     18  C   UNL     1       1.499   3.913  18.918  0.00  0.00    +0.000 A 
ENDBRANCH   1  12
BRANCH   2  19
ATOM     19  O   UNL     1       2.776   8.192  18.623  0.00  0.00    +0.000 OA
BRANCH  19  20
ATOM     20  C   UNL     1       1.754   8.618  17.687  0.00  0.00    +0.000 C 
BRANCH  20  21
ATOM     21  C   UNL     1       1.320  10.079  17.949  0.00  0.00    +0.000 C 
ATOM     22  C   UNL     1       0.520  10.228  19.259  0.00  0.00    +0.000 C 
ATOM     23  C   UNL     1       0.199  11.694  19.603  0.00  0.00    +0.000 C 
ATOM     24  C   UNL     1       1.461  12.573  19.600  0.00  0.00    +0.000 C 
ATOM     25  C   UNL     1       2.186  12.440  18.257  0.00  0.00    +0.000 C 
ATOM     26  C   UNL     1       2.554  10.992  17.965  0.00  0.00    +0.000 C 
BRANCH  24  27
ATOM     27  C   UNL     1       1.171  14.055  19.877  0.00  0.00    +0.000 C 
BRANCH  27  28
ATOM     28  O   UNL     1       2.149  14.883  19.242  0.00  0.00    +0.000 OA
BRANCH  28  29
ATOM     29  C   UNL     1       1.522  16.026  18.632  0.00  0.00    +0.000 C 
BRANCH  29  30
ATOM     30  C   UNL     1       2.571  17.100  18.405  0.00  0.00    +0.000 C 
ATOM     31  O   UNL     1       3.336  17.519  19.262  0.00  0.00    +0.000 OA
BRANCH  30  32
ATOM     32  O   UNL     1       2.566  17.555  17.125  0.00  0.00    +0.000 OA
ATOM     33  H   UNL     1       1.879  17.040  16.636  0.00  0.00    +0.000 HD
ENDBRANCH  30  32
ENDBRANCH  29  30
ENDBRANCH  28  29
ENDBRANCH  27  28
ENDBRANCH  24  27
ENDBRANCH  20  21
ENDBRANCH  19  20
ENDBRANCH   2  19
TORSDOF 10
ENDMDL
