MODEL 1
REMARK VINA RESULT:      -7.9      0.000      0.000
REMARK  Name = 
REMARK  5 active torsions:
REMARK  status: ('A' for Active; 'I' for Inactive)
REMARK    1  A    between atoms: C_1  and  C_2
REMARK    2  A    between atoms: C_7  and  C_8
REMARK    3  A    between atoms: N_14  and  C_15
REMARK    4  A    between atoms: C_16  and  C_17
REMARK    5  A    between atoms: N_20  and  C_21
REMARK                            x       y       z     vdW  Elec       q    Type
REMARK                         _______ _______ _______ _____ _____    ______ ____
ROOT
ATOM      1  C   UNL     1       4.278   4.338  16.305  0.00  0.00    +0.000 A 
ATOM      2  C   UNL     1       4.619   3.907  15.025  0.00  0.00    +0.000 A 
ATOM      3  C   UNL     1       5.851   4.350  14.545  0.00  0.00    +0.000 A 
ATOM      4  C   UNL     1       6.697   5.176  15.288  0.00  0.00    +0.000 A 
ATOM      5  N   UNL     1       7.841   5.460  14.562  0.00  0.00    +0.000 NA
ATOM      6  C   UNL     1       7.700   4.833  13.418  0.00  0.00    +0.000 A 
ATOM      7  N   UNL     1       6.521   4.151  13.365  0.00  0.00    +0.000 N 
ATOM      8  C   UNL     1       6.058   3.356  12.255  0.00  0.00    +0.000 C 
ATOM      9  C   UNL     1       6.282   5.566  16.571  0.00  0.00    +0.000 A 
ATOM     10  N   UNL     1       5.080   5.130  17.053  0.00  0.00    +0.000 NA
ENDROOT
BRANCH   1  17
ATOM     11  C   UNL     1       2.820   2.127  21.720  0.00  0.00    +0.000 C 
ATOM     12  C   UNL     1       2.607   3.481  21.095  0.00  0.00    +0.000 C 
ATOM     13  O   UNL     1       2.032   4.366  21.731  0.00  0.00    +0.000 OA
ATOM     14  N   UNL     1       3.096   3.672  19.814  0.00  0.00    +0.000 N 
ATOM     15  C   UNL     1       3.050   5.009  19.226  0.00  0.00    +0.000 C 
ATOM     16  C   UNL     1       2.373   4.983  17.858  0.00  0.00    +0.000 C 
ATOM     17  C   UNL     1       2.951   3.913  16.916  0.00  0.00    +0.000 C 
ATOM     18  C   UNL     1       3.056   2.554  17.628  0.00  0.00    +0.000 C 
ATOM     19  C   UNL     1       3.740   2.648  18.991  0.00  0.00    +0.000 C 
ENDBRANCH   1  17
BRANCH   9  20
ATOM     20  C   UNL     1       7.077   6.441  17.399  0.00  0.00    +0.000 A 
ATOM     21  C   UNL     1       7.857   6.190  18.553  0.00  0.00    +0.000 A 
ATOM     22  N   UNL     1       8.469   7.284  19.018  0.00  0.00    +0.000 NA
ATOM     23  N   UNL     1       8.090   8.242  18.153  0.00  0.00    +0.000 N 
ATOM     24  C   UNL     1       8.583   9.589  18.305  0.00  0.00    +0.000 C 
ATOM     25  C   UNL     1       7.249   7.796  17.178  0.00  0.00    +0.000 A 
ENDBRANCH   9  20
TORSDOF 2
ENDMDL
MODEL 2
REMARK VINA RESULT:      -6.4      9.828     12.267
REMARK  Name = 
REMARK  5 active torsions:
REMARK  status: ('A' for Active; 'I' for Inactive)
REMARK    1  A    between atoms: C_1  and  C_2
REMARK    2  A    between atoms: C_7  and  C_8
REMARK    3  A    between atoms: N_14  and  C_15
REMARK    4  A    between atoms: C_16  and  C_17
REMARK    5  A    between atoms: N_20  and  C_21
REMARK                            x       y       z     vdW  Elec       q    Type
REMARK                         _______ _______ _______ _____ _____    ______ ____
ROOT
ATOM      1  C   UNL     1      -1.441  11.300  19.502  0.00  0.00    +0.000 A 
ATOM      2  C   UNL     1      -1.641  10.856  18.197  0.00  0.00    +0.000 A 
ATOM      3  C   UNL     1      -2.880  11.167  17.636  0.00  0.00    +0.000 A 
ATOM      4  C   UNL     1      -3.866  11.873  18.327  0.00  0.00    +0.000 A 
ATOM      5  N   UNL     1      -4.986  12.028  17.529  0.00  0.00    +0.000 NA
ATOM      6  C   UNL     1      -4.697  11.439  16.393  0.00  0.00    +0.000 A 
ATOM      7  N   UNL     1      -3.441  10.909  16.411  0.00  0.00    +0.000 N 
ATOM      8  C   UNL     1      -2.812  10.200  15.325  0.00  0.00    +0.000 C 
ATOM      9  C   UNL     1      -3.586  12.286  19.639  0.00  0.00    +0.000 A 
ATOM     10  N   UNL     1      -2.373  11.995  20.195  0.00  0.00    +0.000 NA
ENDROOT
BRANCH   1  17
ATOM     11  C   UNL     1       3.643  14.481  20.101  0.00  0.00    +0.000 C 
ATOM     12  C   UNL     1       2.540  14.156  21.073  0.00  0.00    +0.000 C 
ATOM     13  O   UNL     1       2.602  14.570  22.232  0.00  0.00    +0.000 OA
ATOM     14  N   UNL     1       1.478  13.405  20.598  0.00  0.00    +0.000 N 
ATOM     15  C   UNL     1       0.314  13.195  21.457  0.00  0.00    +0.000 C 
ATOM     16  C   UNL     1      -0.022  11.710  21.570  0.00  0.00    +0.000 C 
ATOM     17  C   UNL     1      -0.124  11.007  20.206  0.00  0.00    +0.000 C 
ATOM     18  C   UNL     1       1.087  11.346  19.321  0.00  0.00    +0.000 C 
ATOM     19  C   UNL     1       1.371  12.845  19.251  0.00  0.00    +0.000 C 
ENDBRANCH   1  17
BRANCH   9  20
ATOM     20  C   UNL     1      -4.555  12.996  20.439  0.00  0.00    +0.000 A 
ATOM     21  C   UNL     1      -4.728  14.377  20.700  0.00  0.00    +0.000 A 
ATOM     22  N   UNL     1      -5.778  14.631  21.488  0.00  0.00    +0.000 NA
ATOM     23  N   UNL     1      -6.290  13.411  21.728  0.00  0.00    +0.000 N 
ATOM     24  C   UNL     1      -7.478  13.270  22.533  0.00  0.00    +0.000 C 
ATOM     25  C   UNL     1      -5.590  12.401  21.139  0.00  0.00    +0.000 A 
ENDBRANCH   9  20
TORSDOF 2
ENDMDL
MODEL 3
REMARK VINA RESULT:      -6.4      9.489     11.852
REMARK  Name = 
REMARK  5 active torsions:
REMARK  status: ('A' for Active; 'I' for Inactive)
REMARK    1  A    between atoms: C_1  and  C_2
REMARK    2  A    between atoms: C_7  and  C_8
REMARK    3  A    between atoms: N_14  and  C_15
REMARK    4  A    between atoms: C_16  and  C_17
REMARK    5  A    between atoms: N_20  and  C_21
REMARK                            x       y       z     vdW  Elec       q    Type
REMARK                         _______ _______ _______ _____ _____    ______ ____
ROOT
ATOM      1  C   UNL     1      -1.023  11.167  19.132  0.00  0.00    +0.000 A 
ATOM      2  C   UNL     1      -1.393  10.760  17.852  0.00  0.00    +0.000 A 
ATOM      3  C   UNL     1      -2.697  11.074  17.471  0.00  0.00    +0.000 A 
ATOM      4  C   UNL     1      -3.587  11.748  18.309  0.00  0.00    +0.000 A 
ATOM      5  N   UNL     1      -4.805  11.915  17.673  0.00  0.00    +0.000 NA
ATOM      6  C   UNL     1      -4.666  11.363  16.491  0.00  0.00    +0.000 A 
ATOM      7  N   UNL     1      -3.415  10.847  16.324  0.00  0.00    +0.000 N 
ATOM      8  C   UNL     1      -2.932  10.178  15.143  0.00  0.00    +0.000 C 
ATOM      9  C   UNL     1      -3.137  12.125  19.585  0.00  0.00    +0.000 A 
ATOM     10  N   UNL     1      -1.859  11.830  19.964  0.00  0.00    +0.000 NA
ENDROOT
BRANCH   1  17
ATOM     11  C   UNL     1       3.912  14.580  19.704  0.00  0.00    +0.000 C 
ATOM     12  C   UNL     1       2.943  14.035  20.719  0.00  0.00    +0.000 C 
ATOM     13  O   UNL     1       3.110  14.274  21.917  0.00  0.00    +0.000 OA
ATOM     14  N   UNL     1       1.878  13.289  20.242  0.00  0.00    +0.000 N 
ATOM     15  C   UNL     1       0.830  12.869  21.171  0.00  0.00    +0.000 C 
ATOM     16  C   UNL     1       0.592  11.364  21.084  0.00  0.00    +0.000 C 
ATOM     17  C   UNL     1       0.378  10.867  19.644  0.00  0.00    +0.000 C 
ATOM     18  C   UNL     1       1.463  11.421  18.706  0.00  0.00    +0.000 C 
ATOM     19  C   UNL     1       1.654  12.930  18.842  0.00  0.00    +0.000 C 
ENDBRANCH   1  17
BRANCH   9  20
ATOM     20  C   UNL     1      -3.996  12.800  20.529  0.00  0.00    +0.000 A 
ATOM     21  C   UNL     1      -5.298  12.499  20.996  0.00  0.00    +0.000 A 
ATOM     22  N   UNL     1      -5.742  13.377  21.902  0.00  0.00    +0.000 NA
ATOM     23  N   UNL     1      -4.719  14.240  22.026  0.00  0.00    +0.000 N 
ATOM     24  C   UNL     1      -4.806  15.337  22.958  0.00  0.00    +0.000 C 
ATOM     25  C   UNL     1      -3.659  13.951  21.219  0.00  0.00    +0.000 A 
ENDBRANCH   9  20
TORSDOF 2
ENDMDL
MODEL 4
REMARK VINA RESULT:      -6.4      3.429      6.755
REMARK  Name = 
REMARK  5 active torsions:
REMARK  status: ('A' for Active; 'I' for Inactive)
REMARK    1  A    between atoms: C_1  and  C_2
REMARK    2  A    between atoms: C_7  and  C_8
REMARK    3  A    between atoms: N_14  and  C_15
REMARK    4  A    between atoms: C_16  and  C_17
REMARK    5  A    between atoms: N_20  and  C_21
REMARK                            x       y       z     vdW  Elec       q    Type
REMARK                         _______ _______ _______ _____ _____    ______ ____
ROOT
ATOM      1  C   UNL     1       4.978   5.399  18.633  0.00  0.00    +0.000 A 
ATOM      2  C   UNL     1       4.569   4.290  19.370  0.00  0.00    +0.000 A 
ATOM      3  C   UNL     1       3.305   4.384  19.953  0.00  0.00    +0.000 A 
ATOM      4  C   UNL     1       2.494   5.513  19.819  0.00  0.00    +0.000 A 
ATOM      5  N   UNL     1       1.307   5.329  20.506  0.00  0.00    +0.000 NA
ATOM      6  C   UNL     1       1.388   4.134  21.041  0.00  0.00    +0.000 A 
ATOM      7  N   UNL     1       2.570   3.528  20.733  0.00  0.00    +0.000 N 
ATOM      8  C   UNL     1       2.976   2.212  21.157  0.00  0.00    +0.000 C 
ATOM      9  C   UNL     1       2.980   6.590  19.059  0.00  0.00    +0.000 A 
ATOM     10  N   UNL     1       4.212   6.503  18.476  0.00  0.00    +0.000 NA
ENDROOT
BRANCH   1  17
ATOM     11  C   UNL     1       6.844   3.504  13.223  0.00  0.00    +0.000 C 
ATOM     12  C   UNL     1       6.629   4.884  13.787  0.00  0.00    +0.000 C 
ATOM     13  O   UNL     1       6.856   5.873  13.088  0.00  0.00    +0.000 OA
ATOM     14  N   UNL     1       6.161   4.972  15.087  0.00  0.00    +0.000 N 
ATOM     15  C   UNL     1       5.793   6.281  15.625  0.00  0.00    +0.000 C 
ATOM     16  C   UNL     1       6.500   6.546  16.951  0.00  0.00    +0.000 C 
ATOM     17  C   UNL     1       6.344   5.397  17.962  0.00  0.00    +0.000 C 
ATOM     18  C   UNL     1       6.658   4.042  17.304  0.00  0.00    +0.000 C 
ATOM     19  C   UNL     1       5.922   3.839  15.981  0.00  0.00    +0.000 C 
ENDBRANCH   1  17
BRANCH   9  20
ATOM     20  C   UNL     1       2.224   7.807  18.889  0.00  0.00    +0.000 A 
ATOM     21  C   UNL     1       1.912   8.567  17.736  0.00  0.00    +0.000 A 
ATOM     22  N   UNL     1       1.155   9.636  18.005  0.00  0.00    +0.000 NA
ATOM     23  N   UNL     1       0.970   9.559  19.334  0.00  0.00    +0.000 N 
ATOM     24  C   UNL     1       0.158  10.542  20.010  0.00  0.00    +0.000 C 
ATOM     25  C   UNL     1       1.598   8.497  19.913  0.00  0.00    +0.000 A 
ENDBRANCH   9  20
TORSDOF 2
ENDMDL
MODEL 5
REMARK VINA RESULT:      -6.4      9.705     12.303
REMARK  Name = 
REMARK  5 active torsions:
REMARK  status: ('A' for Active; 'I' for Inactive)
REMARK    1  A    between atoms: C_1  and  C_2
REMARK    2  A    between atoms: C_7  and  C_8
REMARK    3  A    between atoms: N_14  and  C_15
REMARK    4  A    between atoms: C_16  and  C_17
REMARK    5  A    between atoms: N_20  and  C_21
REMARK                            x       y       z     vdW  Elec       q    Type
REMARK                         _______ _______ _______ _____ _____    ______ ____
ROOT
ATOM      1  C   UNL     1       0.094  12.477  19.911  0.00  0.00    +0.000 A 
ATOM      2  C   UNL     1       0.604  11.192  20.084  0.00  0.00    +0.000 A 
ATOM      3  C   UNL     1       0.325  10.591  21.311  0.00  0.00    +0.000 A 
ATOM      4  C   UNL     1      -0.413  11.225  22.313  0.00  0.00    +0.000 A 
ATOM      5  N   UNL     1      -0.524  10.398  23.416  0.00  0.00    +0.000 NA
ATOM      6  C   UNL     1       0.121   9.299  23.103  0.00  0.00    +0.000 A 
ATOM      7  N   UNL     1       0.646   9.369  21.847  0.00  0.00    +0.000 N 
ATOM      8  C   UNL     1       1.407   8.334  21.194  0.00  0.00    +0.000 C 
ATOM      9  C   UNL     1      -0.892  12.520  22.061  0.00  0.00    +0.000 A 
ATOM     10  N   UNL     1      -0.633  13.115  20.858  0.00  0.00    +0.000 NA
ENDROOT
BRANCH   1  17
ATOM     11  C   UNL     1       1.283  18.261  18.699  0.00  0.00    +0.000 C 
ATOM     12  C   UNL     1       2.151  17.031  18.684  0.00  0.00    +0.000 C 
ATOM     13  O   UNL     1       3.340  17.124  18.373  0.00  0.00    +0.000 OA
ATOM     14  N   UNL     1       1.559  15.832  19.045  0.00  0.00    +0.000 N 
ATOM     15  C   UNL     1       2.394  14.641  19.193  0.00  0.00    +0.000 C 
ATOM     16  C   UNL     1       1.845  13.481  18.367  0.00  0.00    +0.000 C 
ATOM     17  C   UNL     1       0.348  13.221  18.609  0.00  0.00    +0.000 C 
ATOM     18  C   UNL     1      -0.456  14.529  18.529  0.00  0.00    +0.000 C 
ATOM     19  C   UNL     1       0.145  15.650  19.374  0.00  0.00    +0.000 C 
ENDBRANCH   1  17
BRANCH   9  20
ATOM     20  C   UNL     1      -1.639  13.264  23.047  0.00  0.00    +0.000 A 
ATOM     21  C   UNL     1      -2.956  13.107  23.542  0.00  0.00    +0.000 A 
ATOM     22  N   UNL     1      -3.268  14.003  24.485  0.00  0.00    +0.000 NA
ATOM     23  N   UNL     1      -2.145  14.733  24.604  0.00  0.00    +0.000 N 
ATOM     24  C   UNL     1      -2.077  15.803  25.569  0.00  0.00    +0.000 C 
ATOM     25  C   UNL     1      -1.149  14.344  23.760  0.00  0.00    +0.000 A 
ENDBRANCH   9  20
TORSDOF 2
ENDMDL
MODEL 6
REMARK VINA RESULT:      -6.3      8.571     11.455
REMARK  Name = 
REMARK  5 active torsions:
REMARK  status: ('A' for Active; 'I' for Inactive)
REMARK    1  A    between atoms: C_1  and  C_2
REMARK    2  A    between atoms: C_7  and  C_8
REMARK    3  A    between atoms: N_14  and  C_15
REMARK    4  A    between atoms: C_16  and  C_17
REMARK    5  A    between atoms: N_20  and  C_21
REMARK                            x       y       z     vdW  Elec       q    Type
REMARK                         _______ _______ _______ _____ _____    ______ ____
ROOT
ATOM      1  C   UNL     1      -0.672  11.792  20.613  0.00  0.00    +0.000 A 
ATOM      2  C   UNL     1      -1.307  12.370  21.709  0.00  0.00    +0.000 A 
ATOM      3  C   UNL     1      -2.663  12.651  21.543  0.00  0.00    +0.000 A 
ATOM      4  C   UNL     1      -3.352  12.379  20.359  0.00  0.00    +0.000 A 
ATOM      5  N   UNL     1      -4.674  12.767  20.479  0.00  0.00    +0.000 NA
ATOM      6  C   UNL     1      -4.792  13.258  21.690  0.00  0.00    +0.000 A 
ATOM      7  N   UNL     1      -3.609  13.207  22.367  0.00  0.00    +0.000 N 
ATOM      8  C   UNL     1      -3.393  13.659  23.717  0.00  0.00    +0.000 C 
ATOM      9  C   UNL     1      -2.639  11.794  19.300  0.00  0.00    +0.000 A 
ATOM     10  N   UNL     1      -1.313  11.507  19.455  0.00  0.00    +0.000 NA
ENDROOT
BRANCH   1  17
ATOM     11  C   UNL     1       2.385   6.687  19.645  0.00  0.00    +0.000 C 
ATOM     12  C   UNL     1       2.263   7.954  18.841  0.00  0.00    +0.000 C 
ATOM     13  O   UNL     1       2.868   8.064  17.773  0.00  0.00    +0.000 OA
ATOM     14  N   UNL     1       1.442   8.949  19.346  0.00  0.00    +0.000 N 
ATOM     15  C   UNL     1       1.172  10.132  18.530  0.00  0.00    +0.000 C 
ATOM     16  C   UNL     1       1.474  11.412  19.304  0.00  0.00    +0.000 C 
ATOM     17  C   UNL     1       0.809  11.452  20.691  0.00  0.00    +0.000 C 
ATOM     18  C   UNL     1       1.058  10.142  21.457  0.00  0.00    +0.000 C 
ATOM     19  C   UNL     1       0.739   8.899  20.628  0.00  0.00    +0.000 C 
ENDBRANCH   1  17
BRANCH   9  20
ATOM     20  C   UNL     1      -3.260  11.504  18.030  0.00  0.00    +0.000 A 
ATOM     21  C   UNL     1      -4.578  11.717  17.558  0.00  0.00    +0.000 A 
ATOM     22  N   UNL     1      -4.748  11.322  16.292  0.00  0.00    +0.000 NA
ATOM     23  N   UNL     1      -3.534  10.862  15.944  0.00  0.00    +0.000 N 
ATOM     24  C   UNL     1      -3.303  10.367  14.608  0.00  0.00    +0.000 C 
ATOM     25  C   UNL     1      -2.614  10.934  16.947  0.00  0.00    +0.000 A 
ENDBRANCH   9  20
TORSDOF 2
ENDMDL
MODEL 7
REMARK VINA RESULT:      -6.3      9.254     12.018
REMARK  Name = 
REMARK  5 active torsions:
REMARK  status: ('A' for Active; 'I' for Inactive)
REMARK    1  A    between atoms: C_1  and  C_2
REMARK    2  A    between atoms: C_7  and  C_8
REMARK    3  A    between atoms: N_14  and  C_15
REMARK    4  A    between atoms: C_16  and  C_17
REMARK    5  A    between atoms: N_20  and  C_21
REMARK                            x       y       z     vdW  Elec       q    Type
REMARK                         _______ _______ _______ _____ _____    ______ ____
ROOT
ATOM      1  C   UNL     1       0.105  12.562  19.985  0.00  0.00    +0.000 A 
ATOM      2  C   UNL     1       0.566  11.256  20.126  0.00  0.00    +0.000 A 
ATOM      3  C   UNL     1       0.228  10.621  21.322  0.00  0.00    +0.000 A 
ATOM      4  C   UNL     1      -0.520  11.245  22.322  0.00  0.00    +0.000 A 
ATOM      5  N   UNL     1      -0.695  10.384  23.391  0.00  0.00    +0.000 NA
ATOM      6  C   UNL     1      -0.077   9.275  23.059  0.00  0.00    +0.000 A 
ATOM      7  N   UNL     1       0.490   9.371  21.822  0.00  0.00    +0.000 N 
ATOM      8  C   UNL     1       1.238   8.335  21.157  0.00  0.00    +0.000 C 
ATOM      9  C   UNL     1      -0.949  12.564  22.102  0.00  0.00    +0.000 A 
ATOM     10  N   UNL     1      -0.631  13.191  20.931  0.00  0.00    +0.000 NA
ENDROOT
BRANCH   1  17
ATOM     11  C   UNL     1       4.175  16.838  18.765  0.00  0.00    +0.000 C 
ATOM     12  C   UNL     1       4.098  15.383  18.382  0.00  0.00    +0.000 C 
ATOM     13  O   UNL     1       4.985  14.885  17.686  0.00  0.00    +0.000 OA
ATOM     14  N   UNL     1       3.017  14.659  18.857  0.00  0.00    +0.000 N 
ATOM     15  C   UNL     1       2.979  13.214  18.641  0.00  0.00    +0.000 C 
ATOM     16  C   UNL     1       1.664  12.793  17.991  0.00  0.00    +0.000 C 
ATOM     17  C   UNL     1       0.425  13.343  18.719  0.00  0.00    +0.000 C 
ATOM     18  C   UNL     1       0.574  14.848  18.994  0.00  0.00    +0.000 C 
ATOM     19  C   UNL     1       1.910  15.205  19.642  0.00  0.00    +0.000 C 
ENDBRANCH   1  17
BRANCH   9  20
ATOM     20  C   UNL     1      -1.702  13.297  23.091  0.00  0.00    +0.000 A 
ATOM     21  C   UNL     1      -3.021  13.135  23.578  0.00  0.00    +0.000 A 
ATOM     22  N   UNL     1      -3.340  14.022  24.527  0.00  0.00    +0.000 NA
ATOM     23  N   UNL     1      -2.218  14.751  24.659  0.00  0.00    +0.000 N 
ATOM     24  C   UNL     1      -2.156  15.812  25.635  0.00  0.00    +0.000 C 
ATOM     25  C   UNL     1      -1.217  14.371  23.818  0.00  0.00    +0.000 A 
ENDBRANCH   9  20
TORSDOF 2
ENDMDL
MODEL 8
REMARK VINA RESULT:      -6.3      8.579     10.824
REMARK  Name = 
REMARK  5 active torsions:
REMARK  status: ('A' for Active; 'I' for Inactive)
REMARK    1  A    between atoms: C_1  and  C_2
REMARK    2  A    between atoms: C_7  and  C_8
REMARK    3  A    between atoms: N_14  and  C_15
REMARK    4  A    between atoms: C_16  and  C_17
REMARK    5  A    between atoms: N_20  and  C_21
REMARK                            x       y       z     vdW  Elec       q    Type
REMARK                         _______ _______ _______ _____ _____    ______ ____
ROOT
ATOM      1  C   UNL     1      -0.617  11.392  19.158  0.00  0.00    +0.000 A 
ATOM      2  C   UNL     1      -1.084  11.018  17.901  0.00  0.00    +0.000 A 
ATOM      3  C   UNL     1      -2.437  11.261  17.660  0.00  0.00    +0.000 A 
ATOM      4  C   UNL     1      -3.280  11.838  18.611  0.00  0.00    +0.000 A 
ATOM      5  N   UNL     1      -4.562  11.952  18.103  0.00  0.00    +0.000 NA
ATOM      6  C   UNL     1      -4.506  11.462  16.886  0.00  0.00    +0.000 A 
ATOM      7  N   UNL     1      -3.248  11.038  16.577  0.00  0.00    +0.000 N 
ATOM      8  C   UNL     1      -2.842  10.454  15.324  0.00  0.00    +0.000 C 
ATOM      9  C   UNL     1      -2.732  12.188  19.856  0.00  0.00    +0.000 A 
ATOM     10  N   UNL     1      -1.407  11.962  20.098  0.00  0.00    +0.000 NA
ENDROOT
BRANCH   1  17
ATOM     11  C   UNL     1       2.648   6.381  19.907  0.00  0.00    +0.000 C 
ATOM     12  C   UNL     1       2.620   7.408  18.806  0.00  0.00    +0.000 C 
ATOM     13  O   UNL     1       3.373   7.290  17.838  0.00  0.00    +0.000 OA
ATOM     14  N   UNL     1       1.715   8.449  18.933  0.00  0.00    +0.000 N 
ATOM     15  C   UNL     1       1.543   9.383  17.822  0.00  0.00    +0.000 C 
ATOM     16  C   UNL     1       1.703  10.827  18.291  0.00  0.00    +0.000 C 
ATOM     17  C   UNL     1       0.843  11.164  19.520  0.00  0.00    +0.000 C 
ATOM     18  C   UNL     1       1.003  10.092  20.612  0.00  0.00    +0.000 C 
ATOM     19  C   UNL     1       0.833   8.671  20.079  0.00  0.00    +0.000 C 
ENDBRANCH   1  17
BRANCH   9  20
ATOM     20  C   UNL     1      -3.534  12.763  20.909  0.00  0.00    +0.000 A 
ATOM     21  C   UNL     1      -4.664  13.615  20.871  0.00  0.00    +0.000 A 
ATOM     22  N   UNL     1      -5.138  13.908  22.087  0.00  0.00    +0.000 NA
ATOM     23  N   UNL     1      -4.316  13.235  22.911  0.00  0.00    +0.000 N 
ATOM     24  C   UNL     1      -4.529  13.275  24.337  0.00  0.00    +0.000 C 
ATOM     25  C   UNL     1      -3.334  12.548  22.261  0.00  0.00    +0.000 A 
ENDBRANCH   9  20
TORSDOF 2
ENDMDL
MODEL 9
REMARK VINA RESULT:      -6.2      9.468     11.957
REMARK  Name = 
REMARK  5 active torsions:
REMARK  status: ('A' for Active; 'I' for Inactive)
REMARK    1  A    between atoms: C_1  and  C_2
REMARK    2  A    between atoms: C_7  and  C_8
REMARK    3  A    between atoms: N_14  and  C_15
REMARK    4  A    between atoms: C_16  and  C_17
REMARK    5  A    between atoms: N_20  and  C_21
REMARK                            x       y       z     vdW  Elec       q    Type
REMARK                         _______ _______ _______ _____ _____    ______ ____
ROOT
ATOM      1  C   UNL     1      -0.708  11.425  19.308  0.00  0.00    +0.000 A 
ATOM      2  C   UNL     1      -1.182  10.875  18.119  0.00  0.00    +0.000 A 
ATOM      3  C   UNL     1      -2.525  11.120  17.832  0.00  0.00    +0.000 A 
ATOM      4  C   UNL     1      -3.354  11.864  18.674  0.00  0.00    +0.000 A 
ATOM      5  N   UNL     1      -4.629  11.937  18.143  0.00  0.00    +0.000 NA
ATOM      6  C   UNL     1      -4.583  11.263  17.017  0.00  0.00    +0.000 A 
ATOM      7  N   UNL     1      -3.338  10.757  16.789  0.00  0.00    +0.000 N 
ATOM      8  C   UNL     1      -2.946   9.974  15.645  0.00  0.00    +0.000 C 
ATOM      9  C   UNL     1      -2.799  12.385  19.855  0.00  0.00    +0.000 A 
ATOM     10  N   UNL     1      -1.483  12.159  20.140  0.00  0.00    +0.000 NA
ENDROOT
BRANCH   1  17
ATOM     11  C   UNL     1       4.324  14.560  18.221  0.00  0.00    +0.000 C 
ATOM     12  C   UNL     1       3.488  14.399  19.463  0.00  0.00    +0.000 C 
ATOM     13  O   UNL     1       3.817  14.973  20.502  0.00  0.00    +0.000 OA
ATOM     14  N   UNL     1       2.355  13.608  19.365  0.00  0.00    +0.000 N 
ATOM     15  C   UNL     1       1.431  13.546  20.497  0.00  0.00    +0.000 C 
ATOM     16  C   UNL     1       1.155  12.099  20.899  0.00  0.00    +0.000 C 
ATOM     17  C   UNL     1       0.742  11.210  19.713  0.00  0.00    +0.000 C 
ATOM     18  C   UNL     1       1.704  11.395  18.528  0.00  0.00    +0.000 C 
ATOM     19  C   UNL     1       1.940  12.863  18.177  0.00  0.00    +0.000 C 
ENDBRANCH   1  17
BRANCH   9  20
ATOM     20  C   UNL     1      -3.587  13.141  20.799  0.00  0.00    +0.000 A 
ATOM     21  C   UNL     1      -3.850  14.528  20.905  0.00  0.00    +0.000 A 
ATOM     22  N   UNL     1      -4.661  14.829  21.925  0.00  0.00    +0.000 NA
ATOM     23  N   UNL     1      -4.930  13.630  22.471  0.00  0.00    +0.000 N 
ATOM     24  C   UNL     1      -5.819  13.533  23.603  0.00  0.00    +0.000 C 
ATOM     25  C   UNL     1      -4.303  12.593  21.848  0.00  0.00    +0.000 A 
ENDBRANCH   9  20
TORSDOF 2
ENDMDL
