MODEL 1
REMARK VINA RESULT:      -5.7      0.000      0.000
REMARK  Name = 
REMARK  21 active torsions:
REMARK  status: ('A' for Active; 'I' for Inactive)
REMARK    1  A    between atoms: C_1  and  C_2
REMARK    2  A    between atoms: C_2  and  C_3
REMARK    3  A    between atoms: C_3  and  C_4
REMARK    4  A    between atoms: C_4  and  C_5
REMARK    5  A    between atoms: C_5  and  C_6
REMARK    6  A    between atoms: C_6  and  C_7
REMARK    7  A    between atoms: C_7  and  C_8
REMARK    8  A    between atoms: C_8  and  C_9
REMARK    9  A    between atoms: C_9  and  C_10
REMARK   10  A    between atoms: C_10  and  C_11
REMARK   11  A    between atoms: C_11  and  C_12
REMARK   12  A    between atoms: C_12  and  C_13
REMARK   13  A    between atoms: C_13  and  C_14
REMARK   14  A    between atoms: C_14  and  C_15
REMARK   15  A    between atoms: C_15  and  C_16
REMARK   16  A    between atoms: C_16  and  C_17
REMARK   17  A    between atoms: C_17  and  C_18
REMARK   18  A    between atoms: C_18  and  S_19
REMARK   19  A    between atoms: S_19  and  C_21
REMARK   20  A    between atoms: C_22  and  C_23
REMARK   21  A    between atoms: C_27  and  C_28
REMARK                            x       y       z     vdW  Elec       q    Type
REMARK                         _______ _______ _______ _____ _____    ______ ____
ROOT
ATOM      1  C   UNL     1       0.880   7.131  20.576  0.00  0.00    +0.000 C 
ENDROOT
BRANCH   1   2
ATOM      2  C   UNL     1       1.139   8.295  21.522  0.00  0.00    +0.000 C 
BRANCH   2   3
ATOM      3  C   UNL     1      -0.160   8.782  22.158  0.00  0.00    +0.000 C 
BRANCH   3   4
ATOM      4  C   UNL     1      -0.378  10.252  21.824  0.00  0.00    +0.000 C 
BRANCH   4   5
ATOM      5  C   UNL     1       0.859  10.900  21.206  0.00  0.00    +0.000 C 
BRANCH   5   6
ATOM      6  S   UNL     1       0.305  12.275  20.146  0.00  0.00    +0.000 S 
ATOM      7  O   UNL     1       1.517  12.700  19.250  0.00  0.00    +0.000 OA
BRANCH   6   8
ATOM      8  C   UNL     1      -0.926  11.404  19.130  0.00  0.00    +0.000 A 
ATOM      9  C   UNL     1      -2.271  11.851  19.173  0.00  0.00    +0.000 A 
ATOM     10  C   UNL     1      -2.792  12.973  20.039  0.00  0.00    +0.000 C 
ATOM     11  C   UNL     1      -3.230  11.252  18.335  0.00  0.00    +0.000 A 
ATOM     12  C   UNL     1      -2.876  10.238  17.458  0.00  0.00    +0.000 A 
ATOM     13  C   UNL     1      -1.566   9.798  17.412  0.00  0.00    +0.000 A 
ATOM     14  C   UNL     1      -0.573  10.357  18.237  0.00  0.00    +0.000 A 
ATOM     15  C   UNL     1       0.814   9.799  18.076  0.00  0.00    +0.000 C 
ENDBRANCH   6   8
ENDBRANCH   5   6
ENDBRANCH   4   5
ENDBRANCH   3   4
ENDBRANCH   2   3
ENDBRANCH   1   2
BRANCH   1  16
ATOM     16  C   UNL     1       2.193   6.482  20.158  0.00  0.00    +0.000 C 
BRANCH  16  17
ATOM     17  C   UNL     1       2.302   5.085  20.751  0.00  0.00    +0.000 C 
BRANCH  17  18
ATOM     18  C   UNL     1       0.999   4.323  20.565  0.00  0.00    +0.000 C 
BRANCH  18  19
ATOM     19  C   UNL     1       1.283   2.854  20.293  0.00  0.00    +0.000 C 
BRANCH  19  20
ATOM     20  C   UNL     1       2.737   2.664  19.888  0.00  0.00    +0.000 C 
BRANCH  20  21
ATOM     21  C   UNL     1       2.845   1.633  18.775  0.00  0.00    +0.000 C 
BRANCH  21  22
ATOM     22  C   UNL     1       2.622   2.292  17.422  0.00  0.00    +0.000 C 
BRANCH  22  23
ATOM     23  C   UNL     1       3.209   3.697  17.416  0.00  0.00    +0.000 C 
BRANCH  23  24
ATOM     24  C   UNL     1       4.590   3.694  16.775  0.00  0.00    +0.000 C 
BRANCH  24  25
ATOM     25  C   UNL     1       5.528   4.640  17.517  0.00  0.00    +0.000 C 
BRANCH  25  26
ATOM     26  C   UNL     1       6.081   5.696  16.568  0.00  0.00    +0.000 C 
BRANCH  26  28
ATOM     27  C   UNL     1       4.251   7.256  17.275  0.00  0.00    +0.000 C 
ATOM     28  C   UNL     1       4.978   6.638  16.094  0.00  0.00    +0.000 C 
ENDBRANCH  26  28
ENDBRANCH  25  26
ENDBRANCH  24  25
ENDBRANCH  23  24
ENDBRANCH  22  23
ENDBRANCH  21  22
ENDBRANCH  20  21
ENDBRANCH  19  20
ENDBRANCH  18  19
ENDBRANCH  17  18
ENDBRANCH  16  17
ENDBRANCH   1  16
TORSDOF 18
ENDMDL
MODEL 2
REMARK VINA RESULT:      -5.5      5.855      9.770
REMARK  Name = 
REMARK  21 active torsions:
REMARK  status: ('A' for Active; 'I' for Inactive)
REMARK    1  A    between atoms: C_1  and  C_2
REMARK    2  A    between atoms: C_2  and  C_3
REMARK    3  A    between atoms: C_3  and  C_4
REMARK    4  A    between atoms: C_4  and  C_5
REMARK    5  A    between atoms: C_5  and  C_6
REMARK    6  A    between atoms: C_6  and  C_7
REMARK    7  A    between atoms: C_7  and  C_8
REMARK    8  A    between atoms: C_8  and  C_9
REMARK    9  A    between atoms: C_9  and  C_10
REMARK   10  A    between atoms: C_10  and  C_11
REMARK   11  A    between atoms: C_11  and  C_12
REMARK   12  A    between atoms: C_12  and  C_13
REMARK   13  A    between atoms: C_13  and  C_14
REMARK   14  A    between atoms: C_14  and  C_15
REMARK   15  A    between atoms: C_15  and  C_16
REMARK   16  A    between atoms: C_16  and  C_17
REMARK   17  A    between atoms: C_17  and  C_18
REMARK   18  A    between atoms: C_18  and  S_19
REMARK   19  A    between atoms: S_19  and  C_21
REMARK   20  A    between atoms: C_22  and  C_23
REMARK   21  A    between atoms: C_27  and  C_28
REMARK                            x       y       z     vdW  Elec       q    Type
REMARK                         _______ _______ _______ _____ _____    ______ ____
ROOT
ATOM      1  C   UNL     1       7.183   7.402  17.762  0.00  0.00    +0.000 C 
ENDROOT
BRANCH   1   2
ATOM      2  C   UNL     1       8.215   6.592  18.532  0.00  0.00    +0.000 C 
BRANCH   2   3
ATOM      3  C   UNL     1       7.543   5.684  19.558  0.00  0.00    +0.000 C 
BRANCH   3   4
ATOM      4  C   UNL     1       6.054   5.575  19.254  0.00  0.00    +0.000 C 
BRANCH   4   5
ATOM      5  C   UNL     1       5.727   4.385  18.357  0.00  0.00    +0.000 C 
BRANCH   5   6
ATOM      6  S   UNL     1       4.132   4.717  17.538  0.00  0.00    +0.000 S 
ATOM      7  O   UNL     1       4.031   3.769  16.295  0.00  0.00    +0.000 OA
BRANCH   6   8
ATOM      8  C   UNL     1       2.995   4.142  18.835  0.00  0.00    +0.000 A 
ATOM      9  C   UNL     1       2.295   5.114  19.595  0.00  0.00    +0.000 A 
ATOM     10  C   UNL     1       2.448   6.609  19.455  0.00  0.00    +0.000 C 
ATOM     11  C   UNL     1       1.345   4.700  20.548  0.00  0.00    +0.000 A 
ATOM     12  C   UNL     1       1.075   3.354  20.747  0.00  0.00    +0.000 A 
ATOM     13  C   UNL     1       1.755   2.402  20.009  0.00  0.00    +0.000 A 
ATOM     14  C   UNL     1       2.721   2.765  19.053  0.00  0.00    +0.000 A 
ATOM     15  C   UNL     1       3.375   1.633  18.308  0.00  0.00    +0.000 C 
ENDBRANCH   6   8
ENDBRANCH   5   6
ENDBRANCH   4   5
ENDBRANCH   3   4
ENDBRANCH   2   3
ENDBRANCH   1   2
BRANCH   1  16
ATOM     16  C   UNL     1       7.622   8.856  17.651  0.00  0.00    +0.000 C 
BRANCH  16  17
ATOM     17  C   UNL     1       8.792   9.126  18.586  0.00  0.00    +0.000 C 
BRANCH  17  18
ATOM     18  C   UNL     1       9.016  10.622  18.744  0.00  0.00    +0.000 C 
BRANCH  18  19
ATOM     19  C   UNL     1      10.210  11.065  17.912  0.00  0.00    +0.000 C 
BRANCH  19  20
ATOM     20  C   UNL     1      10.461  12.553  18.101  0.00  0.00    +0.000 C 
BRANCH  20  21
ATOM     21  C   UNL     1       9.375  13.165  18.972  0.00  0.00    +0.000 C 
BRANCH  21  22
ATOM     22  C   UNL     1       9.950  14.291  19.819  0.00  0.00    +0.000 C 
BRANCH  22  23
ATOM     23  C   UNL     1      10.263  13.790  21.222  0.00  0.00    +0.000 C 
BRANCH  23  24
ATOM     24  C   UNL     1       9.320  12.658  21.605  0.00  0.00    +0.000 C 
BRANCH  24  25
ATOM     25  C   UNL     1       8.149  13.189  22.424  0.00  0.00    +0.000 C 
BRANCH  25  26
ATOM     26  C   UNL     1       8.363  12.906  23.907  0.00  0.00    +0.000 C 
BRANCH  26  28
ATOM     27  C   UNL     1       6.990  11.770  25.670  0.00  0.00    +0.000 C 
ATOM     28  C   UNL     1       7.670  11.611  24.322  0.00  0.00    +0.000 C 
ENDBRANCH  26  28
ENDBRANCH  25  26
ENDBRANCH  24  25
ENDBRANCH  23  24
ENDBRANCH  22  23
ENDBRANCH  21  22
ENDBRANCH  20  21
ENDBRANCH  19  20
ENDBRANCH  18  19
ENDBRANCH  17  18
ENDBRANCH  16  17
ENDBRANCH   1  16
TORSDOF 18
ENDMDL
MODEL 3
REMARK VINA RESULT:      -5.4      1.182      2.192
REMARK  Name = 
REMARK  21 active torsions:
REMARK  status: ('A' for Active; 'I' for Inactive)
REMARK    1  A    between atoms: C_1  and  C_2
REMARK    2  A    between atoms: C_2  and  C_3
REMARK    3  A    between atoms: C_3  and  C_4
REMARK    4  A    between atoms: C_4  and  C_5
REMARK    5  A    between atoms: C_5  and  C_6
REMARK    6  A    between atoms: C_6  and  C_7
REMARK    7  A    between atoms: C_7  and  C_8
REMARK    8  A    between atoms: C_8  and  C_9
REMARK    9  A    between atoms: C_9  and  C_10
REMARK   10  A    between atoms: C_10  and  C_11
REMARK   11  A    between atoms: C_11  and  C_12
REMARK   12  A    between atoms: C_12  and  C_13
REMARK   13  A    between atoms: C_13  and  C_14
REMARK   14  A    between atoms: C_14  and  C_15
REMARK   15  A    between atoms: C_15  and  C_16
REMARK   16  A    between atoms: C_16  and  C_17
REMARK   17  A    between atoms: C_17  and  C_18
REMARK   18  A    between atoms: C_18  and  S_19
REMARK   19  A    between atoms: S_19  and  C_21
REMARK   20  A    between atoms: C_22  and  C_23
REMARK   21  A    between atoms: C_27  and  C_28
REMARK                            x       y       z     vdW  Elec       q    Type
REMARK                         _______ _______ _______ _____ _____    ______ ____
ROOT
ATOM      1  C   UNL     1       1.198   7.982  21.294  0.00  0.00    +0.000 C 
ENDROOT
BRANCH   1   2
ATOM      2  C   UNL     1       0.169   9.083  21.078  0.00  0.00    +0.000 C 
BRANCH   2   3
ATOM      3  C   UNL     1      -0.451   9.520  22.402  0.00  0.00    +0.000 C 
BRANCH   3   4
ATOM      4  C   UNL     1      -0.884  10.977  22.312  0.00  0.00    +0.000 C 
BRANCH   4   5
ATOM      5  C   UNL     1       0.110  11.835  21.535  0.00  0.00    +0.000 C 
BRANCH   5   6
ATOM      6  S   UNL     1      -0.835  13.045  20.553  0.00  0.00    +0.000 S 
ATOM      7  O   UNL     1       0.193  14.020  19.884  0.00  0.00    +0.000 OA
BRANCH   6   8
ATOM      8  C   UNL     1      -1.532  11.938  19.290  0.00  0.00    +0.000 A 
ATOM      9  C   UNL     1      -0.638  11.156  18.515  0.00  0.00    +0.000 A 
ATOM     10  C   UNL     1       0.868  11.197  18.610  0.00  0.00    +0.000 C 
ATOM     11  C   UNL     1      -1.151  10.227  17.589  0.00  0.00    +0.000 A 
ATOM     12  C   UNL     1      -2.518  10.057  17.433  0.00  0.00    +0.000 A 
ATOM     13  C   UNL     1      -3.394  10.818  18.186  0.00  0.00    +0.000 A 
ATOM     14  C   UNL     1      -2.932  11.766  19.116  0.00  0.00    +0.000 A 
ATOM     15  C   UNL     1      -3.988  12.514  19.882  0.00  0.00    +0.000 C 
ENDBRANCH   6   8
ENDBRANCH   5   6
ENDBRANCH   4   5
ENDBRANCH   3   4
ENDBRANCH   2   3
ENDBRANCH   1   2
BRANCH   1  16
ATOM     16  C   UNL     1       1.908   7.652  19.988  0.00  0.00    +0.000 C 
BRANCH  16  17
ATOM     17  C   UNL     1       2.313   6.185  19.964  0.00  0.00    +0.000 C 
BRANCH  17  18
ATOM     18  C   UNL     1       1.461   5.382  20.935  0.00  0.00    +0.000 C 
BRANCH  18  19
ATOM     19  C   UNL     1       1.805   3.903  20.836  0.00  0.00    +0.000 C 
BRANCH  19  20
ATOM     20  C   UNL     1       0.983   3.243  19.739  0.00  0.00    +0.000 C 
BRANCH  20  21
ATOM     21  C   UNL     1       1.715   2.026  19.192  0.00  0.00    +0.000 C 
BRANCH  21  22
ATOM     22  C   UNL     1       3.031   2.446  18.553  0.00  0.00    +0.000 C 
BRANCH  22  23
ATOM     23  C   UNL     1       2.772   3.187  17.249  0.00  0.00    +0.000 C 
BRANCH  23  24
ATOM     24  C   UNL     1       3.604   4.461  17.187  0.00  0.00    +0.000 C 
BRANCH  24  25
ATOM     25  C   UNL     1       5.027   4.196  17.665  0.00  0.00    +0.000 C 
BRANCH  25  26
ATOM     26  C   UNL     1       5.704   5.499  18.075  0.00  0.00    +0.000 C 
BRANCH  26  28
ATOM     27  C   UNL     1       7.907   6.555  18.634  0.00  0.00    +0.000 C 
ATOM     28  C   UNL     1       7.140   5.250  18.527  0.00  0.00    +0.000 C 
ENDBRANCH  26  28
ENDBRANCH  25  26
ENDBRANCH  24  25
ENDBRANCH  23  24
ENDBRANCH  22  23
ENDBRANCH  21  22
ENDBRANCH  20  21
ENDBRANCH  19  20
ENDBRANCH  18  19
ENDBRANCH  17  18
ENDBRANCH  16  17
ENDBRANCH   1  16
TORSDOF 18
ENDMDL
MODEL 4
REMARK VINA RESULT:      -5.4      5.958      9.937
REMARK  Name = 
REMARK  21 active torsions:
REMARK  status: ('A' for Active; 'I' for Inactive)
REMARK    1  A    between atoms: C_1  and  C_2
REMARK    2  A    between atoms: C_2  and  C_3
REMARK    3  A    between atoms: C_3  and  C_4
REMARK    4  A    between atoms: C_4  and  C_5
REMARK    5  A    between atoms: C_5  and  C_6
REMARK    6  A    between atoms: C_6  and  C_7
REMARK    7  A    between atoms: C_7  and  C_8
REMARK    8  A    between atoms: C_8  and  C_9
REMARK    9  A    between atoms: C_9  and  C_10
REMARK   10  A    between atoms: C_10  and  C_11
REMARK   11  A    between atoms: C_11  and  C_12
REMARK   12  A    between atoms: C_12  and  C_13
REMARK   13  A    between atoms: C_13  and  C_14
REMARK   14  A    between atoms: C_14  and  C_15
REMARK   15  A    between atoms: C_15  and  C_16
REMARK   16  A    between atoms: C_16  and  C_17
REMARK   17  A    between atoms: C_17  and  C_18
REMARK   18  A    between atoms: C_18  and  S_19
REMARK   19  A    between atoms: S_19  and  C_21
REMARK   20  A    between atoms: C_22  and  C_23
REMARK   21  A    between atoms: C_27  and  C_28
REMARK                            x       y       z     vdW  Elec       q    Type
REMARK                         _______ _______ _______ _____ _____    ______ ____
ROOT
ATOM      1  C   UNL     1       8.486   8.658  17.643  0.00  0.00    +0.000 C 
ENDROOT
BRANCH   1   2
ATOM      2  C   UNL     1       7.282   7.735  17.768  0.00  0.00    +0.000 C 
BRANCH   2   3
ATOM      3  C   UNL     1       7.667   6.423  18.445  0.00  0.00    +0.000 C 
BRANCH   3   4
ATOM      4  C   UNL     1       6.639   5.350  18.111  0.00  0.00    +0.000 C 
BRANCH   4   5
ATOM      5  C   UNL     1       5.577   5.200  19.197  0.00  0.00    +0.000 C 
BRANCH   5   6
ATOM      6  S   UNL     1       4.032   5.946  18.582  0.00  0.00    +0.000 S 
ATOM      7  O   UNL     1       4.209   6.206  17.047  0.00  0.00    +0.000 OA
BRANCH   6   8
ATOM      8  C   UNL     1       2.894   4.550  18.834  0.00  0.00    +0.000 A 
ATOM      9  C   UNL     1       1.858   4.693  19.792  0.00  0.00    +0.000 A 
ATOM     10  C   UNL     1       1.640   5.901  20.672  0.00  0.00    +0.000 C 
ATOM     11  C   UNL     1       0.911   3.663  19.950  0.00  0.00    +0.000 A 
ATOM     12  C   UNL     1       0.969   2.516  19.174  0.00  0.00    +0.000 A 
ATOM     13  C   UNL     1       1.978   2.371  18.239  0.00  0.00    +0.000 A 
ATOM     14  C   UNL     1       2.954   3.367  18.050  0.00  0.00    +0.000 A 
ATOM     15  C   UNL     1       3.985   3.093  16.990  0.00  0.00    +0.000 C 
ENDBRANCH   6   8
ENDBRANCH   5   6
ENDBRANCH   4   5
ENDBRANCH   3   4
ENDBRANCH   2   3
ENDBRANCH   1   2
BRANCH   1  16
ATOM     16  C   UNL     1       8.102  10.087  18.005  0.00  0.00    +0.000 C 
BRANCH  16  17
ATOM     17  C   UNL     1       9.327  10.859  18.473  0.00  0.00    +0.000 C 
BRANCH  17  18
ATOM     18  C   UNL     1       9.492  10.736  19.980  0.00  0.00    +0.000 C 
BRANCH  18  19
ATOM     19  C   UNL     1      10.544  11.716  20.475  0.00  0.00    +0.000 C 
BRANCH  19  20
ATOM     20  C   UNL     1      10.744  12.832  19.461  0.00  0.00    +0.000 C 
BRANCH  20  21
ATOM     21  C   UNL     1       9.982  14.077  19.888  0.00  0.00    +0.000 C 
BRANCH  21  22
ATOM     22  C   UNL     1      10.194  14.342  21.372  0.00  0.00    +0.000 C 
BRANCH  22  23
ATOM     23  C   UNL     1       9.084  15.233  21.913  0.00  0.00    +0.000 C 
BRANCH  23  24
ATOM     24  C   UNL     1       8.046  14.400  22.651  0.00  0.00    +0.000 C 
BRANCH  24  25
ATOM     25  C   UNL     1       8.698  13.191  23.312  0.00  0.00    +0.000 C 
BRANCH  25  26
ATOM     26  C   UNL     1       7.848  11.943  23.101  0.00  0.00    +0.000 C 
BRANCH  26  28
ATOM     27  C   UNL     1       7.683  12.334  25.572  0.00  0.00    +0.000 C 
ATOM     28  C   UNL     1       7.161  11.525  24.398  0.00  0.00    +0.000 C 
ENDBRANCH  26  28
ENDBRANCH  25  26
ENDBRANCH  24  25
ENDBRANCH  23  24
ENDBRANCH  22  23
ENDBRANCH  21  22
ENDBRANCH  20  21
ENDBRANCH  19  20
ENDBRANCH  18  19
ENDBRANCH  17  18
ENDBRANCH  16  17
ENDBRANCH   1  16
TORSDOF 18
ENDMDL
MODEL 5
REMARK VINA RESULT:      -5.3      6.324     10.122
REMARK  Name = 
REMARK  21 active torsions:
REMARK  status: ('A' for Active; 'I' for Inactive)
REMARK    1  A    between atoms: C_1  and  C_2
REMARK    2  A    between atoms: C_2  and  C_3
REMARK    3  A    between atoms: C_3  and  C_4
REMARK    4  A    between atoms: C_4  and  C_5
REMARK    5  A    between atoms: C_5  and  C_6
REMARK    6  A    between atoms: C_6  and  C_7
REMARK    7  A    between atoms: C_7  and  C_8
REMARK    8  A    between atoms: C_8  and  C_9
REMARK    9  A    between atoms: C_9  and  C_10
REMARK   10  A    between atoms: C_10  and  C_11
REMARK   11  A    between atoms: C_11  and  C_12
REMARK   12  A    between atoms: C_12  and  C_13
REMARK   13  A    between atoms: C_13  and  C_14
REMARK   14  A    between atoms: C_14  and  C_15
REMARK   15  A    between atoms: C_15  and  C_16
REMARK   16  A    between atoms: C_16  and  C_17
REMARK   17  A    between atoms: C_17  and  C_18
REMARK   18  A    between atoms: C_18  and  S_19
REMARK   19  A    between atoms: S_19  and  C_21
REMARK   20  A    between atoms: C_22  and  C_23
REMARK   21  A    between atoms: C_27  and  C_28
REMARK                            x       y       z     vdW  Elec       q    Type
REMARK                         _______ _______ _______ _____ _____    ______ ____
ROOT
ATOM      1  C   UNL     1       7.992   9.035  17.515  0.00  0.00    +0.000 C 
ENDROOT
BRANCH   1   2
ATOM      2  C   UNL     1       7.242   7.725  17.317  0.00  0.00    +0.000 C 
BRANCH   2   3
ATOM      3  C   UNL     1       7.579   6.730  18.423  0.00  0.00    +0.000 C 
BRANCH   3   4
ATOM      4  C   UNL     1       7.054   5.349  18.051  0.00  0.00    +0.000 C 
BRANCH   4   5
ATOM      5  C   UNL     1       5.825   4.953  18.865  0.00  0.00    +0.000 C 
BRANCH   5   6
ATOM      6  S   UNL     1       4.347   5.566  17.991  0.00  0.00    +0.000 S 
ATOM      7  O   UNL     1       4.408   5.028  16.522  0.00  0.00    +0.000 OA
BRANCH   6   8
ATOM      8  C   UNL     1       3.055   4.677  18.911  0.00  0.00    +0.000 A 
ATOM      9  C   UNL     1       2.980   3.267  18.772  0.00  0.00    +0.000 A 
ATOM     10  C   UNL     1       3.860   2.429  17.875  0.00  0.00    +0.000 C 
ATOM     11  C   UNL     1       2.047   2.541  19.535  0.00  0.00    +0.000 A 
ATOM     12  C   UNL     1       1.207   3.183  20.432  0.00  0.00    +0.000 A 
ATOM     13  C   UNL     1       1.275   4.558  20.572  0.00  0.00    +0.000 A 
ATOM     14  C   UNL     1       2.183   5.329  19.824  0.00  0.00    +0.000 A 
ATOM     15  C   UNL     1       2.167   6.810  20.083  0.00  0.00    +0.000 C 
ENDBRANCH   6   8
ENDBRANCH   5   6
ENDBRANCH   4   5
ENDBRANCH   3   4
ENDBRANCH   2   3
ENDBRANCH   1   2
BRANCH   1  16
ATOM     16  C   UNL     1       8.680   9.055  18.873  0.00  0.00    +0.000 C 
BRANCH  16  17
ATOM     17  C   UNL     1       9.664  10.213  18.948  0.00  0.00    +0.000 C 
BRANCH  17  18
ATOM     18  C   UNL     1       9.247  11.198  20.029  0.00  0.00    +0.000 C 
BRANCH  18  19
ATOM     19  C   UNL     1      10.474  11.842  20.656  0.00  0.00    +0.000 C 
BRANCH  19  20
ATOM     20  C   UNL     1      11.674  11.701  19.731  0.00  0.00    +0.000 C 
BRANCH  20  21
ATOM     21  C   UNL     1      12.330  13.055  19.508  0.00  0.00    +0.000 C 
BRANCH  21  22
ATOM     22  C   UNL     1      11.443  13.934  18.637  0.00  0.00    +0.000 C 
BRANCH  22  23
ATOM     23  C   UNL     1      11.200  15.275  19.315  0.00  0.00    +0.000 C 
BRANCH  23  24
ATOM     24  C   UNL     1       9.710  15.579  19.373  0.00  0.00    +0.000 C 
BRANCH  24  25
ATOM     25  C   UNL     1       8.919  14.542  18.583  0.00  0.00    +0.000 C 
BRANCH  25  26
ATOM     26  C   UNL     1       7.472  14.495  19.060  0.00  0.00    +0.000 C 
BRANCH  26  28
ATOM     27  C   UNL     1       5.688  16.228  19.373  0.00  0.00    +0.000 C 
ATOM     28  C   UNL     1       7.088  15.791  19.768  0.00  0.00    +0.000 C 
ENDBRANCH  26  28
ENDBRANCH  25  26
ENDBRANCH  24  25
ENDBRANCH  23  24
ENDBRANCH  22  23
ENDBRANCH  21  22
ENDBRANCH  20  21
ENDBRANCH  19  20
ENDBRANCH  18  19
ENDBRANCH  17  18
ENDBRANCH  16  17
ENDBRANCH   1  16
TORSDOF 18
ENDMDL
MODEL 6
REMARK VINA RESULT:      -5.3      1.635      2.858
REMARK  Name = 
REMARK  21 active torsions:
REMARK  status: ('A' for Active; 'I' for Inactive)
REMARK    1  A    between atoms: C_1  and  C_2
REMARK    2  A    between atoms: C_2  and  C_3
REMARK    3  A    between atoms: C_3  and  C_4
REMARK    4  A    between atoms: C_4  and  C_5
REMARK    5  A    between atoms: C_5  and  C_6
REMARK    6  A    between atoms: C_6  and  C_7
REMARK    7  A    between atoms: C_7  and  C_8
REMARK    8  A    between atoms: C_8  and  C_9
REMARK    9  A    between atoms: C_9  and  C_10
REMARK   10  A    between atoms: C_10  and  C_11
REMARK   11  A    between atoms: C_11  and  C_12
REMARK   12  A    between atoms: C_12  and  C_13
REMARK   13  A    between atoms: C_13  and  C_14
REMARK   14  A    between atoms: C_14  and  C_15
REMARK   15  A    between atoms: C_15  and  C_16
REMARK   16  A    between atoms: C_16  and  C_17
REMARK   17  A    between atoms: C_17  and  C_18
REMARK   18  A    between atoms: C_18  and  S_19
REMARK   19  A    between atoms: S_19  and  C_21
REMARK   20  A    between atoms: C_22  and  C_23
REMARK   21  A    between atoms: C_27  and  C_28
REMARK                            x       y       z     vdW  Elec       q    Type
REMARK                         _______ _______ _______ _____ _____    ______ ____
ROOT
ATOM      1  C   UNL     1       2.212   7.462  19.432  0.00  0.00    +0.000 C 
ENDROOT
BRANCH   1   2
ATOM      2  C   UNL     1       2.468   8.213  18.133  0.00  0.00    +0.000 C 
BRANCH   2   3
ATOM      3  C   UNL     1       1.249   9.036  17.728  0.00  0.00    +0.000 C 
BRANCH   3   4
ATOM      4  C   UNL     1       0.839   9.950  18.876  0.00  0.00    +0.000 C 
BRANCH   4   5
ATOM      5  C   UNL     1      -0.512  10.618  18.637  0.00  0.00    +0.000 C 
BRANCH   5   6
ATOM      6  S   UNL     1      -0.416  12.327  19.265  0.00  0.00    +0.000 S 
ATOM      7  O   UNL     1      -0.496  13.290  18.033  0.00  0.00    +0.000 OA
BRANCH   6   8
ATOM      8  C   UNL     1      -1.977  12.400  20.195  0.00  0.00    +0.000 A 
ATOM      9  C   UNL     1      -1.924  12.742  21.571  0.00  0.00    +0.000 A 
ATOM     10  C   UNL     1      -0.663  13.007  22.358  0.00  0.00    +0.000 C 
ATOM     11  C   UNL     1      -3.121  12.890  22.297  0.00  0.00    +0.000 A 
ATOM     12  C   UNL     1      -4.352  12.718  21.683  0.00  0.00    +0.000 A 
ATOM     13  C   UNL     1      -4.410  12.385  20.342  0.00  0.00    +0.000 A 
ATOM     14  C   UNL     1      -3.243  12.215  19.576  0.00  0.00    +0.000 A 
ATOM     15  C   UNL     1      -3.445  11.869  18.127  0.00  0.00    +0.000 C 
ENDBRANCH   6   8
ENDBRANCH   5   6
ENDBRANCH   4   5
ENDBRANCH   3   4
ENDBRANCH   2   3
ENDBRANCH   1   2
BRANCH   1  16
ATOM     16  C   UNL     1       2.397   5.964  19.226  0.00  0.00    +0.000 C 
BRANCH  16  17
ATOM     17  C   UNL     1       1.871   5.552  17.859  0.00  0.00    +0.000 C 
BRANCH  17  18
ATOM     18  C   UNL     1       1.432   4.095  17.873  0.00  0.00    +0.000 C 
BRANCH  18  19
ATOM     19  C   UNL     1       1.249   3.615  19.305  0.00  0.00    +0.000 C 
BRANCH  19  20
ATOM     20  C   UNL     1       1.973   2.294  19.515  0.00  0.00    +0.000 C 
BRANCH  20  21
ATOM     21  C   UNL     1       3.249   2.254  18.688  0.00  0.00    +0.000 C 
BRANCH  21  22
ATOM     22  C   UNL     1       4.410   2.837  19.481  0.00  0.00    +0.000 C 
BRANCH  22  23
ATOM     23  C   UNL     1       5.149   3.876  18.649  0.00  0.00    +0.000 C 
BRANCH  23  24
ATOM     24  C   UNL     1       4.765   3.752  17.181  0.00  0.00    +0.000 C 
BRANCH  24  25
ATOM     25  C   UNL     1       5.938   4.136  16.285  0.00  0.00    +0.000 C 
BRANCH  25  26
ATOM     26  C   UNL     1       5.576   5.333  15.414  0.00  0.00    +0.000 C 
BRANCH  26  28
ATOM     27  C   UNL     1       6.358   6.913  17.196  0.00  0.00    +0.000 C 
ATOM     28  C   UNL     1       5.213   6.542  16.270  0.00  0.00    +0.000 C 
ENDBRANCH  26  28
ENDBRANCH  25  26
ENDBRANCH  24  25
ENDBRANCH  23  24
ENDBRANCH  22  23
ENDBRANCH  21  22
ENDBRANCH  20  21
ENDBRANCH  19  20
ENDBRANCH  18  19
ENDBRANCH  17  18
ENDBRANCH  16  17
ENDBRANCH   1  16
TORSDOF 18
ENDMDL
MODEL 7
REMARK VINA RESULT:      -5.3      3.241      3.920
REMARK  Name = 
REMARK  21 active torsions:
REMARK  status: ('A' for Active; 'I' for Inactive)
REMARK    1  A    between atoms: C_1  and  C_2
REMARK    2  A    between atoms: C_2  and  C_3
REMARK    3  A    between atoms: C_3  and  C_4
REMARK    4  A    between atoms: C_4  and  C_5
REMARK    5  A    between atoms: C_5  and  C_6
REMARK    6  A    between atoms: C_6  and  C_7
REMARK    7  A    between atoms: C_7  and  C_8
REMARK    8  A    between atoms: C_8  and  C_9
REMARK    9  A    between atoms: C_9  and  C_10
REMARK   10  A    between atoms: C_10  and  C_11
REMARK   11  A    between atoms: C_11  and  C_12
REMARK   12  A    between atoms: C_12  and  C_13
REMARK   13  A    between atoms: C_13  and  C_14
REMARK   14  A    between atoms: C_14  and  C_15
REMARK   15  A    between atoms: C_15  and  C_16
REMARK   16  A    between atoms: C_16  and  C_17
REMARK   17  A    between atoms: C_17  and  C_18
REMARK   18  A    between atoms: C_18  and  S_19
REMARK   19  A    between atoms: S_19  and  C_21
REMARK   20  A    between atoms: C_22  and  C_23
REMARK   21  A    between atoms: C_27  and  C_28
REMARK                            x       y       z     vdW  Elec       q    Type
REMARK                         _______ _______ _______ _____ _____    ______ ____
ROOT
ATOM      1  C   UNL     1       2.522   8.010  18.352  0.00  0.00    +0.000 C 
ENDROOT
BRANCH   1   2
ATOM      2  C   UNL     1       1.532   8.847  19.149  0.00  0.00    +0.000 C 
BRANCH   2   3
ATOM      3  C   UNL     1       0.983   9.994  18.306  0.00  0.00    +0.000 C 
BRANCH   3   4
ATOM      4  C   UNL     1       1.650  11.301  18.715  0.00  0.00    +0.000 C 
BRANCH   4   5
ATOM      5  C   UNL     1       0.713  12.499  18.594  0.00  0.00    +0.000 C 
BRANCH   5   6
ATOM      6  S   UNL     1       1.178  13.712  19.872  0.00  0.00    +0.000 S 
ATOM      7  O   UNL     1       2.491  13.200  20.556  0.00  0.00    +0.000 OA
BRANCH   6   8
ATOM      8  C   UNL     1       1.562  15.141  18.815  0.00  0.00    +0.000 A 
ATOM      9  C   UNL     1       0.609  16.189  18.729  0.00  0.00    +0.000 A 
ATOM     10  C   UNL     1      -0.738  16.203  19.410  0.00  0.00    +0.000 C 
ATOM     11  C   UNL     1       0.913  17.346  17.987  0.00  0.00    +0.000 A 
ATOM     12  C   UNL     1       2.136  17.481  17.348  0.00  0.00    +0.000 A 
ATOM     13  C   UNL     1       3.068  16.463  17.427  0.00  0.00    +0.000 A 
ATOM     14  C   UNL     1       2.808  15.282  18.147  0.00  0.00    +0.000 A 
ATOM     15  C   UNL     1       3.911  14.261  18.167  0.00  0.00    +0.000 C 
ENDBRANCH   6   8
ENDBRANCH   5   6
ENDBRANCH   4   5
ENDBRANCH   3   4
ENDBRANCH   2   3
ENDBRANCH   1   2
BRANCH   1  16
ATOM     16  C   UNL     1       2.202   6.528  18.494  0.00  0.00    +0.000 C 
BRANCH  16  17
ATOM     17  C   UNL     1       2.721   6.001  19.824  0.00  0.00    +0.000 C 
BRANCH  17  18
ATOM     18  C   UNL     1       1.653   5.177  20.525  0.00  0.00    +0.000 C 
BRANCH  18  19
ATOM     19  C   UNL     1       1.269   3.978  19.672  0.00  0.00    +0.000 C 
BRANCH  19  20
ATOM     20  C   UNL     1       2.094   2.763  20.068  0.00  0.00    +0.000 C 
BRANCH  20  21
ATOM     21  C   UNL     1       3.064   2.398  18.955  0.00  0.00    +0.000 C 
BRANCH  21  22
ATOM     22  C   UNL     1       2.556   2.923  17.619  0.00  0.00    +0.000 C 
BRANCH  22  23
ATOM     23  C   UNL     1       3.638   3.738  16.926  0.00  0.00    +0.000 C 
BRANCH  23  24
ATOM     24  C   UNL     1       4.923   3.720  17.742  0.00  0.00    +0.000 C 
BRANCH  24  25
ATOM     25  C   UNL     1       5.606   5.082  17.699  0.00  0.00    +0.000 C 
BRANCH  25  26
ATOM     26  C   UNL     1       6.312   5.368  19.019  0.00  0.00    +0.000 C 
BRANCH  26  28
ATOM     27  C   UNL     1       7.517   7.050  17.604  0.00  0.00    +0.000 C 
ATOM     28  C   UNL     1       7.628   6.105  18.787  0.00  0.00    +0.000 C 
ENDBRANCH  26  28
ENDBRANCH  25  26
ENDBRANCH  24  25
ENDBRANCH  23  24
ENDBRANCH  22  23
ENDBRANCH  21  22
ENDBRANCH  20  21
ENDBRANCH  19  20
ENDBRANCH  18  19
ENDBRANCH  17  18
ENDBRANCH  16  17
ENDBRANCH   1  16
TORSDOF 18
ENDMDL
MODEL 8
REMARK VINA RESULT:      -5.3      3.030      4.891
REMARK  Name = 
REMARK  21 active torsions:
REMARK  status: ('A' for Active; 'I' for Inactive)
REMARK    1  A    between atoms: C_1  and  C_2
REMARK    2  A    between atoms: C_2  and  C_3
REMARK    3  A    between atoms: C_3  and  C_4
REMARK    4  A    between atoms: C_4  and  C_5
REMARK    5  A    between atoms: C_5  and  C_6
REMARK    6  A    between atoms: C_6  and  C_7
REMARK    7  A    between atoms: C_7  and  C_8
REMARK    8  A    between atoms: C_8  and  C_9
REMARK    9  A    between atoms: C_9  and  C_10
REMARK   10  A    between atoms: C_10  and  C_11
REMARK   11  A    between atoms: C_11  and  C_12
REMARK   12  A    between atoms: C_12  and  C_13
REMARK   13  A    between atoms: C_13  and  C_14
REMARK   14  A    between atoms: C_14  and  C_15
REMARK   15  A    between atoms: C_15  and  C_16
REMARK   16  A    between atoms: C_16  and  C_17
REMARK   17  A    between atoms: C_17  and  C_18
REMARK   18  A    between atoms: C_18  and  S_19
REMARK   19  A    between atoms: S_19  and  C_21
REMARK   20  A    between atoms: C_22  and  C_23
REMARK   21  A    between atoms: C_27  and  C_28
REMARK                            x       y       z     vdW  Elec       q    Type
REMARK                         _______ _______ _______ _____ _____    ______ ____
ROOT
ATOM      1  C   UNL     1       1.566   8.664  19.997  0.00  0.00    +0.000 C 
ENDROOT
BRANCH   1   2
ATOM      2  C   UNL     1       0.923   9.351  18.801  0.00  0.00    +0.000 C 
BRANCH   2   3
ATOM      3  C   UNL     1       1.149  10.860  18.850  0.00  0.00    +0.000 C 
BRANCH   3   4
ATOM      4  C   UNL     1      -0.116  11.554  19.336  0.00  0.00    +0.000 C 
BRANCH   4   5
ATOM      5  C   UNL     1      -0.382  12.866  18.601  0.00  0.00    +0.000 C 
BRANCH   5   6
ATOM      6  S   UNL     1      -0.478  14.198  19.840  0.00  0.00    +0.000 S 
ATOM      7  O   UNL     1      -0.275  13.549  21.251  0.00  0.00    +0.000 OA
BRANCH   6   8
ATOM      8  C   UNL     1       1.007  15.146  19.388  0.00  0.00    +0.000 A 
ATOM      9  C   UNL     1       0.841  16.342  18.645  0.00  0.00    +0.000 A 
ATOM     10  C   UNL     1      -0.477  16.884  18.143  0.00  0.00    +0.000 C 
ATOM     11  C   UNL     1       1.962  17.141  18.353  0.00  0.00    +0.000 A 
ATOM     12  C   UNL     1       3.227  16.782  18.792  0.00  0.00    +0.000 A 
ATOM     13  C   UNL     1       3.396  15.616  19.517  0.00  0.00    +0.000 A 
ATOM     14  C   UNL     1       2.308  14.779  19.826  0.00  0.00    +0.000 A 
ATOM     15  C   UNL     1       2.625  13.550  20.634  0.00  0.00    +0.000 C 
ENDBRANCH   6   8
ENDBRANCH   5   6
ENDBRANCH   4   5
ENDBRANCH   3   4
ENDBRANCH   2   3
ENDBRANCH   1   2
BRANCH   1  16
ATOM     16  C   UNL     1       2.294   7.401  19.558  0.00  0.00    +0.000 C 
BRANCH  16  17
ATOM     17  C   UNL     1       2.364   7.334  18.040  0.00  0.00    +0.000 C 
BRANCH  17  18
ATOM     18  C   UNL     1       3.802   7.474  17.565  0.00  0.00    +0.000 C 
BRANCH  18  19
ATOM     19  C   UNL     1       4.560   6.175  17.794  0.00  0.00    +0.000 C 
BRANCH  19  20
ATOM     20  C   UNL     1       4.892   5.517  16.463  0.00  0.00    +0.000 C 
BRANCH  20  21
ATOM     21  C   UNL     1       4.764   4.005  16.576  0.00  0.00    +0.000 C 
BRANCH  21  22
ATOM     22  C   UNL     1       3.933   3.636  17.797  0.00  0.00    +0.000 C 
BRANCH  22  23
ATOM     23  C   UNL     1       2.625   2.986  17.369  0.00  0.00    +0.000 C 
BRANCH  23  24
ATOM     24  C   UNL     1       1.440   3.736  17.961  0.00  0.00    +0.000 C 
BRANCH  24  25
ATOM     25  C   UNL     1       0.989   3.084  19.264  0.00  0.00    +0.000 C 
BRANCH  25  26
ATOM     26  C   UNL     1       0.884   4.122  20.374  0.00  0.00    +0.000 C 
BRANCH  26  28
ATOM     27  C   UNL     1       2.589   2.682  21.514  0.00  0.00    +0.000 C 
ATOM     28  C   UNL     1       2.127   4.105  21.258  0.00  0.00    +0.000 C 
ENDBRANCH  26  28
ENDBRANCH  25  26
ENDBRANCH  24  25
ENDBRANCH  23  24
ENDBRANCH  22  23
ENDBRANCH  21  22
ENDBRANCH  20  21
ENDBRANCH  19  20
ENDBRANCH  18  19
ENDBRANCH  17  18
ENDBRANCH  16  17
ENDBRANCH   1  16
TORSDOF 18
ENDMDL
MODEL 9
REMARK VINA RESULT:      -5.3      2.619      4.924
REMARK  Name = 
REMARK  21 active torsions:
REMARK  status: ('A' for Active; 'I' for Inactive)
REMARK    1  A    between atoms: C_1  and  C_2
REMARK    2  A    between atoms: C_2  and  C_3
REMARK    3  A    between atoms: C_3  and  C_4
REMARK    4  A    between atoms: C_4  and  C_5
REMARK    5  A    between atoms: C_5  and  C_6
REMARK    6  A    between atoms: C_6  and  C_7
REMARK    7  A    between atoms: C_7  and  C_8
REMARK    8  A    between atoms: C_8  and  C_9
REMARK    9  A    between atoms: C_9  and  C_10
REMARK   10  A    between atoms: C_10  and  C_11
REMARK   11  A    between atoms: C_11  and  C_12
REMARK   12  A    between atoms: C_12  and  C_13
REMARK   13  A    between atoms: C_13  and  C_14
REMARK   14  A    between atoms: C_14  and  C_15
REMARK   15  A    between atoms: C_15  and  C_16
REMARK   16  A    between atoms: C_16  and  C_17
REMARK   17  A    between atoms: C_17  and  C_18
REMARK   18  A    between atoms: C_18  and  S_19
REMARK   19  A    between atoms: S_19  and  C_21
REMARK   20  A    between atoms: C_22  and  C_23
REMARK   21  A    between atoms: C_27  and  C_28
REMARK                            x       y       z     vdW  Elec       q    Type
REMARK                         _______ _______ _______ _____ _____    ______ ____
ROOT
ATOM      1  C   UNL     1       2.136   2.792  17.835  0.00  0.00    +0.000 C 
ENDROOT
BRANCH   1   2
ATOM      2  C   UNL     1       1.868   2.317  19.256  0.00  0.00    +0.000 C 
BRANCH   2   3
ATOM      3  C   UNL     1       0.684   3.060  19.867  0.00  0.00    +0.000 C 
BRANCH   3   4
ATOM      4  C   UNL     1       1.186   4.202  20.741  0.00  0.00    +0.000 C 
BRANCH   4   5
ATOM      5  C   UNL     1       0.814   5.573  20.181  0.00  0.00    +0.000 C 
BRANCH   5   6
ATOM      6  S   UNL     1       2.127   6.748  20.648  0.00  0.00    +0.000 S 
ATOM      7  O   UNL     1       3.440   6.308  19.917  0.00  0.00    +0.000 OA
BRANCH   6   8
ATOM      8  C   UNL     1       1.477   8.258  19.871  0.00  0.00    +0.000 A 
ATOM      9  C   UNL     1       0.655   9.115  20.649  0.00  0.00    +0.000 A 
ATOM     10  C   UNL     1       0.224   8.856  22.072  0.00  0.00    +0.000 C 
ATOM     11  C   UNL     1       0.207  10.332  20.103  0.00  0.00    +0.000 A 
ATOM     12  C   UNL     1       0.567  10.713  18.820  0.00  0.00    +0.000 A 
ATOM     13  C   UNL     1       1.367   9.883  18.057  0.00  0.00    +0.000 A 
ATOM     14  C   UNL     1       1.832   8.651  18.553  0.00  0.00    +0.000 A 
ATOM     15  C   UNL     1       2.708   7.851  17.627  0.00  0.00    +0.000 C 
ENDBRANCH   6   8
ENDBRANCH   5   6
ENDBRANCH   4   5
ENDBRANCH   3   4
ENDBRANCH   2   3
ENDBRANCH   1   2
BRANCH   1  16
ATOM     16  C   UNL     1       3.424   3.603  17.779  0.00  0.00    +0.000 C 
BRANCH  16  17
ATOM     17  C   UNL     1       4.293   3.297  18.990  0.00  0.00    +0.000 C 
BRANCH  17  18
ATOM     18  C   UNL     1       5.722   3.761  18.753  0.00  0.00    +0.000 C 
BRANCH  18  19
ATOM     19  C   UNL     1       5.924   5.155  19.327  0.00  0.00    +0.000 C 
BRANCH  19  20
ATOM     20  C   UNL     1       7.232   5.747  18.826  0.00  0.00    +0.000 C 
BRANCH  20  21
ATOM     21  C   UNL     1       7.246   5.785  17.305  0.00  0.00    +0.000 C 
BRANCH  21  22
ATOM     22  C   UNL     1       6.175   6.737  16.792  0.00  0.00    +0.000 C 
BRANCH  22  23
ATOM     23  C   UNL     1       5.348   6.063  15.706  0.00  0.00    +0.000 C 
BRANCH  23  24
ATOM     24  C   UNL     1       5.764   4.608  15.545  0.00  0.00    +0.000 C 
BRANCH  24  25
ATOM     25  C   UNL     1       5.481   4.122  14.128  0.00  0.00    +0.000 C 
BRANCH  25  26
ATOM     26  C   UNL     1       6.743   4.194  13.276  0.00  0.00    +0.000 C 
BRANCH  26  28
ATOM     27  C   UNL     1       5.102   3.040  11.773  0.00  0.00    +0.000 C 
ATOM     28  C   UNL     1       6.547   3.472  11.946  0.00  0.00    +0.000 C 
ENDBRANCH  26  28
ENDBRANCH  25  26
ENDBRANCH  24  25
ENDBRANCH  23  24
ENDBRANCH  22  23
ENDBRANCH  21  22
ENDBRANCH  20  21
ENDBRANCH  19  20
ENDBRANCH  18  19
ENDBRANCH  17  18
ENDBRANCH  16  17
ENDBRANCH   1  16
TORSDOF 18
ENDMDL
