MODEL 1
REMARK VINA RESULT:      -7.2      0.000      0.000
REMARK  Name = 
REMARK  2 active torsions:
REMARK  status: ('A' for Active; 'I' for Inactive)
REMARK    1  A    between atoms: C_2  and  C_3
REMARK    2  A    between atoms: N_7  and  C_8
REMARK                            x       y       z     vdW  Elec       q    Type
REMARK                         _______ _______ _______ _____ _____    ______ ____
ROOT
ATOM      1  C   UNL     1       5.347   5.083  17.421  0.00  0.00    +0.000 A 
ATOM      2  C   UNL     1       6.135   4.917  16.292  0.00  0.00    +0.000 A 
ATOM      3  N   UNL     1       5.946   5.906  15.377  0.00  0.00    +0.000 NA
ATOM      4  C   UNL     1       5.003   6.654  15.898  0.00  0.00    +0.000 A 
ATOM      5  N   UNL     1       4.592   6.223  17.144  0.00  0.00    +0.000 N 
ENDROOT
BRANCH   1   7
ATOM      6  O   UNL     1       5.990   4.149  19.457  0.00  0.00    +0.000 OA
ATOM      7  C   UNL     1       5.183   4.165  18.532  0.00  0.00    +0.000 C 
ATOM      8  N   UNL     1       4.071   3.316  18.545  0.00  0.00    +0.000 N 
ATOM      9  C   UNL     1       3.843   2.470  19.722  0.00  0.00    +0.000 C 
ATOM     10  C   UNL     1       2.474   2.710  20.364  0.00  0.00    +0.000 C 
ATOM     11  S   UNL     1       1.095   2.418  19.201  0.00  0.00    +0.000 S 
ATOM     12  C   UNL     1       1.697   3.445  17.818  0.00  0.00    +0.000 C 
ATOM     13  C   UNL     1       3.133   3.083  17.437  0.00  0.00    +0.000 C 
ENDBRANCH   1   7
BRANCH   5  14
ATOM     14  C   UNL     1       3.612   6.887  17.940  0.00  0.00    +0.000 A 
ATOM     15  C   UNL     1       3.022   8.071  17.468  0.00  0.00    +0.000 A 
ATOM     16  C   UNL     1       2.040   8.718  18.223  0.00  0.00    +0.000 A 
ATOM     17  C   UNL     1       1.656   8.204  19.458  0.00  0.00    +0.000 A 
ATOM     18  C   UNL     1       2.259   7.047  19.945  0.00  0.00    +0.000 A 
ATOM     19  C   UNL     1       3.236   6.389  19.193  0.00  0.00    +0.000 A 
ENDBRANCH   5  14
TORSDOF 2
ENDMDL
MODEL 2
REMARK VINA RESULT:      -7.1      0.042      1.108
REMARK  Name = 
REMARK  2 active torsions:
REMARK  status: ('A' for Active; 'I' for Inactive)
REMARK    1  A    between atoms: C_2  and  C_3
REMARK    2  A    between atoms: N_7  and  C_8
REMARK                            x       y       z     vdW  Elec       q    Type
REMARK                         _______ _______ _______ _____ _____    ______ ____
ROOT
ATOM      1  C   UNL     1       5.336   5.076  17.428  0.00  0.00    +0.000 A 
ATOM      2  C   UNL     1       6.138   4.913  16.308  0.00  0.00    +0.000 A 
ATOM      3  N   UNL     1       5.961   5.905  15.394  0.00  0.00    +0.000 NA
ATOM      4  C   UNL     1       5.012   6.651  15.906  0.00  0.00    +0.000 A 
ATOM      5  N   UNL     1       4.585   6.216  17.145  0.00  0.00    +0.000 N 
ENDROOT
BRANCH   1   7
ATOM      6  O   UNL     1       5.956   4.133  19.468  0.00  0.00    +0.000 OA
ATOM      7  C   UNL     1       5.158   4.155  18.534  0.00  0.00    +0.000 C 
ATOM      8  N   UNL     1       4.044   3.309  18.532  0.00  0.00    +0.000 N 
ATOM      9  C   UNL     1       3.801   2.459  19.705  0.00  0.00    +0.000 C 
ATOM     10  C   UNL     1       2.426   2.702  20.332  0.00  0.00    +0.000 C 
ATOM     11  S   UNL     1       1.058   2.417  19.155  0.00  0.00    +0.000 S 
ATOM     12  C   UNL     1       1.678   3.447  17.782  0.00  0.00    +0.000 C 
ATOM     13  C   UNL     1       3.117   3.083  17.414  0.00  0.00    +0.000 C 
ENDBRANCH   1   7
BRANCH   5  14
ATOM     14  C   UNL     1       3.596   6.879  17.930  0.00  0.00    +0.000 A 
ATOM     15  C   UNL     1       3.229   6.349  19.177  0.00  0.00    +0.000 A 
ATOM     16  C   UNL     1       2.282   7.002  19.971  0.00  0.00    +0.000 A 
ATOM     17  C   UNL     1       1.680   8.173  19.518  0.00  0.00    +0.000 A 
ATOM     18  C   UNL     1       2.016   8.688  18.269  0.00  0.00    +0.000 A 
ATOM     19  C   UNL     1       2.969   8.044  17.473  0.00  0.00    +0.000 A 
ENDBRANCH   5  14
TORSDOF 2
ENDMDL
MODEL 3
REMARK VINA RESULT:      -7.1      2.379      4.249
REMARK  Name = 
REMARK  2 active torsions:
REMARK  status: ('A' for Active; 'I' for Inactive)
REMARK    1  A    between atoms: C_2  and  C_3
REMARK    2  A    between atoms: N_7  and  C_8
REMARK                            x       y       z     vdW  Elec       q    Type
REMARK                         _______ _______ _______ _____ _____    ______ ____
ROOT
ATOM      1  C   UNL     1       2.728   3.621  19.252  0.00  0.00    +0.000 A 
ATOM      2  C   UNL     1       2.752   2.555  20.138  0.00  0.00    +0.000 A 
ATOM      3  N   UNL     1       2.395   2.919  21.399  0.00  0.00    +0.000 NA
ATOM      4  C   UNL     1       2.207   4.215  21.322  0.00  0.00    +0.000 A 
ATOM      5  N   UNL     1       2.384   4.716  20.046  0.00  0.00    +0.000 N 
ENDROOT
BRANCH   1   7
ATOM      6  O   UNL     1       2.402   3.353  16.960  0.00  0.00    +0.000 OA
ATOM      7  C   UNL     1       3.173   3.640  17.872  0.00  0.00    +0.000 C 
ATOM      8  N   UNL     1       4.491   4.018  17.595  0.00  0.00    +0.000 N 
ATOM      9  C   UNL     1       4.908   4.147  16.193  0.00  0.00    +0.000 C 
ATOM     10  C   UNL     1       5.445   5.544  15.866  0.00  0.00    +0.000 C 
ATOM     11  S   UNL     1       6.871   6.009  16.909  0.00  0.00    +0.000 S 
ATOM     12  C   UNL     1       6.141   5.622  18.536  0.00  0.00    +0.000 C 
ATOM     13  C   UNL     1       5.574   4.202  18.572  0.00  0.00    +0.000 C 
ENDBRANCH   1   7
BRANCH   5  14
ATOM     14  C   UNL     1       2.196   6.083  19.689  0.00  0.00    +0.000 A 
ATOM     15  C   UNL     1       2.519   6.513  18.392  0.00  0.00    +0.000 A 
ATOM     16  C   UNL     1       2.313   7.843  18.018  0.00  0.00    +0.000 A 
ATOM     17  C   UNL     1       1.806   8.757  18.938  0.00  0.00    +0.000 A 
ATOM     18  C   UNL     1       1.512   8.345  20.235  0.00  0.00    +0.000 A 
ATOM     19  C   UNL     1       1.707   7.013  20.614  0.00  0.00    +0.000 A 
ENDBRANCH   5  14
TORSDOF 2
ENDMDL
MODEL 4
REMARK VINA RESULT:      -7.1      2.278      3.904
REMARK  Name = 
REMARK  2 active torsions:
REMARK  status: ('A' for Active; 'I' for Inactive)
REMARK    1  A    between atoms: C_2  and  C_3
REMARK    2  A    between atoms: N_7  and  C_8
REMARK                            x       y       z     vdW  Elec       q    Type
REMARK                         _______ _______ _______ _____ _____    ______ ____
ROOT
ATOM      1  C   UNL     1       3.445   3.509  18.620  0.00  0.00    +0.000 A 
ATOM      2  C   UNL     1       2.991   2.222  18.373  0.00  0.00    +0.000 A 
ATOM      3  N   UNL     1       1.638   2.121  18.469  0.00  0.00    +0.000 NA
ATOM      4  C   UNL     1       1.249   3.319  18.834  0.00  0.00    +0.000 A 
ATOM      5  N   UNL     1       2.290   4.222  18.940  0.00  0.00    +0.000 N 
ENDROOT
BRANCH   1   7
ATOM      6  O   UNL     1       5.464   3.744  19.760  0.00  0.00    +0.000 OA
ATOM      7  C   UNL     1       4.819   3.958  18.737  0.00  0.00    +0.000 C 
ATOM      8  N   UNL     1       5.406   4.617  17.652  0.00  0.00    +0.000 N 
ATOM      9  C   UNL     1       6.829   4.970  17.726  0.00  0.00    +0.000 C 
ATOM     10  C   UNL     1       7.646   4.367  16.580  0.00  0.00    +0.000 C 
ATOM     11  S   UNL     1       7.036   4.885  14.937  0.00  0.00    +0.000 S 
ATOM     12  C   UNL     1       5.273   4.478  15.173  0.00  0.00    +0.000 C 
ATOM     13  C   UNL     1       4.718   5.111  16.450  0.00  0.00    +0.000 C 
ENDBRANCH   1   7
BRANCH   5  14
ATOM     14  C   UNL     1       2.127   5.597  19.277  0.00  0.00    +0.000 A 
ATOM     15  C   UNL     1       2.371   6.583  18.308  0.00  0.00    +0.000 A 
ATOM     16  C   UNL     1       2.187   7.935  18.614  0.00  0.00    +0.000 A 
ATOM     17  C   UNL     1       1.782   8.312  19.892  0.00  0.00    +0.000 A 
ATOM     18  C   UNL     1       1.567   7.341  20.867  0.00  0.00    +0.000 A 
ATOM     19  C   UNL     1       1.741   5.987  20.565  0.00  0.00    +0.000 A 
ENDBRANCH   5  14
TORSDOF 2
ENDMDL
MODEL 5
REMARK VINA RESULT:      -7.1      2.376      4.326
REMARK  Name = 
REMARK  2 active torsions:
REMARK  status: ('A' for Active; 'I' for Inactive)
REMARK    1  A    between atoms: C_2  and  C_3
REMARK    2  A    between atoms: N_7  and  C_8
REMARK                            x       y       z     vdW  Elec       q    Type
REMARK                         _______ _______ _______ _____ _____    ______ ____
ROOT
ATOM      1  C   UNL     1       2.704   3.587  19.404  0.00  0.00    +0.000 A 
ATOM      2  C   UNL     1       2.737   2.555  20.330  0.00  0.00    +0.000 A 
ATOM      3  N   UNL     1       2.396   2.968  21.580  0.00  0.00    +0.000 NA
ATOM      4  C   UNL     1       2.209   4.260  21.456  0.00  0.00    +0.000 A 
ATOM      5  N   UNL     1       2.370   4.711  20.160  0.00  0.00    +0.000 N 
ENDROOT
BRANCH   1   7
ATOM      6  O   UNL     1       2.355   3.213  17.130  0.00  0.00    +0.000 OA
ATOM      7  C   UNL     1       3.131   3.552  18.019  0.00  0.00    +0.000 C 
ATOM      8  N   UNL     1       4.440   3.940  17.709  0.00  0.00    +0.000 N 
ATOM      9  C   UNL     1       4.838   4.014  16.298  0.00  0.00    +0.000 C 
ATOM     10  C   UNL     1       5.347   5.403  15.903  0.00  0.00    +0.000 C 
ATOM     11  S   UNL     1       6.777   5.937  16.907  0.00  0.00    +0.000 S 
ATOM     12  C   UNL     1       6.073   5.610  18.559  0.00  0.00    +0.000 C 
ATOM     13  C   UNL     1       5.531   4.184  18.664  0.00  0.00    +0.000 C 
ENDBRANCH   1   7
BRANCH   5  14
ATOM     14  C   UNL     1       2.179   6.064  19.754  0.00  0.00    +0.000 A 
ATOM     15  C   UNL     1       1.648   6.994  20.662  0.00  0.00    +0.000 A 
ATOM     16  C   UNL     1       1.482   8.331  20.288  0.00  0.00    +0.000 A 
ATOM     17  C   UNL     1       1.822   8.744  19.002  0.00  0.00    +0.000 A 
ATOM     18  C   UNL     1       2.321   7.820  18.087  0.00  0.00    +0.000 A 
ATOM     19  C   UNL     1       2.498   6.484  18.456  0.00  0.00    +0.000 A 
ENDBRANCH   5  14
TORSDOF 2
ENDMDL
MODEL 6
REMARK VINA RESULT:      -7.1      2.281      4.045
REMARK  Name = 
REMARK  2 active torsions:
REMARK  status: ('A' for Active; 'I' for Inactive)
REMARK    1  A    between atoms: C_2  and  C_3
REMARK    2  A    between atoms: N_7  and  C_8
REMARK                            x       y       z     vdW  Elec       q    Type
REMARK                         _______ _______ _______ _____ _____    ______ ____
ROOT
ATOM      1  C   UNL     1       3.481   3.474  18.557  0.00  0.00    +0.000 A 
ATOM      2  C   UNL     1       3.044   2.182  18.305  0.00  0.00    +0.000 A 
ATOM      3  N   UNL     1       1.695   2.058  18.417  0.00  0.00    +0.000 NA
ATOM      4  C   UNL     1       1.290   3.247  18.796  0.00  0.00    +0.000 A 
ATOM      5  N   UNL     1       2.317   4.166  18.896  0.00  0.00    +0.000 N 
ENDROOT
BRANCH   1   7
ATOM      6  O   UNL     1       5.504   3.748  19.682  0.00  0.00    +0.000 OA
ATOM      7  C   UNL     1       4.848   3.945  18.662  0.00  0.00    +0.000 C 
ATOM      8  N   UNL     1       5.418   4.605  17.568  0.00  0.00    +0.000 N 
ATOM      9  C   UNL     1       6.836   4.980  17.630  0.00  0.00    +0.000 C 
ATOM     10  C   UNL     1       7.654   4.381  16.483  0.00  0.00    +0.000 C 
ATOM     11  S   UNL     1       7.026   4.878  14.841  0.00  0.00    +0.000 S 
ATOM     12  C   UNL     1       5.270   4.446  15.091  0.00  0.00    +0.000 C 
ATOM     13  C   UNL     1       4.715   5.080  16.368  0.00  0.00    +0.000 C 
ENDBRANCH   1   7
BRANCH   5  14
ATOM     14  C   UNL     1       2.136   5.536  19.246  0.00  0.00    +0.000 A 
ATOM     15  C   UNL     1       1.691   5.870  20.535  0.00  0.00    +0.000 A 
ATOM     16  C   UNL     1       1.536   7.210  20.903  0.00  0.00    +0.000 A 
ATOM     17  C   UNL     1       1.802   8.221  19.984  0.00  0.00    +0.000 A 
ATOM     18  C   UNL     1       2.214   7.896  18.695  0.00  0.00    +0.000 A 
ATOM     19  C   UNL     1       2.380   6.559  18.322  0.00  0.00    +0.000 A 
ENDBRANCH   5  14
TORSDOF 2
ENDMDL
MODEL 7
REMARK VINA RESULT:      -7.0      2.245      4.033
REMARK  Name = 
REMARK  2 active torsions:
REMARK  status: ('A' for Active; 'I' for Inactive)
REMARK    1  A    between atoms: C_2  and  C_3
REMARK    2  A    between atoms: N_7  and  C_8
REMARK                            x       y       z     vdW  Elec       q    Type
REMARK                         _______ _______ _______ _____ _____    ______ ____
ROOT
ATOM      1  C   UNL     1       4.142   4.218  19.363  0.00  0.00    +0.000 A 
ATOM      2  C   UNL     1       3.986   2.884  19.710  0.00  0.00    +0.000 A 
ATOM      3  N   UNL     1       2.734   2.606  20.160  0.00  0.00    +0.000 NA
ATOM      4  C   UNL     1       2.123   3.767  20.156  0.00  0.00    +0.000 A 
ATOM      5  N   UNL     1       2.911   4.796  19.677  0.00  0.00    +0.000 N 
ENDROOT
BRANCH   1   7
ATOM      6  O   UNL     1       6.186   5.239  19.820  0.00  0.00    +0.000 OA
ATOM      7  C   UNL     1       5.362   4.898  18.976  0.00  0.00    +0.000 C 
ATOM      8  N   UNL     1       5.597   5.137  17.617  0.00  0.00    +0.000 N 
ATOM      9  C   UNL     1       6.881   5.723  17.215  0.00  0.00    +0.000 C 
ATOM     10  C   UNL     1       7.641   4.845  16.216  0.00  0.00    +0.000 C 
ATOM     11  S   UNL     1       6.682   4.527  14.693  0.00  0.00    +0.000 S 
ATOM     12  C   UNL     1       5.131   3.964  15.475  0.00  0.00    +0.000 C 
ATOM     13  C   UNL     1       4.635   4.967  16.518  0.00  0.00    +0.000 C 
ENDBRANCH   1   7
BRANCH   5  14
ATOM     14  C   UNL     1       2.468   6.143  19.529  0.00  0.00    +0.000 A 
ATOM     15  C   UNL     1       1.932   6.822  20.634  0.00  0.00    +0.000 A 
ATOM     16  C   UNL     1       1.521   8.153  20.513  0.00  0.00    +0.000 A 
ATOM     17  C   UNL     1       1.620   8.806  19.287  0.00  0.00    +0.000 A 
ATOM     18  C   UNL     1       2.122   8.128  18.180  0.00  0.00    +0.000 A 
ATOM     19  C   UNL     1       2.544   6.800  18.295  0.00  0.00    +0.000 A 
ENDBRANCH   5  14
TORSDOF 2
ENDMDL
MODEL 8
REMARK VINA RESULT:      -7.0      2.208      4.463
REMARK  Name = 
REMARK  2 active torsions:
REMARK  status: ('A' for Active; 'I' for Inactive)
REMARK    1  A    between atoms: C_2  and  C_3
REMARK    2  A    between atoms: N_7  and  C_8
REMARK                            x       y       z     vdW  Elec       q    Type
REMARK                         _______ _______ _______ _____ _____    ______ ____
ROOT
ATOM      1  C   UNL     1       5.960   5.526  18.288  0.00  0.00    +0.000 A 
ATOM      2  C   UNL     1       6.728   5.560  19.443  0.00  0.00    +0.000 A 
ATOM      3  N   UNL     1       7.975   5.051  19.253  0.00  0.00    +0.000 NA
ATOM      4  C   UNL     1       7.973   4.644  18.006  0.00  0.00    +0.000 A 
ATOM      5  N   UNL     1       6.785   4.904  17.350  0.00  0.00    +0.000 N 
ENDROOT
BRANCH   1   7
ATOM      6  O   UNL     1       4.206   6.888  17.582  0.00  0.00    +0.000 OA
ATOM      7  C   UNL     1       4.556   5.854  18.146  0.00  0.00    +0.000 C 
ATOM      8  N   UNL     1       3.602   4.957  18.639  0.00  0.00    +0.000 N 
ATOM      9  C   UNL     1       2.181   5.233  18.394  0.00  0.00    +0.000 C 
ATOM     10  C   UNL     1       1.479   4.092  17.651  0.00  0.00    +0.000 C 
ATOM     11  S   UNL     1       1.585   2.503  18.548  0.00  0.00    +0.000 S 
ATOM     12  C   UNL     1       3.386   2.488  18.842  0.00  0.00    +0.000 C 
ATOM     13  C   UNL     1       3.857   3.790  19.495  0.00  0.00    +0.000 C 
ENDBRANCH   1   7
BRANCH   5  14
ATOM     14  C   UNL     1       6.544   4.601  15.978  0.00  0.00    +0.000 A 
ATOM     15  C   UNL     1       7.392   5.129  14.991  0.00  0.00    +0.000 A 
ATOM     16  C   UNL     1       7.186   4.817  13.644  0.00  0.00    +0.000 A 
ATOM     17  C   UNL     1       6.125   3.997  13.271  0.00  0.00    +0.000 A 
ATOM     18  C   UNL     1       5.262   3.495  14.242  0.00  0.00    +0.000 A 
ATOM     19  C   UNL     1       5.466   3.795  15.592  0.00  0.00    +0.000 A 
ENDBRANCH   5  14
TORSDOF 2
ENDMDL
MODEL 9
REMARK VINA RESULT:      -6.9      2.211      4.533
REMARK  Name = 
REMARK  2 active torsions:
REMARK  status: ('A' for Active; 'I' for Inactive)
REMARK    1  A    between atoms: C_2  and  C_3
REMARK    2  A    between atoms: N_7  and  C_8
REMARK                            x       y       z     vdW  Elec       q    Type
REMARK                         _______ _______ _______ _____ _____    ______ ____
ROOT
ATOM      1  C   UNL     1       5.972   5.524  18.288  0.00  0.00    +0.000 A 
ATOM      2  C   UNL     1       6.732   5.560  19.447  0.00  0.00    +0.000 A 
ATOM      3  N   UNL     1       7.977   5.041  19.268  0.00  0.00    +0.000 NA
ATOM      4  C   UNL     1       7.980   4.626  18.024  0.00  0.00    +0.000 A 
ATOM      5  N   UNL     1       6.798   4.891  17.359  0.00  0.00    +0.000 N 
ENDROOT
BRANCH   1   7
ATOM      6  O   UNL     1       4.232   6.893  17.560  0.00  0.00    +0.000 OA
ATOM      7  C   UNL     1       4.570   5.861  18.134  0.00  0.00    +0.000 C 
ATOM      8  N   UNL     1       3.607   4.975  18.629  0.00  0.00    +0.000 N 
ATOM      9  C   UNL     1       2.190   5.259  18.374  0.00  0.00    +0.000 C 
ATOM     10  C   UNL     1       1.484   4.117  17.637  0.00  0.00    +0.000 C 
ATOM     11  S   UNL     1       1.573   2.536  18.548  0.00  0.00    +0.000 S 
ATOM     12  C   UNL     1       3.372   2.510  18.853  0.00  0.00    +0.000 C 
ATOM     13  C   UNL     1       3.848   3.814  19.497  0.00  0.00    +0.000 C 
ENDBRANCH   1   7
BRANCH   5  14
ATOM     14  C   UNL     1       6.564   4.581  15.987  0.00  0.00    +0.000 A 
ATOM     15  C   UNL     1       5.508   3.723  15.640  0.00  0.00    +0.000 A 
ATOM     16  C   UNL     1       5.247   3.433  14.298  0.00  0.00    +0.000 A 
ATOM     17  C   UNL     1       6.049   3.976  13.297  0.00  0.00    +0.000 A 
ATOM     18  C   UNL     1       7.117   4.803  13.636  0.00  0.00    +0.000 A 
ATOM     19  C   UNL     1       7.378   5.105  14.976  0.00  0.00    +0.000 A 
ENDBRANCH   5  14
TORSDOF 2
ENDMDL
