MODEL 1
REMARK VINA RESULT:      -8.2      0.000      0.000
REMARK  Name = 
REMARK  11 active torsions:
REMARK  status: ('A' for Active; 'I' for Inactive)
REMARK    1  A    between atoms: C_1  and  C_2
REMARK    2  A    between atoms: C_2  and  C_3
REMARK    3  A    between atoms: C_2  and  C_4
REMARK    4  A    between atoms: N_6  and  C_7
REMARK    5  A    between atoms: C_7  and  C_8
REMARK    6  A    between atoms: C_7  and  C_21
REMARK    7  A    between atoms: C_8  and  C_9
REMARK    8  A    between atoms: C_11  and  N_12
REMARK    9  A    between atoms: N_12  and  C_13
REMARK   10  A    between atoms: N_12  and  C_14
REMARK   11  A    between atoms: C_16  and  C_17
REMARK                            x       y       z     vdW  Elec       q    Type
REMARK                         _______ _______ _______ _____ _____    ______ ____
ROOT
ATOM      1  C   UNL     1       5.170   6.078  16.281  0.00  0.00    +0.000 C 
ENDROOT
BRANCH   1   2
ATOM      2  C   UNL     1       6.310   6.398  17.238  0.00  0.00    +0.000 A 
ATOM      3  C   UNL     1       6.727   5.448  18.186  0.00  0.00    +0.000 A 
ATOM      4  C   UNL     1       7.781   5.732  19.066  0.00  0.00    +0.000 A 
ATOM      5  C   UNL     1       8.432   6.961  19.004  0.00  0.00    +0.000 A 
ATOM      6  C   UNL     1       8.031   7.913  18.067  0.00  0.00    +0.000 A 
ATOM      7  C   UNL     1       6.981   7.631  17.192  0.00  0.00    +0.000 A 
ENDBRANCH   1   2
BRANCH   1  10
ATOM      8  C   UNL     1       6.156   4.599  14.480  0.00  0.00    +0.000 C 
ATOM      9  O   UNL     1       6.275   3.598  15.183  0.00  0.00    +0.000 OA
ATOM     10  N   UNL     1       5.671   5.803  14.933  0.00  0.00    +0.000 N 
ATOM     11  H   UNL     1       5.777   6.609  14.334  0.00  0.00    +0.000 HD
BRANCH   8  13
ATOM     12  C   UNL     1       7.838   5.073  12.656  0.00  0.00    +0.000 C 
ATOM     13  C   UNL     1       6.427   4.587  12.978  0.00  0.00    +0.000 C 
ATOM     14  C   UNL     1       6.217   3.163  12.460  0.00  0.00    +0.000 C 
ENDBRANCH   8  13
ENDBRANCH   1  10
BRANCH   1  15
ATOM     15  C   UNL     1       4.205   5.028  16.875  0.00  0.00    +0.000 C 
BRANCH  15  16
ATOM     16  C   UNL     1       3.411   5.513  18.068  0.00  0.00    +0.000 A 
ATOM     17  C   UNL     1       3.082   6.853  18.177  0.00  0.00    +0.000 A 
ATOM     18  C   UNL     1       2.290   7.257  19.237  0.00  0.00    +0.000 A 
ATOM     19  N   UNL     1       1.838   6.331  20.104  0.00  0.00    +0.000 NA
ATOM     20  C   UNL     1       2.132   5.030  19.911  0.00  0.00    +0.000 A 
ATOM     21  N   UNL     1       2.928   4.589  18.920  0.00  0.00    +0.000 NA
BRANCH  18  22
ATOM     22  N   UNL     1       1.824   8.567  19.361  0.00  0.00    +0.000 N 
ATOM     23  C   UNL     1       1.499   9.253  18.110  0.00  0.00    +0.000 C 
ATOM     24  C   UNL     1       0.984   8.954  20.490  0.00  0.00    +0.000 C 
ENDBRANCH  18  22
BRANCH  20  25
ATOM     25  C   UNL     1       1.369   4.024  20.736  0.00  0.00    +0.000 C 
ATOM     26  C   UNL     1       1.516   2.537  20.529  0.00  0.00    +0.000 C 
ATOM     27  C   UNL     1       2.056   3.173  21.776  0.00  0.00    +0.000 C 
ENDBRANCH  20  25
ENDBRANCH  15  16
ENDBRANCH   1  15
TORSDOF 7
ENDMDL
MODEL 2
REMARK VINA RESULT:      -8.2      2.346      5.300
REMARK  Name = 
REMARK  11 active torsions:
REMARK  status: ('A' for Active; 'I' for Inactive)
REMARK    1  A    between atoms: C_1  and  C_2
REMARK    2  A    between atoms: C_2  and  C_3
REMARK    3  A    between atoms: C_2  and  C_4
REMARK    4  A    between atoms: N_6  and  C_7
REMARK    5  A    between atoms: C_7  and  C_8
REMARK    6  A    between atoms: C_7  and  C_21
REMARK    7  A    between atoms: C_8  and  C_9
REMARK    8  A    between atoms: C_11  and  N_12
REMARK    9  A    between atoms: N_12  and  C_13
REMARK   10  A    between atoms: N_12  and  C_14
REMARK   11  A    between atoms: C_16  and  C_17
REMARK                            x       y       z     vdW  Elec       q    Type
REMARK                         _______ _______ _______ _____ _____    ______ ____
ROOT
ATOM      1  C   UNL     1       3.006   6.893  18.489  0.00  0.00    +0.000 C 
ENDROOT
BRANCH   1   2
ATOM      2  C   UNL     1       2.287   5.606  18.872  0.00  0.00    +0.000 A 
ATOM      3  C   UNL     1       1.914   5.375  20.207  0.00  0.00    +0.000 A 
ATOM      4  C   UNL     1       1.245   4.196  20.568  0.00  0.00    +0.000 A 
ATOM      5  C   UNL     1       0.938   3.243  19.601  0.00  0.00    +0.000 A 
ATOM      6  C   UNL     1       1.299   3.461  18.272  0.00  0.00    +0.000 A 
ATOM      7  C   UNL     1       1.966   4.633  17.913  0.00  0.00    +0.000 A 
ENDBRANCH   1   2
BRANCH   1  10
ATOM      8  C   UNL     1       5.351   5.958  18.331  0.00  0.00    +0.000 C 
ATOM      9  O   UNL     1       5.414   5.565  19.494  0.00  0.00    +0.000 OA
ATOM     10  N   UNL     1       4.265   6.612  17.798  0.00  0.00    +0.000 N 
ATOM     11  H   UNL     1       4.376   7.050  16.895  0.00  0.00    +0.000 HD
BRANCH   8  13
ATOM     12  C   UNL     1       5.862   5.545  15.892  0.00  0.00    +0.000 C 
ATOM     13  C   UNL     1       6.437   5.659  17.301  0.00  0.00    +0.000 C 
ATOM     14  C   UNL     1       7.484   6.774  17.366  0.00  0.00    +0.000 C 
ENDBRANCH   8  13
ENDBRANCH   1  10
BRANCH   1  15
ATOM     15  C   UNL     1       2.055   7.891  17.792  0.00  0.00    +0.000 C 
BRANCH  15  16
ATOM     16  C   UNL     1       1.717   9.114  18.617  0.00  0.00    +0.000 A 
ATOM     17  C   UNL     1       1.921  10.377  18.089  0.00  0.00    +0.000 A 
ATOM     18  C   UNL     1       1.532  11.476  18.834  0.00  0.00    +0.000 A 
ATOM     19  N   UNL     1       0.939  11.281  20.027  0.00  0.00    +0.000 NA
ATOM     20  C   UNL     1       0.703  10.027  20.461  0.00  0.00    +0.000 A 
ATOM     21  N   UNL     1       1.094   8.925  19.795  0.00  0.00    +0.000 NA
BRANCH  18  22
ATOM     22  N   UNL     1       1.602  12.778  18.332  0.00  0.00    +0.000 N 
ATOM     23  C   UNL     1       0.436  13.625  18.587  0.00  0.00    +0.000 C 
ATOM     24  C   UNL     1       2.870  13.498  18.307  0.00  0.00    +0.000 C 
ENDBRANCH  18  22
BRANCH  20  25
ATOM     25  C   UNL     1      -0.211   9.873  21.652  0.00  0.00    +0.000 C 
ATOM     26  C   UNL     1      -0.511   8.530  22.267  0.00  0.00    +0.000 C 
ATOM     27  C   UNL     1       0.326   9.523  23.018  0.00  0.00    +0.000 C 
ENDBRANCH  20  25
ENDBRANCH  15  16
ENDBRANCH   1  15
TORSDOF 7
ENDMDL
MODEL 3
REMARK VINA RESULT:      -8.2      2.284      5.150
REMARK  Name = 
REMARK  11 active torsions:
REMARK  status: ('A' for Active; 'I' for Inactive)
REMARK    1  A    between atoms: C_1  and  C_2
REMARK    2  A    between atoms: C_2  and  C_3
REMARK    3  A    between atoms: C_2  and  C_4
REMARK    4  A    between atoms: N_6  and  C_7
REMARK    5  A    between atoms: C_7  and  C_8
REMARK    6  A    between atoms: C_7  and  C_21
REMARK    7  A    between atoms: C_8  and  C_9
REMARK    8  A    between atoms: C_11  and  N_12
REMARK    9  A    between atoms: N_12  and  C_13
REMARK   10  A    between atoms: N_12  and  C_14
REMARK   11  A    between atoms: C_16  and  C_17
REMARK                            x       y       z     vdW  Elec       q    Type
REMARK                         _______ _______ _______ _____ _____    ______ ____
ROOT
ATOM      1  C   UNL     1       3.106   6.626  18.425  0.00  0.00    +0.000 C 
ENDROOT
BRANCH   1   2
ATOM      2  C   UNL     1       2.319   5.402  18.874  0.00  0.00    +0.000 A 
ATOM      3  C   UNL     1       1.986   5.232  20.229  0.00  0.00    +0.000 A 
ATOM      4  C   UNL     1       1.255   4.113  20.650  0.00  0.00    +0.000 A 
ATOM      5  C   UNL     1       0.845   3.157  19.725  0.00  0.00    +0.000 A 
ATOM      6  C   UNL     1       1.165   3.314  18.377  0.00  0.00    +0.000 A 
ATOM      7  C   UNL     1       1.894   4.427  17.958  0.00  0.00    +0.000 A 
ENDBRANCH   1   2
BRANCH   1  10
ATOM      8  C   UNL     1       5.411   5.619  18.156  0.00  0.00    +0.000 C 
ATOM      9  O   UNL     1       5.575   5.348  19.343  0.00  0.00    +0.000 OA
ATOM     10  N   UNL     1       4.291   6.242  17.657  0.00  0.00    +0.000 N 
ATOM     11  H   UNL     1       4.325   6.581  16.706  0.00  0.00    +0.000 HD
BRANCH   8  13
ATOM     12  C   UNL     1       7.671   4.603  17.664  0.00  0.00    +0.000 C 
ATOM     13  C   UNL     1       6.393   5.187  17.070  0.00  0.00    +0.000 C 
ATOM     14  C   UNL     1       5.699   4.161  16.172  0.00  0.00    +0.000 C 
ENDBRANCH   8  13
ENDBRANCH   1  10
BRANCH   1  15
ATOM     15  C   UNL     1       2.189   7.687  17.777  0.00  0.00    +0.000 C 
BRANCH  15  16
ATOM     16  C   UNL     1       1.791   8.818  18.701  0.00  0.00    +0.000 A 
ATOM     17  C   UNL     1       1.480  10.059  18.173  0.00  0.00    +0.000 A 
ATOM     18  C   UNL     1       1.044  11.053  19.032  0.00  0.00    +0.000 A 
ATOM     19  N   UNL     1       0.905  10.770  20.341  0.00  0.00    +0.000 NA
ATOM     20  C   UNL     1       1.157   9.524  20.789  0.00  0.00    +0.000 A 
ATOM     21  N   UNL     1       1.618   8.533  20.005  0.00  0.00    +0.000 NA
BRANCH  18  22
ATOM     22  N   UNL     1       0.608  12.296  18.571  0.00  0.00    +0.000 N 
ATOM     23  C   UNL     1      -0.726  12.709  19.009  0.00  0.00    +0.000 C 
ATOM     24  C   UNL     1       1.548  13.399  18.401  0.00  0.00    +0.000 C 
ENDBRANCH  18  22
BRANCH  20  25
ATOM     25  C   UNL     1       0.712   9.196  22.193  0.00  0.00    +0.000 C 
ATOM     26  C   UNL     1      -0.326  10.015  22.918  0.00  0.00    +0.000 C 
ATOM     27  C   UNL     1      -0.655   8.621  22.473  0.00  0.00    +0.000 C 
ENDBRANCH  20  25
ENDBRANCH  15  16
ENDBRANCH   1  15
TORSDOF 7
ENDMDL
MODEL 4
REMARK VINA RESULT:      -8.1      1.563      6.663
REMARK  Name = 
REMARK  11 active torsions:
REMARK  status: ('A' for Active; 'I' for Inactive)
REMARK    1  A    between atoms: C_1  and  C_2
REMARK    2  A    between atoms: C_2  and  C_3
REMARK    3  A    between atoms: C_2  and  C_4
REMARK    4  A    between atoms: N_6  and  C_7
REMARK    5  A    between atoms: C_7  and  C_8
REMARK    6  A    between atoms: C_7  and  C_21
REMARK    7  A    between atoms: C_8  and  C_9
REMARK    8  A    between atoms: C_11  and  N_12
REMARK    9  A    between atoms: N_12  and  C_13
REMARK   10  A    between atoms: N_12  and  C_14
REMARK   11  A    between atoms: C_16  and  C_17
REMARK                            x       y       z     vdW  Elec       q    Type
REMARK                         _______ _______ _______ _____ _____    ______ ____
ROOT
ATOM      1  C   UNL     1       2.922   6.145  18.776  0.00  0.00    +0.000 C 
ENDROOT
BRANCH   1   2
ATOM      2  C   UNL     1       2.184   7.338  19.370  0.00  0.00    +0.000 A 
ATOM      3  C   UNL     1       1.921   8.471  18.581  0.00  0.00    +0.000 A 
ATOM      4  C   UNL     1       1.236   9.570  19.117  0.00  0.00    +0.000 A 
ATOM      5  C   UNL     1       0.802   9.547  20.440  0.00  0.00    +0.000 A 
ATOM      6  C   UNL     1       1.053   8.428  21.233  0.00  0.00    +0.000 A 
ATOM      7  C   UNL     1       1.736   7.335  20.700  0.00  0.00    +0.000 A 
ENDBRANCH   1   2
BRANCH   1  10
ATOM      8  C   UNL     1       2.953   3.677  19.333  0.00  0.00    +0.000 C 
ATOM      9  O   UNL     1       4.142   3.501  19.081  0.00  0.00    +0.000 OA
ATOM     10  N   UNL     1       2.306   4.882  19.187  0.00  0.00    +0.000 N 
ATOM     11  H   UNL     1       1.298   4.886  19.246  0.00  0.00    +0.000 HD
BRANCH   8  13
ATOM     12  C   UNL     1       1.498   3.033  21.296  0.00  0.00    +0.000 C 
ATOM     13  C   UNL     1       2.072   2.594  19.951  0.00  0.00    +0.000 C 
ATOM     14  C   UNL     1       0.947   2.266  18.967  0.00  0.00    +0.000 C 
ENDBRANCH   8  13
ENDBRANCH   1  10
BRANCH   1  15
ATOM     15  C   UNL     1       3.165   6.322  17.261  0.00  0.00    +0.000 C 
BRANCH  15  16
ATOM     16  C   UNL     1       4.616   6.218  16.844  0.00  0.00    +0.000 A 
ATOM     17  C   UNL     1       5.597   6.820  17.612  0.00  0.00    +0.000 A 
ATOM     18  C   UNL     1       6.921   6.644  17.252  0.00  0.00    +0.000 A 
ATOM     19  N   UNL     1       7.212   5.869  16.190  0.00  0.00    +0.000 NA
ATOM     20  C   UNL     1       6.220   5.250  15.519  0.00  0.00    +0.000 A 
ATOM     21  N   UNL     1       4.915   5.417  15.804  0.00  0.00    +0.000 NA
BRANCH  18  22
ATOM     22  N   UNL     1       7.975   7.126  18.031  0.00  0.00    +0.000 N 
ATOM     23  C   UNL     1       8.184   8.574  18.001  0.00  0.00    +0.000 C 
ATOM     24  C   UNL     1       8.301   6.501  19.309  0.00  0.00    +0.000 C 
ENDBRANCH  18  22
BRANCH  20  25
ATOM     25  C   UNL     1       6.620   4.180  14.534  0.00  0.00    +0.000 C 
ATOM     26  C   UNL     1       5.720   3.750  13.404  0.00  0.00    +0.000 C 
ATOM     27  C   UNL     1       6.976   4.515  13.107  0.00  0.00    +0.000 C 
ENDBRANCH  20  25
ENDBRANCH  15  16
ENDBRANCH   1  15
TORSDOF 7
ENDMDL
MODEL 5
REMARK VINA RESULT:      -8.1      2.297      5.301
REMARK  Name = 
REMARK  11 active torsions:
REMARK  status: ('A' for Active; 'I' for Inactive)
REMARK    1  A    between atoms: C_1  and  C_2
REMARK    2  A    between atoms: C_2  and  C_3
REMARK    3  A    between atoms: C_2  and  C_4
REMARK    4  A    between atoms: N_6  and  C_7
REMARK    5  A    between atoms: C_7  and  C_8
REMARK    6  A    between atoms: C_7  and  C_21
REMARK    7  A    between atoms: C_8  and  C_9
REMARK    8  A    between atoms: C_11  and  N_12
REMARK    9  A    between atoms: N_12  and  C_13
REMARK   10  A    between atoms: N_12  and  C_14
REMARK   11  A    between atoms: C_16  and  C_17
REMARK                            x       y       z     vdW  Elec       q    Type
REMARK                         _______ _______ _______ _____ _____    ______ ____
ROOT
ATOM      1  C   UNL     1       3.188   6.436  19.177  0.00  0.00    +0.000 C 
ENDROOT
BRANCH   1   2
ATOM      2  C   UNL     1       2.345   5.173  19.277  0.00  0.00    +0.000 A 
ATOM      3  C   UNL     1       1.884   4.726  20.528  0.00  0.00    +0.000 A 
ATOM      4  C   UNL     1       1.100   3.568  20.628  0.00  0.00    +0.000 A 
ATOM      5  C   UNL     1       0.764   2.850  19.484  0.00  0.00    +0.000 A 
ATOM      6  C   UNL     1       1.212   3.282  18.237  0.00  0.00    +0.000 A 
ATOM      7  C   UNL     1       1.993   4.434  18.137  0.00  0.00    +0.000 A 
ENDBRANCH   1   2
BRANCH   1  10
ATOM      8  C   UNL     1       5.284   5.949  17.847  0.00  0.00    +0.000 C 
ATOM      9  O   UNL     1       4.753   6.003  16.740  0.00  0.00    +0.000 OA
ATOM     10  N   UNL     1       4.609   6.115  19.034  0.00  0.00    +0.000 N 
ATOM     11  H   UNL     1       5.092   5.878  19.888  0.00  0.00    +0.000 HD
BRANCH   8  13
ATOM     12  C   UNL     1       7.352   4.647  17.206  0.00  0.00    +0.000 C 
ATOM     13  C   UNL     1       6.793   5.804  18.030  0.00  0.00    +0.000 C 
ATOM     14  C   UNL     1       7.457   7.122  17.627  0.00  0.00    +0.000 C 
ENDBRANCH   8  13
ENDBRANCH   1  10
BRANCH   1  15
ATOM     15  C   UNL     1       2.607   7.430  18.147  0.00  0.00    +0.000 C 
BRANCH  15  16
ATOM     16  C   UNL     1       1.732   8.510  18.744  0.00  0.00    +0.000 A 
ATOM     17  C   UNL     1       0.856   9.212  17.934  0.00  0.00    +0.000 A 
ATOM     18  C   UNL     1       0.013  10.139  18.518  0.00  0.00    +0.000 A 
ATOM     19  N   UNL     1       0.047  10.303  19.854  0.00  0.00    +0.000 NA
ATOM     20  C   UNL     1       0.871   9.543  20.603  0.00  0.00    +0.000 A 
ATOM     21  N   UNL     1       1.738   8.655  20.083  0.00  0.00    +0.000 NA
BRANCH  18  22
ATOM     22  N   UNL     1      -0.973  10.811  17.792  0.00  0.00    +0.000 N 
ATOM     23  C   UNL     1      -1.930   9.965  17.078  0.00  0.00    +0.000 C 
ATOM     24  C   UNL     1      -1.535  12.065  18.283  0.00  0.00    +0.000 C 
ENDBRANCH  18  22
BRANCH  20  25
ATOM     25  C   UNL     1       0.659   9.567  22.097  0.00  0.00    +0.000 C 
ATOM     26  C   UNL     1      -0.427  10.390  22.741  0.00  0.00    +0.000 C 
ATOM     27  C   UNL     1      -0.532   8.894  22.735  0.00  0.00    +0.000 C 
ENDBRANCH  20  25
ENDBRANCH  15  16
ENDBRANCH   1  15
TORSDOF 7
ENDMDL
MODEL 6
REMARK VINA RESULT:      -8.1      2.316      5.200
REMARK  Name = 
REMARK  11 active torsions:
REMARK  status: ('A' for Active; 'I' for Inactive)
REMARK    1  A    between atoms: C_1  and  C_2
REMARK    2  A    between atoms: C_2  and  C_3
REMARK    3  A    between atoms: C_2  and  C_4
REMARK    4  A    between atoms: N_6  and  C_7
REMARK    5  A    between atoms: C_7  and  C_8
REMARK    6  A    between atoms: C_7  and  C_21
REMARK    7  A    between atoms: C_8  and  C_9
REMARK    8  A    between atoms: C_11  and  N_12
REMARK    9  A    between atoms: N_12  and  C_13
REMARK   10  A    between atoms: N_12  and  C_14
REMARK   11  A    between atoms: C_16  and  C_17
REMARK                            x       y       z     vdW  Elec       q    Type
REMARK                         _______ _______ _______ _____ _____    ______ ____
ROOT
ATOM      1  C   UNL     1       2.988   6.822  18.385  0.00  0.00    +0.000 C 
ENDROOT
BRANCH   1   2
ATOM      2  C   UNL     1       2.309   5.533  18.829  0.00  0.00    +0.000 A 
ATOM      3  C   UNL     1       1.952   4.558  17.881  0.00  0.00    +0.000 A 
ATOM      4  C   UNL     1       1.333   3.366  18.282  0.00  0.00    +0.000 A 
ATOM      5  C   UNL     1       1.071   3.133  19.629  0.00  0.00    +0.000 A 
ATOM      6  C   UNL     1       1.422   4.089  20.581  0.00  0.00    +0.000 A 
ATOM      7  C   UNL     1       2.036   5.277  20.182  0.00  0.00    +0.000 A 
ENDBRANCH   1   2
BRANCH   1  10
ATOM      8  C   UNL     1       5.328   5.957  17.959  0.00  0.00    +0.000 C 
ATOM      9  O   UNL     1       5.561   5.633  19.121  0.00  0.00    +0.000 OA
ATOM     10  N   UNL     1       4.155   6.544  17.545  0.00  0.00    +0.000 N 
ATOM     11  H   UNL     1       4.126   6.934  16.614  0.00  0.00    +0.000 HD
BRANCH   8  13
ATOM     12  C   UNL     1       7.313   4.588  17.205  0.00  0.00    +0.000 C 
ATOM     13  C   UNL     1       6.278   5.637  16.808  0.00  0.00    +0.000 C 
ATOM     14  C   UNL     1       5.449   5.151  15.618  0.00  0.00    +0.000 C 
ENDBRANCH   8  13
ENDBRANCH   1  10
BRANCH   1  15
ATOM     15  C   UNL     1       1.971   7.838  17.822  0.00  0.00    +0.000 C 
BRANCH  15  16
ATOM     16  C   UNL     1       1.686   9.010  18.736  0.00  0.00    +0.000 A 
ATOM     17  C   UNL     1       1.497  10.271  18.199  0.00  0.00    +0.000 A 
ATOM     18  C   UNL     1       1.162  11.309  19.050  0.00  0.00    +0.000 A 
ATOM     19  N   UNL     1       0.997  11.052  20.361  0.00  0.00    +0.000 NA
ATOM     20  C   UNL     1       1.125   9.791  20.819  0.00  0.00    +0.000 A 
ATOM     21  N   UNL     1       1.487   8.753  20.043  0.00  0.00    +0.000 NA
BRANCH  18  22
ATOM     22  N   UNL     1       0.849  12.586  18.579  0.00  0.00    +0.000 N 
ATOM     23  C   UNL     1      -0.559  12.976  18.674  0.00  0.00    +0.000 C 
ATOM     24  C   UNL     1       1.787  13.691  18.745  0.00  0.00    +0.000 C 
ENDBRANCH  18  22
BRANCH  20  25
ATOM     25  C   UNL     1       0.651   9.519  22.226  0.00  0.00    +0.000 C 
ATOM     26  C   UNL     1      -0.500  10.272  22.844  0.00  0.00    +0.000 C 
ATOM     27  C   UNL     1      -0.660   8.822  22.495  0.00  0.00    +0.000 C 
ENDBRANCH  20  25
ENDBRANCH  15  16
ENDBRANCH   1  15
TORSDOF 7
ENDMDL
MODEL 7
REMARK VINA RESULT:      -8.1      2.284      5.309
REMARK  Name = 
REMARK  11 active torsions:
REMARK  status: ('A' for Active; 'I' for Inactive)
REMARK    1  A    between atoms: C_1  and  C_2
REMARK    2  A    between atoms: C_2  and  C_3
REMARK    3  A    between atoms: C_2  and  C_4
REMARK    4  A    between atoms: N_6  and  C_7
REMARK    5  A    between atoms: C_7  and  C_8
REMARK    6  A    between atoms: C_7  and  C_21
REMARK    7  A    between atoms: C_8  and  C_9
REMARK    8  A    between atoms: C_11  and  N_12
REMARK    9  A    between atoms: N_12  and  C_13
REMARK   10  A    between atoms: N_12  and  C_14
REMARK   11  A    between atoms: C_16  and  C_17
REMARK                            x       y       z     vdW  Elec       q    Type
REMARK                         _______ _______ _______ _____ _____    ______ ____
ROOT
ATOM      1  C   UNL     1       2.916   6.688  18.599  0.00  0.00    +0.000 C 
ENDROOT
BRANCH   1   2
ATOM      2  C   UNL     1       2.211   5.380  18.931  0.00  0.00    +0.000 A 
ATOM      3  C   UNL     1       1.848   4.491  17.905  0.00  0.00    +0.000 A 
ATOM      4  C   UNL     1       1.205   3.281  18.203  0.00  0.00    +0.000 A 
ATOM      5  C   UNL     1       0.925   2.945  19.524  0.00  0.00    +0.000 A 
ATOM      6  C   UNL     1       1.281   3.816  20.553  0.00  0.00    +0.000 A 
ATOM      7  C   UNL     1       1.920   5.021  20.257  0.00  0.00    +0.000 A 
ENDBRANCH   1   2
BRANCH   1  10
ATOM      8  C   UNL     1       5.283   5.850  18.287  0.00  0.00    +0.000 C 
ATOM      9  O   UNL     1       5.444   5.477  19.447  0.00  0.00    +0.000 OA
ATOM     10  N   UNL     1       4.136   6.451  17.824  0.00  0.00    +0.000 N 
ATOM     11  H   UNL     1       4.165   6.881  16.911  0.00  0.00    +0.000 HD
BRANCH   8  13
ATOM     12  C   UNL     1       5.656   5.540  15.808  0.00  0.00    +0.000 C 
ATOM     13  C   UNL     1       6.308   5.584  17.187  0.00  0.00    +0.000 C 
ATOM     14  C   UNL     1       7.373   6.680  17.244  0.00  0.00    +0.000 C 
ENDBRANCH   8  13
ENDBRANCH   1  10
BRANCH   1  15
ATOM     15  C   UNL     1       1.937   7.734  18.022  0.00  0.00    +0.000 C 
BRANCH  15  16
ATOM     16  C   UNL     1       1.655   8.901  18.942  0.00  0.00    +0.000 A 
ATOM     17  C   UNL     1       1.484  10.169  18.413  0.00  0.00    +0.000 A 
ATOM     18  C   UNL     1       1.150  11.204  19.268  0.00  0.00    +0.000 A 
ATOM     19  N   UNL     1       0.971  10.939  20.576  0.00  0.00    +0.000 NA
ATOM     20  C   UNL     1       1.083   9.673  21.026  0.00  0.00    +0.000 A 
ATOM     21  N   UNL     1       1.442   8.637  20.245  0.00  0.00    +0.000 NA
BRANCH  18  22
ATOM     22  N   UNL     1       0.854  12.487  18.804  0.00  0.00    +0.000 N 
ATOM     23  C   UNL     1       1.967  13.222  18.202  0.00  0.00    +0.000 C 
ATOM     24  C   UNL     1      -0.447  12.783  18.213  0.00  0.00    +0.000 C 
ENDBRANCH  18  22
BRANCH  20  25
ATOM     25  C   UNL     1       0.594   9.396  22.426  0.00  0.00    +0.000 C 
ATOM     26  C   UNL     1      -0.492  10.218  23.075  0.00  0.00    +0.000 C 
ATOM     27  C   UNL     1      -0.768   8.797  22.681  0.00  0.00    +0.000 C 
ENDBRANCH  20  25
ENDBRANCH  15  16
ENDBRANCH   1  15
TORSDOF 7
ENDMDL
MODEL 8
REMARK VINA RESULT:      -8.0      1.315      3.880
REMARK  Name = 
REMARK  11 active torsions:
REMARK  status: ('A' for Active; 'I' for Inactive)
REMARK    1  A    between atoms: C_1  and  C_2
REMARK    2  A    between atoms: C_2  and  C_3
REMARK    3  A    between atoms: C_2  and  C_4
REMARK    4  A    between atoms: N_6  and  C_7
REMARK    5  A    between atoms: C_7  and  C_8
REMARK    6  A    between atoms: C_7  and  C_21
REMARK    7  A    between atoms: C_8  and  C_9
REMARK    8  A    between atoms: C_11  and  N_12
REMARK    9  A    between atoms: N_12  and  C_13
REMARK   10  A    between atoms: N_12  and  C_14
REMARK   11  A    between atoms: C_16  and  C_17
REMARK                            x       y       z     vdW  Elec       q    Type
REMARK                         _______ _______ _______ _____ _____    ______ ____
ROOT
ATOM      1  C   UNL     1       5.754   4.091  15.925  0.00  0.00    +0.000 C 
ENDROOT
BRANCH   1   2
ATOM      2  C   UNL     1       6.244   4.156  14.485  0.00  0.00    +0.000 A 
ATOM      3  C   UNL     1       5.566   3.451  13.474  0.00  0.00    +0.000 A 
ATOM      4  C   UNL     1       6.006   3.512  12.144  0.00  0.00    +0.000 A 
ATOM      5  C   UNL     1       7.118   4.279  11.809  0.00  0.00    +0.000 A 
ATOM      6  C   UNL     1       7.798   4.985  12.801  0.00  0.00    +0.000 A 
ATOM      7  C   UNL     1       7.362   4.924  14.124  0.00  0.00    +0.000 A 
ENDBRANCH   1   2
BRANCH   1  10
ATOM      8  C   UNL     1       6.965   6.046  16.979  0.00  0.00    +0.000 C 
ATOM      9  O   UNL     1       6.427   6.916  16.299  0.00  0.00    +0.000 OA
ATOM     10  N   UNL     1       6.720   4.699  16.841  0.00  0.00    +0.000 N 
ATOM     11  H   UNL     1       7.337   4.057  17.317  0.00  0.00    +0.000 HD
BRANCH   8  13
ATOM     12  C   UNL     1       8.099   7.874  18.304  0.00  0.00    +0.000 C 
ATOM     13  C   UNL     1       7.895   6.370  18.146  0.00  0.00    +0.000 C 
ATOM     14  C   UNL     1       7.296   5.772  19.421  0.00  0.00    +0.000 C 
ENDBRANCH   8  13
ENDBRANCH   1  10
BRANCH   1  15
ATOM     15  C   UNL     1       4.294   4.577  16.053  0.00  0.00    +0.000 C 
BRANCH  15  16
ATOM     16  C   UNL     1       3.866   4.908  17.467  0.00  0.00    +0.000 A 
ATOM     17  C   UNL     1       3.413   6.181  17.768  0.00  0.00    +0.000 A 
ATOM     18  C   UNL     1       2.956   6.434  19.049  0.00  0.00    +0.000 A 
ATOM     19  N   UNL     1       2.934   5.430  19.946  0.00  0.00    +0.000 NA
ATOM     20  C   UNL     1       3.323   4.193  19.578  0.00  0.00    +0.000 A 
ATOM     21  N   UNL     1       3.811   3.901  18.358  0.00  0.00    +0.000 NA
BRANCH  18  22
ATOM     22  N   UNL     1       2.383   7.656  19.407  0.00  0.00    +0.000 N 
ATOM     23  C   UNL     1       1.968   8.517  18.298  0.00  0.00    +0.000 C 
ATOM     24  C   UNL     1       1.543   7.766  20.595  0.00  0.00    +0.000 C 
ENDBRANCH  18  22
BRANCH  20  25
ATOM     25  C   UNL     1       3.007   3.064  20.527  0.00  0.00    +0.000 C 
ATOM     26  C   UNL     1       2.005   3.210  21.644  0.00  0.00    +0.000 C 
ATOM     27  C   UNL     1       1.689   2.331  20.470  0.00  0.00    +0.000 C 
ENDBRANCH  20  25
ENDBRANCH  15  16
ENDBRANCH   1  15
TORSDOF 7
ENDMDL
MODEL 9
REMARK VINA RESULT:      -8.0      1.680      6.771
REMARK  Name = 
REMARK  11 active torsions:
REMARK  status: ('A' for Active; 'I' for Inactive)
REMARK    1  A    between atoms: C_1  and  C_2
REMARK    2  A    between atoms: C_2  and  C_3
REMARK    3  A    between atoms: C_2  and  C_4
REMARK    4  A    between atoms: N_6  and  C_7
REMARK    5  A    between atoms: C_7  and  C_8
REMARK    6  A    between atoms: C_7  and  C_21
REMARK    7  A    between atoms: C_8  and  C_9
REMARK    8  A    between atoms: C_11  and  N_12
REMARK    9  A    between atoms: N_12  and  C_13
REMARK   10  A    between atoms: N_12  and  C_14
REMARK   11  A    between atoms: C_16  and  C_17
REMARK                            x       y       z     vdW  Elec       q    Type
REMARK                         _______ _______ _______ _____ _____    ______ ____
ROOT
ATOM      1  C   UNL     1       3.023   6.061  18.707  0.00  0.00    +0.000 C 
ENDROOT
BRANCH   1   2
ATOM      2  C   UNL     1       2.312   7.386  18.940  0.00  0.00    +0.000 A 
ATOM      3  C   UNL     1       2.140   8.294  17.880  0.00  0.00    +0.000 A 
ATOM      4  C   UNL     1       1.479   9.513  18.084  0.00  0.00    +0.000 A 
ATOM      5  C   UNL     1       0.978   9.835  19.342  0.00  0.00    +0.000 A 
ATOM      6  C   UNL     1       1.138   8.944  20.402  0.00  0.00    +0.000 A 
ATOM      7  C   UNL     1       1.797   7.731  20.200  0.00  0.00    +0.000 A 
ENDBRANCH   1   2
BRANCH   1  10
ATOM      8  C   UNL     1       1.494   4.065  18.989  0.00  0.00    +0.000 C 
ATOM      9  O   UNL     1       1.056   4.072  17.842  0.00  0.00    +0.000 OA
ATOM     10  N   UNL     1       2.398   4.981  19.473  0.00  0.00    +0.000 N 
ATOM     11  H   UNL     1       2.562   5.001  20.470  0.00  0.00    +0.000 HD
BRANCH   8  13
ATOM     12  C   UNL     1       1.787   1.624  19.572  0.00  0.00    +0.000 C 
ATOM     13  C   UNL     1       1.170   2.956  19.988  0.00  0.00    +0.000 C 
ATOM     14  C   UNL     1       1.684   3.381  21.364  0.00  0.00    +0.000 C 
ENDBRANCH   8  13
ENDBRANCH   1  10
BRANCH   1  15
ATOM     15  C   UNL     1       3.243   5.788  17.203  0.00  0.00    +0.000 C 
BRANCH  15  16
ATOM     16  C   UNL     1       4.686   5.879  16.755  0.00  0.00    +0.000 A 
ATOM     17  C   UNL     1       5.610   6.545  17.541  0.00  0.00    +0.000 A 
ATOM     18  C   UNL     1       6.936   6.546  17.147  0.00  0.00    +0.000 A 
ATOM     19  N   UNL     1       7.288   5.874  16.035  0.00  0.00    +0.000 NA
ATOM     20  C   UNL     1       6.357   5.184  15.345  0.00  0.00    +0.000 A 
ATOM     21  N   UNL     1       5.050   5.181  15.662  0.00  0.00    +0.000 NA
BRANCH  18  22
ATOM     22  N   UNL     1       7.946   7.100  17.936  0.00  0.00    +0.000 N 
ATOM     23  C   UNL     1       8.065   8.559  17.893  0.00  0.00    +0.000 C 
ATOM     24  C   UNL     1       8.292   6.511  19.225  0.00  0.00    +0.000 C 
ENDBRANCH  18  22
BRANCH  20  25
ATOM     25  C   UNL     1       6.855   4.228  14.290  0.00  0.00    +0.000 C 
ATOM     26  C   UNL     1       5.962   3.710  13.190  0.00  0.00    +0.000 C 
ATOM     27  C   UNL     1       7.068   4.670  12.862  0.00  0.00    +0.000 C 
ENDBRANCH  20  25
ENDBRANCH  15  16
ENDBRANCH   1  15
TORSDOF 7
ENDMDL
