MODEL 1
REMARK VINA RESULT:      -7.9      0.000      0.000
REMARK  Name = 
REMARK  6 active torsions:
REMARK  status: ('A' for Active; 'I' for Inactive)
REMARK    1  A    between atoms: C_2  and  C_22
REMARK    2  A    between atoms: N_3  and  C_4
REMARK    3  A    between atoms: N_13  and  C_14
REMARK    4  A    between atoms: C_14  and  C_15
REMARK    5  A    between atoms: C_15  and  C_16
REMARK    6  A    between atoms: C_16  and  N_17
REMARK                            x       y       z     vdW  Elec       q    Type
REMARK                         _______ _______ _______ _____ _____    ______ ____
ROOT
ATOM      1  C   UNL     1       1.880   7.029  20.306  0.00  0.00    +0.000 A 
ATOM      2  C   UNL     1       2.758   7.297  19.269  0.00  0.00    +0.000 A 
ATOM      3  C   UNL     1       3.503   6.278  18.693  0.00  0.00    +0.000 A 
ATOM      4  C   UNL     1       3.291   4.924  18.983  0.00  0.00    +0.000 A 
ATOM      5  C   UNL     1       2.301   4.636  19.948  0.00  0.00    +0.000 A 
ATOM      6  C   UNL     1       1.626   5.688  20.610  0.00  0.00    +0.000 A 
ATOM      7  S   UNL     1       1.829   2.970  20.426  0.00  0.00    +0.000 S 
ATOM      8  C   UNL     1       2.862   2.004  19.287  0.00  0.00    +0.000 C 
ATOM      9  C   UNL     1       4.207   2.679  19.055  0.00  0.00    +0.000 C 
ATOM     10  N   UNL     1       4.100   3.963  18.338  0.00  0.00    +0.000 N 
ENDROOT
BRANCH   1  13
ATOM     11  N   UNL     1       1.015   9.487  19.131  0.00  0.00    +0.000 N 
ATOM     12  C   UNL     1       0.820   9.155  20.458  0.00  0.00    +0.000 C 
ATOM     13  N   UNL     1       1.233   8.052  21.021  0.00  0.00    +0.000 NA
ATOM     14  H   UNL     1       1.838   9.087  18.699  0.00  0.00    +0.000 HD
ATOM     15  H   UNL     1       0.872  10.464  18.902  0.00  0.00    +0.000 HD
BRANCH  12  16
ATOM     16  C   UNL     1       0.118  10.087  21.346  0.00  0.00    +0.000 A 
ATOM     17  C   UNL     1      -0.481   9.834  22.562  0.00  0.00    +0.000 A 
ATOM     18  C   UNL     1      -1.060  11.004  23.137  0.00  0.00    +0.000 A 
ATOM     19  C   UNL     1      -0.895  12.110  22.337  0.00  0.00    +0.000 A 
ATOM     20  S   UNL     1      -0.033  11.745  20.910  0.00  0.00    +0.000 S 
ENDBRANCH  12  16
ENDBRANCH   1  13
BRANCH  10  21
ATOM     21  C   UNL     1       3.952   3.858  16.868  0.00  0.00    +0.000 C 
BRANCH  21  22
ATOM     22  C   UNL     1       5.216   4.123  16.041  0.00  0.00    +0.000 C 
BRANCH  22  23
ATOM     23  C   UNL     1       5.743   5.566  16.133  0.00  0.00    +0.000 C 
BRANCH  23  24
ATOM     24  N   UNL     1       7.186   5.616  16.469  0.00  0.00    +0.000 NA
ATOM     25  C   UNL     1       7.585   4.641  17.493  0.00  0.00    +0.000 C 
ATOM     26  C   UNL     1       7.324   5.345  18.806  0.00  0.00    +0.000 C 
ATOM     27  C   UNL     1       7.804   6.751  18.516  0.00  0.00    +0.000 C 
ATOM     28  C   UNL     1       7.557   6.938  17.020  0.00  0.00    +0.000 C 
ENDBRANCH  23  24
ENDBRANCH  22  23
ENDBRANCH  21  22
ENDBRANCH  10  21
TORSDOF 6
ENDMDL
MODEL 2
REMARK VINA RESULT:      -7.8      0.972      1.262
REMARK  Name = 
REMARK  6 active torsions:
REMARK  status: ('A' for Active; 'I' for Inactive)
REMARK    1  A    between atoms: C_2  and  C_22
REMARK    2  A    between atoms: N_3  and  C_4
REMARK    3  A    between atoms: N_13  and  C_14
REMARK    4  A    between atoms: C_14  and  C_15
REMARK    5  A    between atoms: C_15  and  C_16
REMARK    6  A    between atoms: C_16  and  N_17
REMARK                            x       y       z     vdW  Elec       q    Type
REMARK                         _______ _______ _______ _____ _____    ______ ____
ROOT
ATOM      1  C   UNL     1       1.631   7.760  19.812  0.00  0.00    +0.000 A 
ATOM      2  C   UNL     1       2.425   7.845  18.681  0.00  0.00    +0.000 A 
ATOM      3  C   UNL     1       3.264   6.796  18.326  0.00  0.00    +0.000 A 
ATOM      4  C   UNL     1       3.231   5.549  18.961  0.00  0.00    +0.000 A 
ATOM      5  C   UNL     1       2.326   5.415  20.037  0.00  0.00    +0.000 A 
ATOM      6  C   UNL     1       1.556   6.524  20.461  0.00  0.00    +0.000 A 
ATOM      7  S   UNL     1       2.081   3.888  20.951  0.00  0.00    +0.000 S 
ATOM      8  C   UNL     1       3.174   2.777  20.019  0.00  0.00    +0.000 C 
ATOM      9  C   UNL     1       4.416   3.509  19.528  0.00  0.00    +0.000 C 
ATOM     10  N   UNL     1       4.122   4.547  18.521  0.00  0.00    +0.000 N 
ENDROOT
BRANCH   1  13
ATOM     11  N   UNL     1       1.951   8.861  22.430  0.00  0.00    +0.000 N 
ATOM     12  C   UNL     1       1.078   9.362  21.483  0.00  0.00    +0.000 C 
ATOM     13  N   UNL     1       0.895   8.857  20.293  0.00  0.00    +0.000 NA
ATOM     14  H   UNL     1       2.131   7.867  22.372  0.00  0.00    +0.000 HD
ATOM     15  H   UNL     1       1.802   9.192  23.376  0.00  0.00    +0.000 HD
BRANCH  12  16
ATOM     16  C   UNL     1       0.261  10.538  21.797  0.00  0.00    +0.000 A 
ATOM     17  C   UNL     1       0.267  11.779  21.194  0.00  0.00    +0.000 A 
ATOM     18  C   UNL     1      -0.683  12.670  21.775  0.00  0.00    +0.000 A 
ATOM     19  C   UNL     1      -1.378  12.086  22.808  0.00  0.00    +0.000 A 
ATOM     20  S   UNL     1      -0.898  10.468  23.067  0.00  0.00    +0.000 S 
ENDBRANCH  12  16
ENDBRANCH   1  13
BRANCH  10  21
ATOM     21  C   UNL     1       3.926   4.050  17.140  0.00  0.00    +0.000 C 
BRANCH  21  22
ATOM     22  C   UNL     1       5.087   4.287  16.166  0.00  0.00    +0.000 C 
BRANCH  22  23
ATOM     23  C   UNL     1       5.629   5.727  16.163  0.00  0.00    +0.000 C 
BRANCH  23  24
ATOM     24  N   UNL     1       7.095   5.775  16.380  0.00  0.00    +0.000 NA
ATOM     25  C   UNL     1       7.580   4.778  17.345  0.00  0.00    +0.000 C 
ATOM     26  C   UNL     1       7.427   5.452  18.691  0.00  0.00    +0.000 C 
ATOM     27  C   UNL     1       7.880   6.866  18.393  0.00  0.00    +0.000 C 
ATOM     28  C   UNL     1       7.509   7.085  16.927  0.00  0.00    +0.000 C 
ENDBRANCH  23  24
ENDBRANCH  22  23
ENDBRANCH  21  22
ENDBRANCH  10  21
TORSDOF 6
ENDMDL
MODEL 3
REMARK VINA RESULT:      -7.3      1.346      1.648
REMARK  Name = 
REMARK  6 active torsions:
REMARK  status: ('A' for Active; 'I' for Inactive)
REMARK    1  A    between atoms: C_2  and  C_22
REMARK    2  A    between atoms: N_3  and  C_4
REMARK    3  A    between atoms: N_13  and  C_14
REMARK    4  A    between atoms: C_14  and  C_15
REMARK    5  A    between atoms: C_15  and  C_16
REMARK    6  A    between atoms: C_16  and  N_17
REMARK                            x       y       z     vdW  Elec       q    Type
REMARK                         _______ _______ _______ _____ _____    ______ ____
ROOT
ATOM      1  C   UNL     1       1.853   8.238  19.385  0.00  0.00    +0.000 A 
ATOM      2  C   UNL     1       2.689   8.166  18.283  0.00  0.00    +0.000 A 
ATOM      3  C   UNL     1       3.438   7.023  18.038  0.00  0.00    +0.000 A 
ATOM      4  C   UNL     1       3.268   5.834  18.760  0.00  0.00    +0.000 A 
ATOM      5  C   UNL     1       2.320   5.864  19.805  0.00  0.00    +0.000 A 
ATOM      6  C   UNL     1       1.642   7.066  20.118  0.00  0.00    +0.000 A 
ATOM      7  S   UNL     1       1.904   4.438  20.816  0.00  0.00    +0.000 S 
ATOM      8  C   UNL     1       2.920   3.167  20.010  0.00  0.00    +0.000 C 
ATOM      9  C   UNL     1       4.241   3.745  19.518  0.00  0.00    +0.000 C 
ATOM     10  N   UNL     1       4.077   4.726  18.428  0.00  0.00    +0.000 N 
ENDROOT
BRANCH   1  13
ATOM     11  N   UNL     1       0.096   9.694  17.665  0.00  0.00    +0.000 N 
ATOM     12  C   UNL     1       0.385  10.064  18.964  0.00  0.00    +0.000 C 
ATOM     13  N   UNL     1       1.207   9.430  19.757  0.00  0.00    +0.000 NA
ATOM     14  H   UNL     1       0.831   9.193  17.181  0.00  0.00    +0.000 HD
ATOM     15  H   UNL     1      -0.349  10.407  17.099  0.00  0.00    +0.000 HD
BRANCH  12  16
ATOM     16  C   UNL     1      -0.240  11.260  19.536  0.00  0.00    +0.000 A 
ATOM     17  C   UNL     1      -0.626  12.421  18.899  0.00  0.00    +0.000 A 
ATOM     18  C   UNL     1      -1.210  13.364  19.794  0.00  0.00    +0.000 A 
ATOM     19  C   UNL     1      -1.243  12.900  21.088  0.00  0.00    +0.000 A 
ATOM     20  S   UNL     1      -0.588  11.329  21.220  0.00  0.00    +0.000 S 
ENDBRANCH  12  16
ENDBRANCH   1  13
BRANCH  10  21
ATOM     21  C   UNL     1       3.882   4.147  17.079  0.00  0.00    +0.000 C 
BRANCH  21  22
ATOM     22  C   UNL     1       5.077   4.242  16.123  0.00  0.00    +0.000 C 
BRANCH  22  23
ATOM     23  C   UNL     1       5.645   5.663  15.958  0.00  0.00    +0.000 C 
BRANCH  23  24
ATOM     24  N   UNL     1       7.101   5.721  16.235  0.00  0.00    +0.000 NA
ATOM     25  C   UNL     1       7.558   4.704  17.192  0.00  0.00    +0.000 C 
ATOM     26  C   UNL     1       7.343   5.340  18.548  0.00  0.00    +0.000 C 
ATOM     27  C   UNL     1       7.791   6.766  18.307  0.00  0.00    +0.000 C 
ATOM     28  C   UNL     1       7.476   7.021  16.833  0.00  0.00    +0.000 C 
ENDBRANCH  23  24
ENDBRANCH  22  23
ENDBRANCH  21  22
ENDBRANCH  10  21
TORSDOF 6
ENDMDL
MODEL 4
REMARK VINA RESULT:      -7.0      2.568      4.606
REMARK  Name = 
REMARK  6 active torsions:
REMARK  status: ('A' for Active; 'I' for Inactive)
REMARK    1  A    between atoms: C_2  and  C_22
REMARK    2  A    between atoms: N_3  and  C_4
REMARK    3  A    between atoms: N_13  and  C_14
REMARK    4  A    between atoms: C_14  and  C_15
REMARK    5  A    between atoms: C_15  and  C_16
REMARK    6  A    between atoms: C_16  and  N_17
REMARK                            x       y       z     vdW  Elec       q    Type
REMARK                         _______ _______ _______ _____ _____    ______ ____
ROOT
ATOM      1  C   UNL     1       2.651   8.012  17.775  0.00  0.00    +0.000 A 
ATOM      2  C   UNL     1       2.023   6.821  18.102  0.00  0.00    +0.000 A 
ATOM      3  C   UNL     1       2.674   5.608  17.924  0.00  0.00    +0.000 A 
ATOM      4  C   UNL     1       4.030   5.515  17.587  0.00  0.00    +0.000 A 
ATOM      5  C   UNL     1       4.710   6.734  17.379  0.00  0.00    +0.000 A 
ATOM      6  C   UNL     1       4.011   7.961  17.454  0.00  0.00    +0.000 A 
ATOM      7  S   UNL     1       6.462   6.846  16.997  0.00  0.00    +0.000 S 
ATOM      8  C   UNL     1       6.925   5.093  17.094  0.00  0.00    +0.000 C 
ATOM      9  C   UNL     1       5.803   4.196  16.585  0.00  0.00    +0.000 C 
ATOM     10  N   UNL     1       4.598   4.231  17.435  0.00  0.00    +0.000 N 
ENDROOT
BRANCH   1  13
ATOM     11  N   UNL     1       1.211   9.010  20.033  0.00  0.00    +0.000 N 
ATOM     12  C   UNL     1       1.344   9.693  18.839  0.00  0.00    +0.000 C 
ATOM     13  N   UNL     1       1.972   9.243  17.786  0.00  0.00    +0.000 NA
ATOM     14  H   UNL     1       1.222   8.001  19.960  0.00  0.00    +0.000 HD
ATOM     15  H   UNL     1       0.496   9.364  20.657  0.00  0.00    +0.000 HD
BRANCH  12  16
ATOM     16  C   UNL     1       0.738  11.020  18.688  0.00  0.00    +0.000 A 
ATOM     17  C   UNL     1      -0.591  11.346  18.512  0.00  0.00    +0.000 A 
ATOM     18  C   UNL     1      -0.796  12.753  18.411  0.00  0.00    +0.000 A 
ATOM     19  C   UNL     1       0.382  13.457  18.502  0.00  0.00    +0.000 A 
ATOM     20  S   UNL     1       1.726  12.428  18.724  0.00  0.00    +0.000 S 
ENDBRANCH  12  16
ENDBRANCH   1  13
BRANCH  10  21
ATOM     21  C   UNL     1       4.656   3.388  18.651  0.00  0.00    +0.000 C 
BRANCH  21  22
ATOM     22  C   UNL     1       3.834   2.094  18.616  0.00  0.00    +0.000 C 
BRANCH  22  23
ATOM     23  C   UNL     1       2.315   2.311  18.489  0.00  0.00    +0.000 C 
BRANCH  23  24
ATOM     24  N   UNL     1       1.611   2.114  19.779  0.00  0.00    +0.000 NA
ATOM     25  C   UNL     1       0.517   3.068  20.002  0.00  0.00    +0.000 C 
ATOM     26  C   UNL     1       1.187   4.271  20.630  0.00  0.00    +0.000 C 
ATOM     27  C   UNL     1       2.169   3.627  21.584  0.00  0.00    +0.000 C 
ATOM     28  C   UNL     1       2.533   2.299  20.921  0.00  0.00    +0.000 C 
ENDBRANCH  23  24
ENDBRANCH  22  23
ENDBRANCH  21  22
ENDBRANCH  10  21
TORSDOF 6
ENDMDL
MODEL 5
REMARK VINA RESULT:      -7.0      0.632      1.037
REMARK  Name = 
REMARK  6 active torsions:
REMARK  status: ('A' for Active; 'I' for Inactive)
REMARK    1  A    between atoms: C_2  and  C_22
REMARK    2  A    between atoms: N_3  and  C_4
REMARK    3  A    between atoms: N_13  and  C_14
REMARK    4  A    between atoms: C_14  and  C_15
REMARK    5  A    between atoms: C_15  and  C_16
REMARK    6  A    between atoms: C_16  and  N_17
REMARK                            x       y       z     vdW  Elec       q    Type
REMARK                         _______ _______ _______ _____ _____    ______ ____
ROOT
ATOM      1  C   UNL     1       1.751   6.776  20.353  0.00  0.00    +0.000 A 
ATOM      2  C   UNL     1       2.869   7.038  19.578  0.00  0.00    +0.000 A 
ATOM      3  C   UNL     1       3.588   5.999  19.003  0.00  0.00    +0.000 A 
ATOM      4  C   UNL     1       3.144   4.671  19.011  0.00  0.00    +0.000 A 
ATOM      5  C   UNL     1       1.933   4.418  19.691  0.00  0.00    +0.000 A 
ATOM      6  C   UNL     1       1.265   5.465  20.369  0.00  0.00    +0.000 A 
ATOM      7  S   UNL     1       1.155   2.801  19.775  0.00  0.00    +0.000 S 
ATOM      8  C   UNL     1       2.287   1.845  18.725  0.00  0.00    +0.000 C 
ATOM      9  C   UNL     1       3.725   2.318  18.890  0.00  0.00    +0.000 C 
ATOM     10  N   UNL     1       3.948   3.689  18.393  0.00  0.00    +0.000 N 
ENDROOT
BRANCH   1  13
ATOM     11  N   UNL     1       0.964   9.288  19.240  0.00  0.00    +0.000 N 
ATOM     12  C   UNL     1       0.718   8.912  20.546  0.00  0.00    +0.000 C 
ATOM     13  N   UNL     1       1.095   7.782  21.083  0.00  0.00    +0.000 NA
ATOM     14  H   UNL     1       1.795   8.890  18.822  0.00  0.00    +0.000 HD
ATOM     15  H   UNL     1       0.843  10.274  19.042  0.00  0.00    +0.000 HD
BRANCH  12  16
ATOM     16  C   UNL     1      -0.001   9.823  21.443  0.00  0.00    +0.000 A 
ATOM     17  C   UNL     1      -0.555   9.558  22.678  0.00  0.00    +0.000 A 
ATOM     18  C   UNL     1      -1.169  10.708  23.256  0.00  0.00    +0.000 A 
ATOM     19  C   UNL     1      -1.075  11.811  22.440  0.00  0.00    +0.000 A 
ATOM     20  S   UNL     1      -0.236  11.467  20.994  0.00  0.00    +0.000 S 
ENDBRANCH  12  16
ENDBRANCH   1  13
BRANCH  10  21
ATOM     21  C   UNL     1       4.126   3.810  16.927  0.00  0.00    +0.000 C 
BRANCH  21  22
ATOM     22  C   UNL     1       5.560   3.662  16.406  0.00  0.00    +0.000 C 
BRANCH  22  23
ATOM     23  C   UNL     1       6.339   4.987  16.308  0.00  0.00    +0.000 C 
BRANCH  23  24
ATOM     24  N   UNL     1       6.106   5.862  17.481  0.00  0.00    +0.000 NA
ATOM     25  C   UNL     1       6.251   7.294  17.184  0.00  0.00    +0.000 C 
ATOM     26  C   UNL     1       7.729   7.567  17.358  0.00  0.00    +0.000 C 
ATOM     27  C   UNL     1       8.060   6.760  18.595  0.00  0.00    +0.000 C 
ATOM     28  C   UNL     1       7.085   5.583  18.555  0.00  0.00    +0.000 C 
ENDBRANCH  23  24
ENDBRANCH  22  23
ENDBRANCH  21  22
ENDBRANCH  10  21
TORSDOF 6
ENDMDL
MODEL 6
REMARK VINA RESULT:      -6.9      2.391      4.447
REMARK  Name = 
REMARK  6 active torsions:
REMARK  status: ('A' for Active; 'I' for Inactive)
REMARK    1  A    between atoms: C_2  and  C_22
REMARK    2  A    between atoms: N_3  and  C_4
REMARK    3  A    between atoms: N_13  and  C_14
REMARK    4  A    between atoms: C_14  and  C_15
REMARK    5  A    between atoms: C_15  and  C_16
REMARK    6  A    between atoms: C_16  and  N_17
REMARK                            x       y       z     vdW  Elec       q    Type
REMARK                         _______ _______ _______ _____ _____    ______ ____
ROOT
ATOM      1  C   UNL     1       2.597   7.780  17.850  0.00  0.00    +0.000 A 
ATOM      2  C   UNL     1       1.867   6.604  17.850  0.00  0.00    +0.000 A 
ATOM      3  C   UNL     1       2.470   5.398  17.517  0.00  0.00    +0.000 A 
ATOM      4  C   UNL     1       3.853   5.263  17.344  0.00  0.00    +0.000 A 
ATOM      5  C   UNL     1       4.620   6.441  17.472  0.00  0.00    +0.000 A 
ATOM      6  C   UNL     1       3.984   7.684  17.701  0.00  0.00    +0.000 A 
ATOM      7  S   UNL     1       6.412   6.484  17.346  0.00  0.00    +0.000 S 
ATOM      8  C   UNL     1       6.762   4.714  17.149  0.00  0.00    +0.000 C 
ATOM      9  C   UNL     1       5.677   4.023  16.332  0.00  0.00    +0.000 C 
ATOM     10  N   UNL     1       4.368   3.991  17.012  0.00  0.00    +0.000 N 
ENDROOT
BRANCH   1  13
ATOM     11  N   UNL     1       1.347   8.624  20.278  0.00  0.00    +0.000 N 
ATOM     12  C   UNL     1       1.450   9.413  19.149  0.00  0.00    +0.000 C 
ATOM     13  N   UNL     1       1.990   9.037  18.020  0.00  0.00    +0.000 NA
ATOM     14  H   UNL     1       1.298   7.627  20.110  0.00  0.00    +0.000 HD
ATOM     15  H   UNL     1       0.690   8.950  20.977  0.00  0.00    +0.000 HD
BRANCH  12  16
ATOM     16  C   UNL     1       0.911  10.776  19.162  0.00  0.00    +0.000 A 
ATOM     17  C   UNL     1      -0.312  11.216  19.624  0.00  0.00    +0.000 A 
ATOM     18  C   UNL     1      -0.474  12.625  19.475  0.00  0.00    +0.000 A 
ATOM     19  C   UNL     1       0.624  13.215  18.895  0.00  0.00    +0.000 A 
ATOM     20  S   UNL     1       1.850  12.080  18.547  0.00  0.00    +0.000 S 
ENDBRANCH  12  16
ENDBRANCH   1  13
BRANCH  10  21
ATOM     21  C   UNL     1       4.210   2.929  18.032  0.00  0.00    +0.000 C 
BRANCH  21  22
ATOM     22  C   UNL     1       4.341   3.373  19.494  0.00  0.00    +0.000 C 
BRANCH  22  23
ATOM     23  C   UNL     1       3.734   2.390  20.512  0.00  0.00    +0.000 C 
BRANCH  23  24
ATOM     24  N   UNL     1       2.826   3.064  21.470  0.00  0.00    +0.000 NA
ATOM     25  C   UNL     1       1.490   2.456  21.540  0.00  0.00    +0.000 C 
ATOM     26  C   UNL     1       0.711   3.129  20.432  0.00  0.00    +0.000 C 
ATOM     27  C   UNL     1       1.167   4.567  20.548  0.00  0.00    +0.000 C 
ATOM     28  C   UNL     1       2.596   4.473  21.082  0.00  0.00    +0.000 C 
ENDBRANCH  23  24
ENDBRANCH  22  23
ENDBRANCH  21  22
ENDBRANCH  10  21
TORSDOF 6
ENDMDL
MODEL 7
REMARK VINA RESULT:      -6.9      2.554      4.665
REMARK  Name = 
REMARK  6 active torsions:
REMARK  status: ('A' for Active; 'I' for Inactive)
REMARK    1  A    between atoms: C_2  and  C_22
REMARK    2  A    between atoms: N_3  and  C_4
REMARK    3  A    between atoms: N_13  and  C_14
REMARK    4  A    between atoms: C_14  and  C_15
REMARK    5  A    between atoms: C_15  and  C_16
REMARK    6  A    between atoms: C_16  and  N_17
REMARK                            x       y       z     vdW  Elec       q    Type
REMARK                         _______ _______ _______ _____ _____    ______ ____
ROOT
ATOM      1  C   UNL     1       2.360   7.792  17.877  0.00  0.00    +0.000 A 
ATOM      2  C   UNL     1       1.906   6.553  18.296  0.00  0.00    +0.000 A 
ATOM      3  C   UNL     1       2.712   5.429  18.180  0.00  0.00    +0.000 A 
ATOM      4  C   UNL     1       4.062   5.496  17.814  0.00  0.00    +0.000 A 
ATOM      5  C   UNL     1       4.567   6.778  17.510  0.00  0.00    +0.000 A 
ATOM      6  C   UNL     1       3.709   7.903  17.524  0.00  0.00    +0.000 A 
ATOM      7  S   UNL     1       6.281   7.099  17.075  0.00  0.00    +0.000 S 
ATOM      8  C   UNL     1       6.978   5.434  17.273  0.00  0.00    +0.000 C 
ATOM      9  C   UNL     1       5.980   4.363  16.853  0.00  0.00    +0.000 C 
ATOM     10  N   UNL     1       4.796   4.293  17.730  0.00  0.00    +0.000 N 
ENDROOT
BRANCH   1  13
ATOM     11  N   UNL     1       1.328   9.109  20.194  0.00  0.00    +0.000 N 
ATOM     12  C   UNL     1       1.084   9.522  18.899  0.00  0.00    +0.000 C 
ATOM     13  N   UNL     1       1.521   8.919  17.826  0.00  0.00    +0.000 NA
ATOM     14  H   UNL     1       1.477   8.114  20.312  0.00  0.00    +0.000 HD
ATOM     15  H   UNL     1       0.726   9.515  20.900  0.00  0.00    +0.000 HD
BRANCH  12  16
ATOM     16  C   UNL     1       0.264  10.714  18.657  0.00  0.00    +0.000 A 
ATOM     17  C   UNL     1       0.609  12.042  18.798  0.00  0.00    +0.000 A 
ATOM     18  C   UNL     1      -0.462  12.920  18.459  0.00  0.00    +0.000 A 
ATOM     19  C   UNL     1      -1.594  12.236  18.081  0.00  0.00    +0.000 A 
ATOM     20  S   UNL     1      -1.362  10.545  18.118  0.00  0.00    +0.000 S 
ENDBRANCH  12  16
ENDBRANCH   1  13
BRANCH  10  21
ATOM     21  C   UNL     1       4.989   3.549  18.996  0.00  0.00    +0.000 C 
BRANCH  21  22
ATOM     22  C   UNL     1       4.281   2.193  19.098  0.00  0.00    +0.000 C 
BRANCH  22  23
ATOM     23  C   UNL     1       2.859   2.174  18.508  0.00  0.00    +0.000 C 
BRANCH  23  24
ATOM     24  N   UNL     1       1.840   1.789  19.514  0.00  0.00    +0.000 NA
ATOM     25  C   UNL     1       0.580   2.534  19.388  0.00  0.00    +0.000 C 
ATOM     26  C   UNL     1       0.804   3.793  20.196  0.00  0.00    +0.000 C 
ATOM     27  C   UNL     1       1.544   3.268  21.408  0.00  0.00    +0.000 C 
ATOM     28  C   UNL     1       2.320   2.060  20.887  0.00  0.00    +0.000 C 
ENDBRANCH  23  24
ENDBRANCH  22  23
ENDBRANCH  21  22
ENDBRANCH  10  21
TORSDOF 6
ENDMDL
MODEL 8
REMARK VINA RESULT:      -6.9      0.975      1.369
REMARK  Name = 
REMARK  6 active torsions:
REMARK  status: ('A' for Active; 'I' for Inactive)
REMARK    1  A    between atoms: C_2  and  C_22
REMARK    2  A    between atoms: N_3  and  C_4
REMARK    3  A    between atoms: N_13  and  C_14
REMARK    4  A    between atoms: C_14  and  C_15
REMARK    5  A    between atoms: C_15  and  C_16
REMARK    6  A    between atoms: C_16  and  N_17
REMARK                            x       y       z     vdW  Elec       q    Type
REMARK                         _______ _______ _______ _____ _____    ______ ____
ROOT
ATOM      1  C   UNL     1       1.472   7.276  20.484  0.00  0.00    +0.000 A 
ATOM      2  C   UNL     1       2.358   7.463  19.437  0.00  0.00    +0.000 A 
ATOM      3  C   UNL     1       3.099   6.399  18.940  0.00  0.00    +0.000 A 
ATOM      4  C   UNL     1       2.875   5.071  19.324  0.00  0.00    +0.000 A 
ATOM      5  C   UNL     1       1.877   4.860  20.301  0.00  0.00    +0.000 A 
ATOM      6  C   UNL     1       1.206   5.962  20.882  0.00  0.00    +0.000 A 
ATOM      7  S   UNL     1       1.389   3.236  20.895  0.00  0.00    +0.000 S 
ATOM      8  C   UNL     1       2.422   2.184  19.834  0.00  0.00    +0.000 C 
ATOM      9  C   UNL     1       3.774   2.830  19.563  0.00  0.00    +0.000 C 
ATOM     10  N   UNL     1       3.680   4.061  18.755  0.00  0.00    +0.000 N 
ENDROOT
BRANCH   1  13
ATOM     11  N   UNL     1       0.570   9.619  19.119  0.00  0.00    +0.000 N 
ATOM     12  C   UNL     1       0.398   9.400  20.472  0.00  0.00    +0.000 C 
ATOM     13  N   UNL     1       0.828   8.351  21.121  0.00  0.00    +0.000 NA
ATOM     14  H   UNL     1       1.389   9.188  18.709  0.00  0.00    +0.000 HD
ATOM     15  H   UNL     1       0.416  10.572  18.810  0.00  0.00    +0.000 HD
BRANCH  12  16
ATOM     16  C   UNL     1      -0.297  10.400  21.289  0.00  0.00    +0.000 A 
ATOM     17  C   UNL     1      -0.771  11.641  20.915  0.00  0.00    +0.000 A 
ATOM     18  C   UNL     1      -1.404  12.327  21.993  0.00  0.00    +0.000 A 
ATOM     19  C   UNL     1      -1.384  11.595  23.157  0.00  0.00    +0.000 A 
ATOM     20  S   UNL     1      -0.622  10.082  22.948  0.00  0.00    +0.000 S 
ENDBRANCH  12  16
ENDBRANCH   1  13
BRANCH  10  21
ATOM     21  C   UNL     1       3.540   3.852  17.296  0.00  0.00    +0.000 C 
BRANCH  21  22
ATOM     22  C   UNL     1       4.708   4.336  16.428  0.00  0.00    +0.000 C 
BRANCH  22  23
ATOM     23  C   UNL     1       6.027   4.541  17.197  0.00  0.00    +0.000 C 
BRANCH  23  24
ATOM     24  N   UNL     1       5.994   5.749  18.056  0.00  0.00    +0.000 NA
ATOM     25  C   UNL     1       6.191   7.002  17.315  0.00  0.00    +0.000 C 
ATOM     26  C   UNL     1       7.693   7.170  17.253  0.00  0.00    +0.000 C 
ATOM     27  C   UNL     1       8.120   6.746  18.642  0.00  0.00    +0.000 C 
ATOM     28  C   UNL     1       7.076   5.713  19.064  0.00  0.00    +0.000 C 
ENDBRANCH  23  24
ENDBRANCH  22  23
ENDBRANCH  21  22
ENDBRANCH  10  21
TORSDOF 6
ENDMDL
MODEL 9
REMARK VINA RESULT:      -6.8      1.772      2.628
REMARK  Name = 
REMARK  6 active torsions:
REMARK  status: ('A' for Active; 'I' for Inactive)
REMARK    1  A    between atoms: C_2  and  C_22
REMARK    2  A    between atoms: N_3  and  C_4
REMARK    3  A    between atoms: N_13  and  C_14
REMARK    4  A    between atoms: C_14  and  C_15
REMARK    5  A    between atoms: C_15  and  C_16
REMARK    6  A    between atoms: C_16  and  N_17
REMARK                            x       y       z     vdW  Elec       q    Type
REMARK                         _______ _______ _______ _____ _____    ______ ____
ROOT
ATOM      1  C   UNL     1       1.899   7.947  19.534  0.00  0.00    +0.000 A 
ATOM      2  C   UNL     1       2.610   8.124  18.358  0.00  0.00    +0.000 A 
ATOM      3  C   UNL     1       3.529   7.171  17.939  0.00  0.00    +0.000 A 
ATOM      4  C   UNL     1       3.663   5.921  18.556  0.00  0.00    +0.000 A 
ATOM      5  C   UNL     1       2.844   5.685  19.681  0.00  0.00    +0.000 A 
ATOM      6  C   UNL     1       1.991   6.704  20.167  0.00  0.00    +0.000 A 
ATOM      7  S   UNL     1       2.813   4.132  20.585  0.00  0.00    +0.000 S 
ATOM      8  C   UNL     1       3.957   3.149  19.573  0.00  0.00    +0.000 C 
ATOM      9  C   UNL     1       5.085   4.010  19.019  0.00  0.00    +0.000 C 
ATOM     10  N   UNL     1       4.625   5.021  18.048  0.00  0.00    +0.000 N 
ENDROOT
BRANCH   1  13
ATOM     11  N   UNL     1       1.919   8.696  22.291  0.00  0.00    +0.000 N 
ATOM     12  C   UNL     1       1.132   9.303  21.333  0.00  0.00    +0.000 C 
ATOM     13  N   UNL     1       1.085   8.958  20.074  0.00  0.00    +0.000 NA
ATOM     14  H   UNL     1       2.136   7.722  22.123  0.00  0.00    +0.000 HD
ATOM     15  H   UNL     1       1.666   8.896  23.252  0.00  0.00    +0.000 HD
BRANCH  12  16
ATOM     16  C   UNL     1       0.251  10.413  21.710  0.00  0.00    +0.000 A 
ATOM     17  C   UNL     1      -0.724  10.447  22.686  0.00  0.00    +0.000 A 
ATOM     18  C   UNL     1      -1.370  11.715  22.764  0.00  0.00    +0.000 A 
ATOM     19  C   UNL     1      -0.877  12.607  21.840  0.00  0.00    +0.000 A 
ATOM     20  S   UNL     1       0.369  11.923  20.894  0.00  0.00    +0.000 S 
ENDBRANCH  12  16
ENDBRANCH   1  13
BRANCH  10  21
ATOM     21  C   UNL     1       4.397   4.519  16.673  0.00  0.00    +0.000 C 
BRANCH  21  22
ATOM     22  C   UNL     1       5.447   3.544  16.127  0.00  0.00    +0.000 C 
BRANCH  22  23
ATOM     23  C   UNL     1       6.630   4.221  15.411  0.00  0.00    +0.000 C 
BRANCH  23  24
ATOM     24  N   UNL     1       6.220   4.869  14.142  0.00  0.00    +0.000 NA
ATOM     25  C   UNL     1       5.260   4.078  13.361  0.00  0.00    +0.000 C 
ATOM     26  C   UNL     1       6.121   3.151  12.532  0.00  0.00    +0.000 C 
ATOM     27  C   UNL     1       7.252   4.061  12.106  0.00  0.00    +0.000 C 
ATOM     28  C   UNL     1       7.382   5.069  13.248  0.00  0.00    +0.000 C 
ENDBRANCH  23  24
ENDBRANCH  22  23
ENDBRANCH  21  22
ENDBRANCH  10  21
TORSDOF 6
ENDMDL
