MODEL 1
REMARK VINA RESULT:      -6.7      0.000      0.000
REMARK  Name = 
REMARK  6 active torsions:
REMARK  status: ('A' for Active; 'I' for Inactive)
REMARK    1  A    between atoms: C_1  and  C_2
REMARK    2  A    between atoms: C_2  and  C_3
REMARK    3  A    between atoms: C_3  and  C_4
REMARK    4  A    between atoms: C_6  and  C_7
REMARK    5  A    between atoms: C_7  and  O_9
REMARK    6  A    between atoms: O_9  and  C_10
REMARK                            x       y       z     vdW  Elec       q    Type
REMARK                         _______ _______ _______ _____ _____    ______ ____
ROOT
ATOM      1  C   UNL     1       5.384   5.671  17.172  0.00  0.00    +0.000 A 
ATOM      2  C   UNL     1       4.541   6.664  17.638  0.00  0.00    +0.000 A 
ATOM      3  C   UNL     1       3.257   6.316  18.082  0.00  0.00    +0.000 A 
ATOM      4  C   UNL     1       2.845   4.954  18.074  0.00  0.00    +0.000 A 
ATOM      5  C   UNL     1       1.596   4.440  18.524  0.00  0.00    +0.000 A 
ATOM      6  C   UNL     1       1.291   3.079  18.463  0.00  0.00    +0.000 A 
ATOM      7  C   UNL     1       2.231   2.193  17.964  0.00  0.00    +0.000 A 
ATOM      8  C   UNL     1       3.466   2.676  17.535  0.00  0.00    +0.000 A 
ATOM      9  C   UNL     1       3.791   4.026  17.584  0.00  0.00    +0.000 A 
ATOM     10  N   UNL     1       5.013   4.374  17.154  0.00  0.00    +0.000 NA
ENDROOT
BRANCH   3  11
ATOM     11  C   UNL     1       2.429   7.470  18.559  0.00  0.00    +0.000 C 
ATOM     12  O   UNL     1       2.155   7.648  19.735  0.00  0.00    +0.000 OA
BRANCH  11  13
ATOM     13  O   UNL     1       2.117   8.312  17.547  0.00  0.00    +0.000 OA
ATOM     14  C   UNL     1       1.870   9.669  17.932  0.00  0.00    +0.000 C 
ENDBRANCH  11  13
ENDBRANCH   3  11
BRANCH   1  15
ATOM     15  C   UNL     1       6.768   5.997  16.668  0.00  0.00    +0.000 C 
BRANCH  15  17
ATOM     16  C   UNL     1       7.862   6.114  18.940  0.00  0.00    +0.000 C 
ATOM     17  C   UNL     1       7.540   6.869  17.661  0.00  0.00    +0.000 C 
ENDBRANCH  15  17
ENDBRANCH   1  15
TORSDOF 4
ENDMDL
MODEL 2
REMARK VINA RESULT:      -6.7      1.375      1.935
REMARK  Name = 
REMARK  6 active torsions:
REMARK  status: ('A' for Active; 'I' for Inactive)
REMARK    1  A    between atoms: C_1  and  C_2
REMARK    2  A    between atoms: C_2  and  C_3
REMARK    3  A    between atoms: C_3  and  C_4
REMARK    4  A    between atoms: C_6  and  C_7
REMARK    5  A    between atoms: C_7  and  O_9
REMARK    6  A    between atoms: O_9  and  C_10
REMARK                            x       y       z     vdW  Elec       q    Type
REMARK                         _______ _______ _______ _____ _____    ______ ____
ROOT
ATOM      1  C   UNL     1       4.763   5.041  16.657  0.00  0.00    +0.000 A 
ATOM      2  C   UNL     1       4.193   6.149  17.257  0.00  0.00    +0.000 A 
ATOM      3  C   UNL     1       3.072   5.977  18.080  0.00  0.00    +0.000 A 
ATOM      4  C   UNL     1       2.548   4.674  18.310  0.00  0.00    +0.000 A 
ATOM      5  C   UNL     1       1.446   4.335  19.145  0.00  0.00    +0.000 A 
ATOM      6  C   UNL     1       1.010   3.017  19.293  0.00  0.00    +0.000 A 
ATOM      7  C   UNL     1       1.672   2.002  18.625  0.00  0.00    +0.000 A 
ATOM      8  C   UNL     1       2.764   2.314  17.818  0.00  0.00    +0.000 A 
ATOM      9  C   UNL     1       3.216   3.617  17.652  0.00  0.00    +0.000 A 
ATOM     10  N   UNL     1       4.283   3.796  16.860  0.00  0.00    +0.000 NA
ENDROOT
BRANCH   3  11
ATOM     11  C   UNL     1       2.534   7.245  18.672  0.00  0.00    +0.000 C 
ATOM     12  O   UNL     1       2.371   7.399  19.872  0.00  0.00    +0.000 OA
BRANCH  11  13
ATOM     13  O   UNL     1       2.350   8.197  17.729  0.00  0.00    +0.000 OA
ATOM     14  C   UNL     1       1.489   9.278  18.107  0.00  0.00    +0.000 C 
ENDBRANCH  11  13
ENDBRANCH   3  11
BRANCH   1  15
ATOM     15  C   UNL     1       5.961   5.175  15.749  0.00  0.00    +0.000 C 
BRANCH  15  17
ATOM     16  C   UNL     1       5.983   3.903  13.568  0.00  0.00    +0.000 C 
ATOM     17  C   UNL     1       6.294   3.851  15.054  0.00  0.00    +0.000 C 
ENDBRANCH  15  17
ENDBRANCH   1  15
TORSDOF 4
ENDMDL
MODEL 3
REMARK VINA RESULT:      -6.7      1.072      1.222
REMARK  Name = 
REMARK  6 active torsions:
REMARK  status: ('A' for Active; 'I' for Inactive)
REMARK    1  A    between atoms: C_1  and  C_2
REMARK    2  A    between atoms: C_2  and  C_3
REMARK    3  A    between atoms: C_3  and  C_4
REMARK    4  A    between atoms: C_6  and  C_7
REMARK    5  A    between atoms: C_7  and  O_9
REMARK    6  A    between atoms: O_9  and  C_10
REMARK                            x       y       z     vdW  Elec       q    Type
REMARK                         _______ _______ _______ _____ _____    ______ ____
ROOT
ATOM      1  C   UNL     1       4.598   4.691  16.754  0.00  0.00    +0.000 A 
ATOM      2  C   UNL     1       4.101   5.879  17.261  0.00  0.00    +0.000 A 
ATOM      3  C   UNL     1       3.019   5.839  18.152  0.00  0.00    +0.000 A 
ATOM      4  C   UNL     1       2.463   4.590  18.544  0.00  0.00    +0.000 A 
ATOM      5  C   UNL     1       1.395   4.384  19.463  0.00  0.00    +0.000 A 
ATOM      6  C   UNL     1       0.922   3.107  19.771  0.00  0.00    +0.000 A 
ATOM      7  C   UNL     1       1.510   2.002  19.182  0.00  0.00    +0.000 A 
ATOM      8  C   UNL     1       2.569   2.183  18.294  0.00  0.00    +0.000 A 
ATOM      9  C   UNL     1       3.057   3.443  17.969  0.00  0.00    +0.000 A 
ATOM     10  N   UNL     1       4.086   3.496  17.111  0.00  0.00    +0.000 NA
ENDROOT
BRANCH   3  11
ATOM     11  C   UNL     1       2.559   7.182  18.633  0.00  0.00    +0.000 C 
ATOM     12  O   UNL     1       2.267   7.405  19.796  0.00  0.00    +0.000 OA
BRANCH  11  13
ATOM     13  O   UNL     1       2.604   8.107  17.646  0.00  0.00    +0.000 OA
ATOM     14  C   UNL     1       1.862   9.306  17.895  0.00  0.00    +0.000 C 
ENDBRANCH  11  13
ENDBRANCH   3  11
BRANCH   1  15
ATOM     15  C   UNL     1       5.750   4.681  15.779  0.00  0.00    +0.000 C 
BRANCH  15  17
ATOM     16  C   UNL     1       7.558   4.592  17.538  0.00  0.00    +0.000 C 
ATOM     17  C   UNL     1       6.989   5.366  16.361  0.00  0.00    +0.000 C 
ENDBRANCH  15  17
ENDBRANCH   1  15
TORSDOF 4
ENDMDL
MODEL 4
REMARK VINA RESULT:      -6.6      3.017      4.284
REMARK  Name = 
REMARK  6 active torsions:
REMARK  status: ('A' for Active; 'I' for Inactive)
REMARK    1  A    between atoms: C_1  and  C_2
REMARK    2  A    between atoms: C_2  and  C_3
REMARK    3  A    between atoms: C_3  and  C_4
REMARK    4  A    between atoms: C_6  and  C_7
REMARK    5  A    between atoms: C_7  and  O_9
REMARK    6  A    between atoms: O_9  and  C_10
REMARK                            x       y       z     vdW  Elec       q    Type
REMARK                         _______ _______ _______ _____ _____    ______ ____
ROOT
ATOM      1  C   UNL     1       6.123   4.568  15.227  0.00  0.00    +0.000 A 
ATOM      2  C   UNL     1       6.918   5.440  15.950  0.00  0.00    +0.000 A 
ATOM      3  C   UNL     1       6.495   5.853  17.221  0.00  0.00    +0.000 A 
ATOM      4  C   UNL     1       5.276   5.358  17.764  0.00  0.00    +0.000 A 
ATOM      5  C   UNL     1       4.734   5.652  19.047  0.00  0.00    +0.000 A 
ATOM      6  C   UNL     1       3.520   5.114  19.477  0.00  0.00    +0.000 A 
ATOM      7  C   UNL     1       2.823   4.255  18.644  0.00  0.00    +0.000 A 
ATOM      8  C   UNL     1       3.347   3.942  17.392  0.00  0.00    +0.000 A 
ATOM      9  C   UNL     1       4.552   4.467  16.940  0.00  0.00    +0.000 A 
ATOM     10  N   UNL     1       4.964   4.086  15.722  0.00  0.00    +0.000 NA
ENDROOT
BRANCH   3  11
ATOM     11  C   UNL     1       7.428   6.802  17.910  0.00  0.00    +0.000 C 
ATOM     12  O   UNL     1       8.096   6.486  18.882  0.00  0.00    +0.000 OA
BRANCH  11  13
ATOM     13  O   UNL     1       7.497   7.990  17.266  0.00  0.00    +0.000 OA
ATOM     14  C   UNL     1       8.215   9.021  17.955  0.00  0.00    +0.000 C 
ENDBRANCH  11  13
ENDBRANCH   3  11
BRANCH   1  15
ATOM     15  C   UNL     1       6.526   4.106  13.848  0.00  0.00    +0.000 C 
BRANCH  15  17
ATOM     16  C   UNL     1       5.692   2.811  11.848  0.00  0.00    +0.000 C 
ATOM     17  C   UNL     1       5.309   3.718  13.005  0.00  0.00    +0.000 C 
ENDBRANCH  15  17
ENDBRANCH   1  15
TORSDOF 4
ENDMDL
MODEL 5
REMARK VINA RESULT:      -6.6      0.581      1.018
REMARK  Name = 
REMARK  6 active torsions:
REMARK  status: ('A' for Active; 'I' for Inactive)
REMARK    1  A    between atoms: C_1  and  C_2
REMARK    2  A    between atoms: C_2  and  C_3
REMARK    3  A    between atoms: C_3  and  C_4
REMARK    4  A    between atoms: C_6  and  C_7
REMARK    5  A    between atoms: C_7  and  O_9
REMARK    6  A    between atoms: O_9  and  C_10
REMARK                            x       y       z     vdW  Elec       q    Type
REMARK                         _______ _______ _______ _____ _____    ______ ____
ROOT
ATOM      1  C   UNL     1       5.358   5.758  17.096  0.00  0.00    +0.000 A 
ATOM      2  C   UNL     1       4.503   6.754  17.533  0.00  0.00    +0.000 A 
ATOM      3  C   UNL     1       3.220   6.405  17.976  0.00  0.00    +0.000 A 
ATOM      4  C   UNL     1       2.819   5.040  17.997  0.00  0.00    +0.000 A 
ATOM      5  C   UNL     1       1.571   4.526  18.451  0.00  0.00    +0.000 A 
ATOM      6  C   UNL     1       1.279   3.162  18.420  0.00  0.00    +0.000 A 
ATOM      7  C   UNL     1       2.229   2.272  17.949  0.00  0.00    +0.000 A 
ATOM      8  C   UNL     1       3.463   2.756  17.517  0.00  0.00    +0.000 A 
ATOM      9  C   UNL     1       3.777   4.109  17.536  0.00  0.00    +0.000 A 
ATOM     10  N   UNL     1       4.998   4.457  17.106  0.00  0.00    +0.000 NA
ENDROOT
BRANCH   3  11
ATOM     11  C   UNL     1       2.378   7.563  18.420  0.00  0.00    +0.000 C 
ATOM     12  O   UNL     1       1.828   8.321  17.637  0.00  0.00    +0.000 OA
BRANCH  11  13
ATOM     13  O   UNL     1       2.240   7.593  19.765  0.00  0.00    +0.000 OA
ATOM     14  C   UNL     1       1.331   8.580  20.267  0.00  0.00    +0.000 C 
ENDBRANCH  11  13
ENDBRANCH   3  11
BRANCH   1  15
ATOM     15  C   UNL     1       6.743   6.083  16.594  0.00  0.00    +0.000 C 
BRANCH  15  17
ATOM     16  C   UNL     1       7.946   6.314  18.801  0.00  0.00    +0.000 C 
ATOM     17  C   UNL     1       7.480   7.030  17.544  0.00  0.00    +0.000 C 
ENDBRANCH  15  17
ENDBRANCH   1  15
TORSDOF 4
ENDMDL
MODEL 6
REMARK VINA RESULT:      -6.6      1.534      2.202
REMARK  Name = 
REMARK  6 active torsions:
REMARK  status: ('A' for Active; 'I' for Inactive)
REMARK    1  A    between atoms: C_1  and  C_2
REMARK    2  A    between atoms: C_2  and  C_3
REMARK    3  A    between atoms: C_3  and  C_4
REMARK    4  A    between atoms: C_6  and  C_7
REMARK    5  A    between atoms: C_7  and  O_9
REMARK    6  A    between atoms: O_9  and  C_10
REMARK                            x       y       z     vdW  Elec       q    Type
REMARK                         _______ _______ _______ _____ _____    ______ ____
ROOT
ATOM      1  C   UNL     1       4.665   5.112  16.628  0.00  0.00    +0.000 A 
ATOM      2  C   UNL     1       4.070   6.204  17.234  0.00  0.00    +0.000 A 
ATOM      3  C   UNL     1       2.964   6.000  18.072  0.00  0.00    +0.000 A 
ATOM      4  C   UNL     1       2.483   4.683  18.309  0.00  0.00    +0.000 A 
ATOM      5  C   UNL     1       1.401   4.311  19.157  0.00  0.00    +0.000 A 
ATOM      6  C   UNL     1       1.006   2.981  19.312  0.00  0.00    +0.000 A 
ATOM      7  C   UNL     1       1.690   1.985  18.637  0.00  0.00    +0.000 A 
ATOM      8  C   UNL     1       2.763   2.328  17.817  0.00  0.00    +0.000 A 
ATOM      9  C   UNL     1       3.174   3.644  17.644  0.00  0.00    +0.000 A 
ATOM     10  N   UNL     1       4.225   3.854  16.839  0.00  0.00    +0.000 NA
ENDROOT
BRANCH   3  11
ATOM     11  C   UNL     1       2.396   7.252  18.668  0.00  0.00    +0.000 C 
ATOM     12  O   UNL     1       1.973   8.176  17.992  0.00  0.00    +0.000 OA
BRANCH  11  13
ATOM     13  O   UNL     1       2.331   7.176  20.018  0.00  0.00    +0.000 OA
ATOM     14  C   UNL     1       1.509   8.164  20.649  0.00  0.00    +0.000 C 
ENDBRANCH  11  13
ENDBRANCH   3  11
BRANCH   1  15
ATOM     15  C   UNL     1       5.848   5.281  15.706  0.00  0.00    +0.000 C 
BRANCH  15  17
ATOM     16  C   UNL     1       6.073   3.878  13.618  0.00  0.00    +0.000 C 
ATOM     17  C   UNL     1       6.301   3.941  15.119  0.00  0.00    +0.000 C 
ENDBRANCH  15  17
ENDBRANCH   1  15
TORSDOF 4
ENDMDL
MODEL 7
REMARK VINA RESULT:      -6.5      2.449      4.355
REMARK  Name = 
REMARK  6 active torsions:
REMARK  status: ('A' for Active; 'I' for Inactive)
REMARK    1  A    between atoms: C_1  and  C_2
REMARK    2  A    between atoms: C_2  and  C_3
REMARK    3  A    between atoms: C_3  and  C_4
REMARK    4  A    between atoms: C_6  and  C_7
REMARK    5  A    between atoms: C_7  and  O_9
REMARK    6  A    between atoms: O_9  and  C_10
REMARK                            x       y       z     vdW  Elec       q    Type
REMARK                         _______ _______ _______ _____ _____    ______ ____
ROOT
ATOM      1  C   UNL     1       3.251   6.916  17.776  0.00  0.00    +0.000 A 
ATOM      2  C   UNL     1       4.558   6.517  17.558  0.00  0.00    +0.000 A 
ATOM      3  C   UNL     1       4.869   5.151  17.598  0.00  0.00    +0.000 A 
ATOM      4  C   UNL     1       3.845   4.192  17.836  0.00  0.00    +0.000 A 
ATOM      5  C   UNL     1       3.995   2.777  17.869  0.00  0.00    +0.000 A 
ATOM      6  C   UNL     1       2.917   1.925  18.120  0.00  0.00    +0.000 A 
ATOM      7  C   UNL     1       1.659   2.463  18.328  0.00  0.00    +0.000 A 
ATOM      8  C   UNL     1       1.490   3.846  18.281  0.00  0.00    +0.000 A 
ATOM      9  C   UNL     1       2.547   4.714  18.036  0.00  0.00    +0.000 A 
ATOM     10  N   UNL     1       2.264   6.024  18.003  0.00  0.00    +0.000 NA
ENDROOT
BRANCH   3  11
ATOM     11  C   UNL     1       6.314   4.834  17.355  0.00  0.00    +0.000 C 
ATOM     12  O   UNL     1       7.041   4.358  18.212  0.00  0.00    +0.000 OA
BRANCH  11  13
ATOM     13  O   UNL     1       6.662   5.053  16.067  0.00  0.00    +0.000 OA
ATOM     14  C   UNL     1       6.336   3.998  15.154  0.00  0.00    +0.000 C 
ENDBRANCH  11  13
ENDBRANCH   3  11
BRANCH   1  15
ATOM     15  C   UNL     1       2.868   8.375  17.759  0.00  0.00    +0.000 C 
BRANCH  15  17
ATOM     16  C   UNL     1       0.823   9.777  18.238  0.00  0.00    +0.000 C 
ATOM     17  C   UNL     1       1.736   8.673  18.746  0.00  0.00    +0.000 C 
ENDBRANCH  15  17
ENDBRANCH   1  15
TORSDOF 4
ENDMDL
MODEL 8
REMARK VINA RESULT:      -6.4      1.534      4.042
REMARK  Name = 
REMARK  6 active torsions:
REMARK  status: ('A' for Active; 'I' for Inactive)
REMARK    1  A    between atoms: C_1  and  C_2
REMARK    2  A    between atoms: C_2  and  C_3
REMARK    3  A    between atoms: C_3  and  C_4
REMARK    4  A    between atoms: C_6  and  C_7
REMARK    5  A    between atoms: C_7  and  O_9
REMARK    6  A    between atoms: O_9  and  C_10
REMARK                            x       y       z     vdW  Elec       q    Type
REMARK                         _______ _______ _______ _____ _____    ______ ____
ROOT
ATOM      1  C   UNL     1       2.139   3.738  18.730  0.00  0.00    +0.000 A 
ATOM      2  C   UNL     1       1.894   5.072  18.999  0.00  0.00    +0.000 A 
ATOM      3  C   UNL     1       2.705   6.048  18.401  0.00  0.00    +0.000 A 
ATOM      4  C   UNL     1       3.746   5.662  17.512  0.00  0.00    +0.000 A 
ATOM      5  C   UNL     1       4.625   6.530  16.803  0.00  0.00    +0.000 A 
ATOM      6  C   UNL     1       5.622   6.042  15.957  0.00  0.00    +0.000 A 
ATOM      7  C   UNL     1       5.760   4.675  15.784  0.00  0.00    +0.000 A 
ATOM      8  C   UNL     1       4.897   3.812  16.457  0.00  0.00    +0.000 A 
ATOM      9  C   UNL     1       3.899   4.273  17.305  0.00  0.00    +0.000 A 
ATOM     10  N   UNL     1       3.121   3.350  17.890  0.00  0.00    +0.000 NA
ENDROOT
BRANCH   3  11
ATOM     11  C   UNL     1       2.355   7.458  18.768  0.00  0.00    +0.000 C 
ATOM     12  O   UNL     1       2.193   7.822  19.921  0.00  0.00    +0.000 OA
BRANCH  11  13
ATOM     13  O   UNL     1       2.338   8.266  17.683  0.00  0.00    +0.000 OA
ATOM     14  C   UNL     1       1.740   9.552  17.884  0.00  0.00    +0.000 C 
ENDBRANCH  11  13
ENDBRANCH   3  11
BRANCH   1  15
ATOM     15  C   UNL     1       1.305   2.649  19.360  0.00  0.00    +0.000 C 
BRANCH  15  17
ATOM     16  C   UNL     1       2.444   2.688  21.613  0.00  0.00    +0.000 C 
ATOM     17  C   UNL     1       1.134   2.870  20.866  0.00  0.00    +0.000 C 
ENDBRANCH  15  17
ENDBRANCH   1  15
TORSDOF 4
ENDMDL
MODEL 9
REMARK VINA RESULT:      -6.4      1.293      1.391
REMARK  Name = 
REMARK  6 active torsions:
REMARK  status: ('A' for Active; 'I' for Inactive)
REMARK    1  A    between atoms: C_1  and  C_2
REMARK    2  A    between atoms: C_2  and  C_3
REMARK    3  A    between atoms: C_3  and  C_4
REMARK    4  A    between atoms: C_6  and  C_7
REMARK    5  A    between atoms: C_7  and  O_9
REMARK    6  A    between atoms: O_9  and  C_10
REMARK                            x       y       z     vdW  Elec       q    Type
REMARK                         _______ _______ _______ _____ _____    ______ ____
ROOT
ATOM      1  C   UNL     1       4.869   5.055  17.715  0.00  0.00    +0.000 A 
ATOM      2  C   UNL     1       4.182   6.230  17.965  0.00  0.00    +0.000 A 
ATOM      3  C   UNL     1       3.036   6.191  18.772  0.00  0.00    +0.000 A 
ATOM      4  C   UNL     1       2.607   4.961  19.343  0.00  0.00    +0.000 A 
ATOM      5  C   UNL     1       1.493   4.766  20.208  0.00  0.00    +0.000 A 
ATOM      6  C   UNL     1       1.156   3.507  20.707  0.00  0.00    +0.000 A 
ATOM      7  C   UNL     1       1.931   2.411  20.369  0.00  0.00    +0.000 A 
ATOM      8  C   UNL     1       3.035   2.586  19.538  0.00  0.00    +0.000 A 
ATOM      9  C   UNL     1       3.390   3.827  19.026  0.00  0.00    +0.000 A 
ATOM     10  N   UNL     1       4.479   3.877  18.245  0.00  0.00    +0.000 NA
ENDROOT
BRANCH   3  11
ATOM     11  C   UNL     1       2.369   7.519  18.970  0.00  0.00    +0.000 C 
ATOM     12  O   UNL     1       2.048   7.941  20.069  0.00  0.00    +0.000 OA
BRANCH  11  13
ATOM     13  O   UNL     1       2.263   8.202  17.807  0.00  0.00    +0.000 OA
ATOM     14  C   UNL     1       1.511   9.419  17.877  0.00  0.00    +0.000 C 
ENDBRANCH  11  13
ENDBRANCH   3  11
BRANCH   1  15
ATOM     15  C   UNL     1       6.098   5.041  16.839  0.00  0.00    +0.000 C 
BRANCH  15  17
ATOM     16  C   UNL     1       7.676   5.781  18.666  0.00  0.00    +0.000 C 
ATOM     17  C   UNL     1       7.358   4.705  17.641  0.00  0.00    +0.000 C 
ENDBRANCH  15  17
ENDBRANCH   1  15
TORSDOF 4
ENDMDL
