MODEL 1
REMARK VINA RESULT:      -8.1      0.000      0.000
REMARK  Name = 
REMARK  9 active torsions:
REMARK  status: ('A' for Active; 'I' for Inactive)
REMARK    1  A    between atoms: C_2  and  C_14
REMARK    2  A    between atoms: N_3  and  C_4
REMARK    3  A    between atoms: C_4  and  C_5
REMARK    4  A    between atoms: C_5  and  N_6
REMARK    5  A    between atoms: C_16  and  N_17
REMARK    6  A    between atoms: N_17  and  C_18
REMARK    7  A    between atoms: C_18  and  C_19
REMARK    8  A    between atoms: C_19  and  C_20
REMARK    9  A    between atoms: C_20  and  N_21
REMARK                            x       y       z     vdW  Elec       q    Type
REMARK                         _______ _______ _______ _____ _____    ______ ____
ROOT
ATOM      1  C   UNL     1       0.240  10.228  18.938  0.00  0.00    +0.000 A 
ATOM      2  C   UNL     1       0.507  10.894  20.133  0.00  0.00    +0.000 A 
ATOM      3  C   UNL     1      -0.463  11.707  20.670  0.00  0.00    +0.000 A 
ATOM      4  N   UNL     1      -1.623  11.937  20.024  0.00  0.00    +0.000 NA
ATOM      5  C   UNL     1      -1.880  11.308  18.858  0.00  0.00    +0.000 A 
ATOM      6  C   UNL     1      -3.079  11.577  18.199  0.00  0.00    +0.000 A 
ATOM      7  C   UNL     1      -3.433  10.938  17.006  0.00  0.00    +0.000 A 
ATOM      8  C   UNL     1      -2.592   9.973  16.487  0.00  0.00    +0.000 A 
ATOM      9  F   UNL     1      -2.919   9.333  15.357  0.00  0.00    +0.000 F 
ATOM     10  C   UNL     1      -1.398   9.674  17.119  0.00  0.00    +0.000 A 
ATOM     11  C   UNL     1      -0.994  10.383  18.279  0.00  0.00    +0.000 A 
ENDROOT
BRANCH   1  13
ATOM     12  O   UNL     1       1.965   9.663  17.480  0.00  0.00    +0.000 OA
ATOM     13  C   UNL     1       1.314   9.338  18.470  0.00  0.00    +0.000 C 
ATOM     14  N   UNL     1       1.502   8.152  19.154  0.00  0.00    +0.000 N 
ATOM     15  H   UNL     1       0.956   7.935  19.982  0.00  0.00    +0.000 HD
BRANCH  14  16
ATOM     16  C   UNL     1       2.670   7.369  18.829  0.00  0.00    +0.000 C 
BRANCH  16  17
ATOM     17  C   UNL     1       2.387   6.053  18.090  0.00  0.00    +0.000 C 
BRANCH  17  18
ATOM     18  N   UNL     1       3.214   4.956  18.631  0.00  0.00    +0.000 NA
ATOM     19  C   UNL     1       2.929   3.647  18.014  0.00  0.00    +0.000 C 
ATOM     20  C   UNL     1       1.542   3.106  18.364  0.00  0.00    +0.000 C 
ATOM     21  C   UNL     1       1.399   2.930  19.871  0.00  0.00    +0.000 C 
ATOM     22  C   UNL     1       1.827   4.169  20.647  0.00  0.00    +0.000 C 
ATOM     23  F   UNL     1       0.811   5.073  20.643  0.00  0.00    +0.000 F 
ATOM     24  F   UNL     1       2.021   3.821  21.948  0.00  0.00    +0.000 F 
ATOM     25  C   UNL     1       3.104   4.834  20.103  0.00  0.00    +0.000 C 
ENDBRANCH  17  18
ENDBRANCH  16  17
ENDBRANCH  14  16
ENDBRANCH   1  13
BRANCH   3  26
ATOM     26  N   UNL     1      -0.214  12.235  21.948  0.00  0.00    +0.000 N 
ATOM     27  H   UNL     1       0.089  13.202  21.886  0.00  0.00    +0.000 HD
BRANCH  26  28
ATOM     28  C   UNL     1      -1.252  11.989  22.927  0.00  0.00    +0.000 C 
BRANCH  28  29
ATOM     29  C   UNL     1      -1.807  13.321  23.453  0.00  0.00    +0.000 C 
BRANCH  29  30
ATOM     30  C   UNL     1      -3.086  13.618  22.665  0.00  0.00    +0.000 C 
BRANCH  30  31
ATOM     31  N   UNL     1      -4.172  12.627  22.693  0.00  0.00    +0.000 NA
ATOM     32  C   UNL     1      -5.016  12.608  21.476  0.00  0.00    +0.000 C 
ATOM     33  C   UNL     1      -5.869  13.873  21.278  0.00  0.00    +0.000 C 
ATOM     34  O   UNL     1      -6.681  14.160  22.428  0.00  0.00    +0.000 OA
ATOM     35  C   UNL     1      -5.894  14.236  23.621  0.00  0.00    +0.000 C 
ATOM     36  C   UNL     1      -5.076  12.945  23.833  0.00  0.00    +0.000 C 
ENDBRANCH  30  31
ENDBRANCH  29  30
ENDBRANCH  28  29
ENDBRANCH  26  28
ENDBRANCH   3  26
TORSDOF 9
ENDMDL
MODEL 2
REMARK VINA RESULT:      -7.9      4.431     10.218
REMARK  Name = 
REMARK  9 active torsions:
REMARK  status: ('A' for Active; 'I' for Inactive)
REMARK    1  A    between atoms: C_2  and  C_14
REMARK    2  A    between atoms: N_3  and  C_4
REMARK    3  A    between atoms: C_4  and  C_5
REMARK    4  A    between atoms: C_5  and  N_6
REMARK    5  A    between atoms: C_16  and  N_17
REMARK    6  A    between atoms: N_17  and  C_18
REMARK    7  A    between atoms: C_18  and  C_19
REMARK    8  A    between atoms: C_19  and  C_20
REMARK    9  A    between atoms: C_20  and  N_21
REMARK                            x       y       z     vdW  Elec       q    Type
REMARK                         _______ _______ _______ _____ _____    ______ ____
ROOT
ATOM      1  C   UNL     1       3.382   6.876  18.116  0.00  0.00    +0.000 A 
ATOM      2  C   UNL     1       4.620   7.420  17.780  0.00  0.00    +0.000 A 
ATOM      3  C   UNL     1       5.582   6.599  17.242  0.00  0.00    +0.000 A 
ATOM      4  N   UNL     1       5.381   5.273  17.115  0.00  0.00    +0.000 NA
ATOM      5  C   UNL     1       4.190   4.736  17.454  0.00  0.00    +0.000 A 
ATOM      6  C   UNL     1       4.012   3.359  17.331  0.00  0.00    +0.000 A 
ATOM      7  C   UNL     1       2.796   2.735  17.628  0.00  0.00    +0.000 A 
ATOM      8  C   UNL     1       1.719   3.512  18.009  0.00  0.00    +0.000 A 
ATOM      9  F   UNL     1       0.538   2.940  18.278  0.00  0.00    +0.000 F 
ATOM     10  C   UNL     1       1.856   4.883  18.133  0.00  0.00    +0.000 A 
ATOM     11  C   UNL     1       3.111   5.508  17.920  0.00  0.00    +0.000 A 
ENDROOT
BRANCH   1  13
ATOM     12  O   UNL     1       2.008   7.729  19.792  0.00  0.00    +0.000 OA
ATOM     13  C   UNL     1       2.399   7.841  18.632  0.00  0.00    +0.000 C 
ATOM     14  N   UNL     1       1.931   8.804  17.758  0.00  0.00    +0.000 N 
ATOM     15  H   UNL     1       2.300   8.874  16.814  0.00  0.00    +0.000 HD
BRANCH  14  16
ATOM     16  C   UNL     1       1.122   9.868  18.302  0.00  0.00    +0.000 C 
BRANCH  16  17
ATOM     17  C   UNL     1      -0.385   9.737  18.042  0.00  0.00    +0.000 C 
BRANCH  17  18
ATOM     18  N   UNL     1      -0.917  10.958  17.402  0.00  0.00    +0.000 NA
ATOM     19  C   UNL     1      -1.144  12.065  18.350  0.00  0.00    +0.000 C 
ATOM     20  C   UNL     1      -2.278  11.789  19.338  0.00  0.00    +0.000 C 
ATOM     21  C   UNL     1      -3.590  11.559  18.598  0.00  0.00    +0.000 C 
ATOM     22  C   UNL     1      -3.454  10.547  17.468  0.00  0.00    +0.000 C 
ATOM     23  F   UNL     1      -3.509   9.290  17.983  0.00  0.00    +0.000 F 
ATOM     24  F   UNL     1      -4.530  10.668  16.645  0.00  0.00    +0.000 F 
ATOM     25  C   UNL     1      -2.163  10.704  16.644  0.00  0.00    +0.000 C 
ENDBRANCH  17  18
ENDBRANCH  16  17
ENDBRANCH  14  16
ENDBRANCH   1  13
BRANCH   3  26
ATOM     26  N   UNL     1       6.755   7.214  16.777  0.00  0.00    +0.000 N 
ATOM     27  H   UNL     1       6.546   7.880  16.040  0.00  0.00    +0.000 HD
BRANCH  26  28
ATOM     28  C   UNL     1       7.638   7.716  17.810  0.00  0.00    +0.000 C 
BRANCH  28  29
ATOM     29  C   UNL     1       7.959   9.196  17.557  0.00  0.00    +0.000 C 
BRANCH  29  30
ATOM     30  C   UNL     1       8.880   9.658  18.689  0.00  0.00    +0.000 C 
BRANCH  30  31
ATOM     31  N   UNL     1       8.767  11.046  19.161  0.00  0.00    +0.000 NA
ATOM     32  C   UNL     1       8.962  12.069  18.107  0.00  0.00    +0.000 C 
ATOM     33  C   UNL     1      10.393  12.135  17.547  0.00  0.00    +0.000 C 
ATOM     34  O   UNL     1      11.369  12.315  18.584  0.00  0.00    +0.000 OA
ATOM     35  C   UNL     1      11.247  11.314  19.601  0.00  0.00    +0.000 C 
ATOM     36  C   UNL     1       9.821  11.285  20.186  0.00  0.00    +0.000 C 
ENDBRANCH  30  31
ENDBRANCH  29  30
ENDBRANCH  28  29
ENDBRANCH  26  28
ENDBRANCH   3  26
TORSDOF 9
ENDMDL
MODEL 3
REMARK VINA RESULT:      -7.8      4.289     10.056
REMARK  Name = 
REMARK  9 active torsions:
REMARK  status: ('A' for Active; 'I' for Inactive)
REMARK    1  A    between atoms: C_2  and  C_14
REMARK    2  A    between atoms: N_3  and  C_4
REMARK    3  A    between atoms: C_4  and  C_5
REMARK    4  A    between atoms: C_5  and  N_6
REMARK    5  A    between atoms: C_16  and  N_17
REMARK    6  A    between atoms: N_17  and  C_18
REMARK    7  A    between atoms: C_18  and  C_19
REMARK    8  A    between atoms: C_19  and  C_20
REMARK    9  A    between atoms: C_20  and  N_21
REMARK                            x       y       z     vdW  Elec       q    Type
REMARK                         _______ _______ _______ _____ _____    ______ ____
ROOT
ATOM      1  C   UNL     1       3.364   6.906  18.091  0.00  0.00    +0.000 A 
ATOM      2  C   UNL     1       4.593   7.471  17.757  0.00  0.00    +0.000 A 
ATOM      3  C   UNL     1       5.564   6.669  17.205  0.00  0.00    +0.000 A 
ATOM      4  N   UNL     1       5.379   5.342  17.060  0.00  0.00    +0.000 NA
ATOM      5  C   UNL     1       4.196   4.786  17.397  0.00  0.00    +0.000 A 
ATOM      6  C   UNL     1       4.035   3.409  17.257  0.00  0.00    +0.000 A 
ATOM      7  C   UNL     1       2.828   2.765  17.550  0.00  0.00    +0.000 A 
ATOM      8  C   UNL     1       1.743   3.523  17.945  0.00  0.00    +0.000 A 
ATOM      9  F   UNL     1       0.571   2.933  18.211  0.00  0.00    +0.000 F 
ATOM     10  C   UNL     1       1.863   4.895  18.087  0.00  0.00    +0.000 A 
ATOM     11  C   UNL     1       3.109   5.538  17.877  0.00  0.00    +0.000 A 
ENDROOT
BRANCH   1  13
ATOM     12  O   UNL     1       2.110   7.828  19.824  0.00  0.00    +0.000 OA
ATOM     13  C   UNL     1       2.370   7.852  18.623  0.00  0.00    +0.000 C 
ATOM     14  N   UNL     1       1.746   8.695  17.723  0.00  0.00    +0.000 N 
ATOM     15  H   UNL     1       2.010   8.697  16.742  0.00  0.00    +0.000 HD
BRANCH  14  16
ATOM     16  C   UNL     1       0.921   9.753  18.255  0.00  0.00    +0.000 C 
BRANCH  16  17
ATOM     17  C   UNL     1      -0.569   9.658  17.899  0.00  0.00    +0.000 C 
BRANCH  17  18
ATOM     18  N   UNL     1      -1.054  10.927  17.319  0.00  0.00    +0.000 NA
ATOM     19  C   UNL     1      -1.222  12.001  18.315  0.00  0.00    +0.000 C 
ATOM     20  C   UNL     1      -2.356  11.732  19.304  0.00  0.00    +0.000 C 
ATOM     21  C   UNL     1      -3.686  11.591  18.571  0.00  0.00    +0.000 C 
ATOM     22  C   UNL     1      -3.605  10.624  17.397  0.00  0.00    +0.000 C 
ATOM     23  F   UNL     1      -3.710   9.349  17.859  0.00  0.00    +0.000 F 
ATOM     24  F   UNL     1      -4.683  10.827  16.593  0.00  0.00    +0.000 F 
ATOM     25  C   UNL     1      -2.317  10.760  16.565  0.00  0.00    +0.000 C 
ENDBRANCH  17  18
ENDBRANCH  16  17
ENDBRANCH  14  16
ENDBRANCH   1  13
BRANCH   3  26
ATOM     26  N   UNL     1       6.727   7.305  16.743  0.00  0.00    +0.000 N 
ATOM     27  H   UNL     1       6.498   8.044  16.085  0.00  0.00    +0.000 HD
BRANCH  26  28
ATOM     28  C   UNL     1       7.669   7.688  17.775  0.00  0.00    +0.000 C 
BRANCH  28  29
ATOM     29  C   UNL     1       8.199   9.105  17.506  0.00  0.00    +0.000 C 
BRANCH  29  30
ATOM     30  C   UNL     1       8.631   9.687  18.854  0.00  0.00    +0.000 C 
BRANCH  30  31
ATOM     31  N   UNL     1       9.888  10.448  18.918  0.00  0.00    +0.000 NA
ATOM     32  C   UNL     1      10.108  11.162  20.197  0.00  0.00    +0.000 C 
ATOM     33  C   UNL     1       9.129  12.321  20.450  0.00  0.00    +0.000 C 
ATOM     34  O   UNL     1       9.116  13.261  19.365  0.00  0.00    +0.000 OA
ATOM     35  C   UNL     1       8.856  12.616  18.114  0.00  0.00    +0.000 C 
ATOM     36  C   UNL     1       9.870  11.484  17.849  0.00  0.00    +0.000 C 
ENDBRANCH  30  31
ENDBRANCH  29  30
ENDBRANCH  28  29
ENDBRANCH  26  28
ENDBRANCH   3  26
TORSDOF 9
ENDMDL
MODEL 4
REMARK VINA RESULT:      -7.7      4.954     10.360
REMARK  Name = 
REMARK  9 active torsions:
REMARK  status: ('A' for Active; 'I' for Inactive)
REMARK    1  A    between atoms: C_2  and  C_14
REMARK    2  A    between atoms: N_3  and  C_4
REMARK    3  A    between atoms: C_4  and  C_5
REMARK    4  A    between atoms: C_5  and  N_6
REMARK    5  A    between atoms: C_16  and  N_17
REMARK    6  A    between atoms: N_17  and  C_18
REMARK    7  A    between atoms: C_18  and  C_19
REMARK    8  A    between atoms: C_19  and  C_20
REMARK    9  A    between atoms: C_20  and  N_21
REMARK                            x       y       z     vdW  Elec       q    Type
REMARK                         _______ _______ _______ _____ _____    ______ ____
ROOT
ATOM      1  C   UNL     1       3.515   6.807  18.048  0.00  0.00    +0.000 A 
ATOM      2  C   UNL     1       4.740   7.391  17.729  0.00  0.00    +0.000 A 
ATOM      3  C   UNL     1       5.741   6.597  17.221  0.00  0.00    +0.000 A 
ATOM      4  N   UNL     1       5.589   5.263  17.108  0.00  0.00    +0.000 NA
ATOM      5  C   UNL     1       4.410   4.689  17.431  0.00  0.00    +0.000 A 
ATOM      6  C   UNL     1       4.283   3.305  17.324  0.00  0.00    +0.000 A 
ATOM      7  C   UNL     1       3.085   2.642  17.605  0.00  0.00    +0.000 A 
ATOM      8  C   UNL     1       1.973   3.385  17.954  0.00  0.00    +0.000 A 
ATOM      9  F   UNL     1       0.809   2.776  18.207  0.00  0.00    +0.000 F 
ATOM     10  C   UNL     1       2.060   4.763  18.061  0.00  0.00    +0.000 A 
ATOM     11  C   UNL     1       3.296   5.428  17.865  0.00  0.00    +0.000 A 
ENDROOT
BRANCH   1  13
ATOM     12  O   UNL     1       2.084   7.638  19.686  0.00  0.00    +0.000 OA
ATOM     13  C   UNL     1       2.488   7.744  18.531  0.00  0.00    +0.000 C 
ATOM     14  N   UNL     1       2.000   8.673  17.632  0.00  0.00    +0.000 N 
ATOM     15  H   UNL     1       2.380   8.740  16.693  0.00  0.00    +0.000 HD
BRANCH  14  16
ATOM     16  C   UNL     1       1.143   9.716  18.144  0.00  0.00    +0.000 C 
BRANCH  16  17
ATOM     17  C   UNL     1       1.818  11.083  18.324  0.00  0.00    +0.000 C 
BRANCH  17  18
ATOM     18  N   UNL     1       1.321  11.760  19.539  0.00  0.00    +0.000 NA
ATOM     19  C   UNL     1      -0.118  12.077  19.486  0.00  0.00    +0.000 C 
ATOM     20  C   UNL     1      -0.461  13.147  18.449  0.00  0.00    +0.000 C 
ATOM     21  C   UNL     1       0.272  14.448  18.757  0.00  0.00    +0.000 C 
ATOM     22  C   UNL     1       1.760  14.235  19.003  0.00  0.00    +0.000 C 
ATOM     23  F   UNL     1       2.402  14.141  17.808  0.00  0.00    +0.000 F 
ATOM     24  F   UNL     1       2.261  15.341  19.618  0.00  0.00    +0.000 F 
ATOM     25  C   UNL     1       2.080  12.992  19.853  0.00  0.00    +0.000 C 
ENDBRANCH  17  18
ENDBRANCH  16  17
ENDBRANCH  14  16
ENDBRANCH   1  13
BRANCH   3  26
ATOM     26  N   UNL     1       6.901   7.247  16.770  0.00  0.00    +0.000 N 
ATOM     27  H   UNL     1       6.689   7.868  15.996  0.00  0.00    +0.000 HD
BRANCH  26  28
ATOM     28  C   UNL     1       7.718   7.838  17.810  0.00  0.00    +0.000 C 
BRANCH  28  29
ATOM     29  C   UNL     1       7.805   9.358  17.613  0.00  0.00    +0.000 C 
BRANCH  29  30
ATOM     30  C   UNL     1       8.879   9.876  18.573  0.00  0.00    +0.000 C 
BRANCH  30  31
ATOM     31  N   UNL     1       9.841  10.872  18.077  0.00  0.00    +0.000 NA
ATOM     32  C   UNL     1      10.958  11.161  19.006  0.00  0.00    +0.000 C 
ATOM     33  C   UNL     1      10.534  11.881  20.299  0.00  0.00    +0.000 C 
ATOM     34  O   UNL     1       9.802  13.086  20.029  0.00  0.00    +0.000 OA
ATOM     35  C   UNL     1       8.682  12.840  19.171  0.00  0.00    +0.000 C 
ATOM     36  C   UNL     1       9.123  12.158  17.859  0.00  0.00    +0.000 C 
ENDBRANCH  30  31
ENDBRANCH  29  30
ENDBRANCH  28  29
ENDBRANCH  26  28
ENDBRANCH   3  26
TORSDOF 9
ENDMDL
MODEL 5
REMARK VINA RESULT:      -7.7      0.792      1.229
REMARK  Name = 
REMARK  9 active torsions:
REMARK  status: ('A' for Active; 'I' for Inactive)
REMARK    1  A    between atoms: C_2  and  C_14
REMARK    2  A    between atoms: N_3  and  C_4
REMARK    3  A    between atoms: C_4  and  C_5
REMARK    4  A    between atoms: C_5  and  N_6
REMARK    5  A    between atoms: C_16  and  N_17
REMARK    6  A    between atoms: N_17  and  C_18
REMARK    7  A    between atoms: C_18  and  C_19
REMARK    8  A    between atoms: C_19  and  C_20
REMARK    9  A    between atoms: C_20  and  N_21
REMARK                            x       y       z     vdW  Elec       q    Type
REMARK                         _______ _______ _______ _____ _____    ______ ____
ROOT
ATOM      1  C   UNL     1       0.150  10.365  19.185  0.00  0.00    +0.000 A 
ATOM      2  C   UNL     1       0.363  11.045  20.382  0.00  0.00    +0.000 A 
ATOM      3  C   UNL     1      -0.625  11.874  20.859  0.00  0.00    +0.000 A 
ATOM      4  N   UNL     1      -1.749  12.105  20.153  0.00  0.00    +0.000 NA
ATOM      5  C   UNL     1      -1.953  11.462  18.984  0.00  0.00    +0.000 A 
ATOM      6  C   UNL     1      -3.115  11.732  18.262  0.00  0.00    +0.000 A 
ATOM      7  C   UNL     1      -3.415  11.080  17.061  0.00  0.00    +0.000 A 
ATOM      8  C   UNL     1      -2.558  10.101  16.598  0.00  0.00    +0.000 A 
ATOM      9  F   UNL     1      -2.834   9.447  15.462  0.00  0.00    +0.000 F 
ATOM     10  C   UNL     1      -1.400   9.800  17.293  0.00  0.00    +0.000 A 
ATOM     11  C   UNL     1      -1.048  10.522  18.462  0.00  0.00    +0.000 A 
ENDROOT
BRANCH   1  13
ATOM     12  O   UNL     1       1.969   9.786  17.851  0.00  0.00    +0.000 OA
ATOM     13  C   UNL     1       1.238   9.460  18.783  0.00  0.00    +0.000 C 
ATOM     14  N   UNL     1       1.349   8.258  19.458  0.00  0.00    +0.000 N 
ATOM     15  H   UNL     1       0.737   8.040  20.238  0.00  0.00    +0.000 HD
BRANCH  14  16
ATOM     16  C   UNL     1       2.522   7.455  19.209  0.00  0.00    +0.000 C 
BRANCH  16  17
ATOM     17  C   UNL     1       2.317   6.291  18.228  0.00  0.00    +0.000 C 
BRANCH  17  18
ATOM     18  N   UNL     1       3.128   5.122  18.623  0.00  0.00    +0.000 NA
ATOM     19  C   UNL     1       2.730   3.876  17.942  0.00  0.00    +0.000 C 
ATOM     20  C   UNL     1       1.350   3.373  18.366  0.00  0.00    +0.000 C 
ATOM     21  C   UNL     1       1.316   3.094  19.864  0.00  0.00    +0.000 C 
ATOM     22  C   UNL     1       1.865   4.252  20.686  0.00  0.00    +0.000 C 
ATOM     23  F   UNL     1       0.899   5.199  20.828  0.00  0.00    +0.000 F 
ATOM     24  F   UNL     1       2.143   3.801  21.939  0.00  0.00    +0.000 F 
ATOM     25  C   UNL     1       3.128   4.898  20.087  0.00  0.00    +0.000 C 
ENDBRANCH  17  18
ENDBRANCH  16  17
ENDBRANCH  14  16
ENDBRANCH   1  13
BRANCH   3  26
ATOM     26  N   UNL     1      -0.435  12.417  22.140  0.00  0.00    +0.000 N 
ATOM     27  H   UNL     1       0.206  11.847  22.684  0.00  0.00    +0.000 HD
BRANCH  26  28
ATOM     28  C   UNL     1      -0.150  13.837  22.169  0.00  0.00    +0.000 C 
BRANCH  28  29
ATOM     29  C   UNL     1      -0.947  14.512  23.295  0.00  0.00    +0.000 C 
BRANCH  29  30
ATOM     30  C   UNL     1      -2.294  13.792  23.388  0.00  0.00    +0.000 C 
BRANCH  30  31
ATOM     31  N   UNL     1      -3.518  14.554  23.094  0.00  0.00    +0.000 NA
ATOM     32  C   UNL     1      -4.623  14.333  24.055  0.00  0.00    +0.000 C 
ATOM     33  C   UNL     1      -5.223  12.916  24.015  0.00  0.00    +0.000 C 
ATOM     34  O   UNL     1      -5.648  12.550  22.693  0.00  0.00    +0.000 OA
ATOM     35  C   UNL     1      -4.591  12.702  21.739  0.00  0.00    +0.000 C 
ATOM     36  C   UNL     1      -4.026  14.137  21.757  0.00  0.00    +0.000 C 
ENDBRANCH  30  31
ENDBRANCH  29  30
ENDBRANCH  28  29
ENDBRANCH  26  28
ENDBRANCH   3  26
TORSDOF 9
ENDMDL
MODEL 6
REMARK VINA RESULT:      -7.7      2.455      3.708
REMARK  Name = 
REMARK  9 active torsions:
REMARK  status: ('A' for Active; 'I' for Inactive)
REMARK    1  A    between atoms: C_2  and  C_14
REMARK    2  A    between atoms: N_3  and  C_4
REMARK    3  A    between atoms: C_4  and  C_5
REMARK    4  A    between atoms: C_5  and  N_6
REMARK    5  A    between atoms: C_16  and  N_17
REMARK    6  A    between atoms: N_17  and  C_18
REMARK    7  A    between atoms: C_18  and  C_19
REMARK    8  A    between atoms: C_19  and  C_20
REMARK    9  A    between atoms: C_20  and  N_21
REMARK                            x       y       z     vdW  Elec       q    Type
REMARK                         _______ _______ _______ _____ _____    ______ ____
ROOT
ATOM      1  C   UNL     1       0.373  10.360  18.563  0.00  0.00    +0.000 A 
ATOM      2  C   UNL     1      -0.860   9.920  18.087  0.00  0.00    +0.000 A 
ATOM      3  C   UNL     1      -1.810  10.853  17.743  0.00  0.00    +0.000 A 
ATOM      4  N   UNL     1      -1.601  12.171  17.937  0.00  0.00    +0.000 NA
ATOM      5  C   UNL     1      -0.413  12.602  18.412  0.00  0.00    +0.000 A 
ATOM      6  C   UNL     1      -0.228  13.967  18.622  0.00  0.00    +0.000 A 
ATOM      7  C   UNL     1       0.985  14.494  19.078  0.00  0.00    +0.000 A 
ATOM      8  C   UNL     1       2.052  13.640  19.281  0.00  0.00    +0.000 A 
ATOM      9  F   UNL     1       3.230  14.122  19.697  0.00  0.00    +0.000 F 
ATOM     10  C   UNL     1       1.907  12.279  19.075  0.00  0.00    +0.000 A 
ATOM     11  C   UNL     1       0.654  11.733  18.700  0.00  0.00    +0.000 A 
ENDROOT
BRANCH   1  13
ATOM     12  O   UNL     1       1.432   8.864  20.000  0.00  0.00    +0.000 OA
ATOM     13  C   UNL     1       1.344   9.292  18.851  0.00  0.00    +0.000 C 
ATOM     14  N   UNL     1       2.141   8.856  17.809  0.00  0.00    +0.000 N 
ATOM     15  H   UNL     1       2.017   9.222  16.870  0.00  0.00    +0.000 HD
BRANCH  14  16
ATOM     16  C   UNL     1       2.952   7.683  18.031  0.00  0.00    +0.000 C 
BRANCH  16  17
ATOM     17  C   UNL     1       2.188   6.351  18.013  0.00  0.00    +0.000 C 
BRANCH  17  18
ATOM     18  N   UNL     1       3.058   5.239  18.444  0.00  0.00    +0.000 NA
ATOM     19  C   UNL     1       2.675   3.937  17.867  0.00  0.00    +0.000 C 
ATOM     20  C   UNL     1       1.335   3.419  18.389  0.00  0.00    +0.000 C 
ATOM     21  C   UNL     1       1.380   3.240  19.903  0.00  0.00    +0.000 C 
ATOM     22  C   UNL     1       1.923   4.470  20.619  0.00  0.00    +0.000 C 
ATOM     23  F   UNL     1       0.931   5.391  20.744  0.00  0.00    +0.000 F 
ATOM     24  F   UNL     1       2.274   4.114  21.884  0.00  0.00    +0.000 F 
ATOM     25  C   UNL     1       3.133   5.115  19.918  0.00  0.00    +0.000 C 
ENDBRANCH  17  18
ENDBRANCH  16  17
ENDBRANCH  14  16
ENDBRANCH   1  13
BRANCH   3  26
ATOM     26  N   UNL     1      -2.977  10.376  17.127  0.00  0.00    +0.000 N 
ATOM     27  H   UNL     1      -3.403   9.639  17.681  0.00  0.00    +0.000 HD
BRANCH  26  28
ATOM     28  C   UNL     1      -3.898  11.399  16.677  0.00  0.00    +0.000 C 
BRANCH  28  29
ATOM     29  C   UNL     1      -5.237  11.267  17.417  0.00  0.00    +0.000 C 
BRANCH  29  30
ATOM     30  C   UNL     1      -5.096  12.021  18.741  0.00  0.00    +0.000 C 
BRANCH  30  31
ATOM     31  N   UNL     1      -6.223  12.847  19.200  0.00  0.00    +0.000 NA
ATOM     32  C   UNL     1      -5.985  13.551  20.482  0.00  0.00    +0.000 C 
ATOM     33  C   UNL     1      -5.874  12.621  21.703  0.00  0.00    +0.000 C 
ATOM     34  O   UNL     1      -7.015  11.758  21.827  0.00  0.00    +0.000 OA
ATOM     35  C   UNL     1      -7.250  11.020  20.623  0.00  0.00    +0.000 C 
ATOM     36  C   UNL     1      -7.403  11.964  19.412  0.00  0.00    +0.000 C 
ENDBRANCH  30  31
ENDBRANCH  29  30
ENDBRANCH  28  29
ENDBRANCH  26  28
ENDBRANCH   3  26
TORSDOF 9
ENDMDL
MODEL 7
REMARK VINA RESULT:      -7.7      4.219      7.158
REMARK  Name = 
REMARK  9 active torsions:
REMARK  status: ('A' for Active; 'I' for Inactive)
REMARK    1  A    between atoms: C_2  and  C_14
REMARK    2  A    between atoms: N_3  and  C_4
REMARK    3  A    between atoms: C_4  and  C_5
REMARK    4  A    between atoms: C_5  and  N_6
REMARK    5  A    between atoms: C_16  and  N_17
REMARK    6  A    between atoms: N_17  and  C_18
REMARK    7  A    between atoms: C_18  and  C_19
REMARK    8  A    between atoms: C_19  and  C_20
REMARK    9  A    between atoms: C_20  and  N_21
REMARK                            x       y       z     vdW  Elec       q    Type
REMARK                         _______ _______ _______ _____ _____    ______ ____
ROOT
ATOM      1  C   UNL     1       3.496   5.798  18.891  0.00  0.00    +0.000 A 
ATOM      2  C   UNL     1       3.042   6.995  19.442  0.00  0.00    +0.000 A 
ATOM      3  C   UNL     1       1.994   6.961  20.330  0.00  0.00    +0.000 A 
ATOM      4  N   UNL     1       1.348   5.812  20.609  0.00  0.00    +0.000 NA
ATOM      5  C   UNL     1       1.772   4.652  20.066  0.00  0.00    +0.000 A 
ATOM      6  C   UNL     1       1.075   3.479  20.354  0.00  0.00    +0.000 A 
ATOM      7  C   UNL     1       1.474   2.234  19.859  0.00  0.00    +0.000 A 
ATOM      8  C   UNL     1       2.625   2.152  19.098  0.00  0.00    +0.000 A 
ATOM      9  F   UNL     1       3.040   0.969  18.630  0.00  0.00    +0.000 F 
ATOM     10  C   UNL     1       3.347   3.295  18.799  0.00  0.00    +0.000 A 
ATOM     11  C   UNL     1       2.895   4.570  19.224  0.00  0.00    +0.000 A 
ENDROOT
BRANCH   1  13
ATOM     12  O   UNL     1       5.722   5.413  18.327  0.00  0.00    +0.000 OA
ATOM     13  C   UNL     1       4.657   5.927  17.996  0.00  0.00    +0.000 C 
ATOM     14  N   UNL     1       4.491   6.667  16.840  0.00  0.00    +0.000 N 
ATOM     15  H   UNL     1       3.586   7.055  16.595  0.00  0.00    +0.000 HD
BRANCH  14  16
ATOM     16  C   UNL     1       5.556   6.636  15.867  0.00  0.00    +0.000 C 
BRANCH  16  17
ATOM     17  C   UNL     1       5.344   5.660  14.701  0.00  0.00    +0.000 C 
BRANCH  17  18
ATOM     18  N   UNL     1       6.385   4.612  14.696  0.00  0.00    +0.000 NA
ATOM     19  C   UNL     1       7.650   5.046  14.075  0.00  0.00    +0.000 C 
ATOM     20  C   UNL     1       7.531   5.284  12.569  0.00  0.00    +0.000 C 
ATOM     21  C   UNL     1       7.099   4.008  11.856  0.00  0.00    +0.000 C 
ATOM     22  C   UNL     1       5.886   3.358  12.508  0.00  0.00    +0.000 C 
ATOM     23  F   UNL     1       4.758   3.990  12.088  0.00  0.00    +0.000 F 
ATOM     24  F   UNL     1       5.790   2.075  12.065  0.00  0.00    +0.000 F 
ATOM     25  C   UNL     1       5.928   3.361  14.047  0.00  0.00    +0.000 C 
ENDBRANCH  17  18
ENDBRANCH  16  17
ENDBRANCH  14  16
ENDBRANCH   1  13
BRANCH   3  26
ATOM     26  N   UNL     1       1.670   8.165  20.978  0.00  0.00    +0.000 N 
ATOM     27  H   UNL     1       2.013   8.962  20.451  0.00  0.00    +0.000 HD
BRANCH  26  28
ATOM     28  C   UNL     1       0.292   8.277  21.412  0.00  0.00    +0.000 C 
BRANCH  28  29
ATOM     29  C   UNL     1       0.069   9.624  22.114  0.00  0.00    +0.000 C 
BRANCH  29  30
ATOM     30  C   UNL     1      -0.335  10.633  21.036  0.00  0.00    +0.000 C 
BRANCH  30  31
ATOM     31  N   UNL     1      -0.016  10.325  19.634  0.00  0.00    +0.000 NA
ATOM     32  C   UNL     1       0.973  11.238  19.016  0.00  0.00    +0.000 C 
ATOM     33  C   UNL     1       0.468  12.679  18.822  0.00  0.00    +0.000 C 
ATOM     34  O   UNL     1      -0.763  12.722  18.083  0.00  0.00    +0.000 OA
ATOM     35  C   UNL     1      -1.763  11.889  18.678  0.00  0.00    +0.000 C 
ATOM     36  C   UNL     1      -1.263  10.438  18.828  0.00  0.00    +0.000 C 
ENDBRANCH  30  31
ENDBRANCH  29  30
ENDBRANCH  28  29
ENDBRANCH  26  28
ENDBRANCH   3  26
TORSDOF 9
ENDMDL
MODEL 8
REMARK VINA RESULT:      -7.7      4.570     10.220
REMARK  Name = 
REMARK  9 active torsions:
REMARK  status: ('A' for Active; 'I' for Inactive)
REMARK    1  A    between atoms: C_2  and  C_14
REMARK    2  A    between atoms: N_3  and  C_4
REMARK    3  A    between atoms: C_4  and  C_5
REMARK    4  A    between atoms: C_5  and  N_6
REMARK    5  A    between atoms: C_16  and  N_17
REMARK    6  A    between atoms: N_17  and  C_18
REMARK    7  A    between atoms: C_18  and  C_19
REMARK    8  A    between atoms: C_19  and  C_20
REMARK    9  A    between atoms: C_20  and  N_21
REMARK                            x       y       z     vdW  Elec       q    Type
REMARK                         _______ _______ _______ _____ _____    ______ ____
ROOT
ATOM      1  C   UNL     1       3.615   6.930  17.815  0.00  0.00    +0.000 A 
ATOM      2  C   UNL     1       4.903   7.410  17.586  0.00  0.00    +0.000 A 
ATOM      3  C   UNL     1       5.913   6.510  17.345  0.00  0.00    +0.000 A 
ATOM      4  N   UNL     1       5.698   5.181  17.411  0.00  0.00    +0.000 NA
ATOM      5  C   UNL     1       4.456   4.710  17.648  0.00  0.00    +0.000 A 
ATOM      6  C   UNL     1       4.263   3.332  17.731  0.00  0.00    +0.000 A 
ATOM      7  C   UNL     1       3.001   2.767  17.938  0.00  0.00    +0.000 A 
ATOM      8  C   UNL     1       1.899   3.597  18.016  0.00  0.00    +0.000 A 
ATOM      9  F   UNL     1       0.677   3.079  18.193  0.00  0.00    +0.000 F 
ATOM     10  C   UNL     1       2.052   4.970  17.930  0.00  0.00    +0.000 A 
ATOM     11  C   UNL     1       3.340   5.549  17.810  0.00  0.00    +0.000 A 
ENDROOT
BRANCH   1  13
ATOM     12  O   UNL     1       2.312   8.711  17.067  0.00  0.00    +0.000 OA
ATOM     13  C   UNL     1       2.590   7.969  18.007  0.00  0.00    +0.000 C 
ATOM     14  N   UNL     1       2.024   8.081  19.263  0.00  0.00    +0.000 N 
ATOM     15  H   UNL     1       2.267   7.432  20.004  0.00  0.00    +0.000 HD
BRANCH  14  16
ATOM     16  C   UNL     1       0.887   8.958  19.410  0.00  0.00    +0.000 C 
BRANCH  16  17
ATOM     17  C   UNL     1       0.944   9.901  20.621  0.00  0.00    +0.000 C 
BRANCH  17  18
ATOM     18  N   UNL     1       1.024  11.310  20.188  0.00  0.00    +0.000 NA
ATOM     19  C   UNL     1       0.540  12.264  21.203  0.00  0.00    +0.000 C 
ATOM     20  C   UNL     1      -0.966  12.167  21.450  0.00  0.00    +0.000 C 
ATOM     21  C   UNL     1      -1.740  12.449  20.167  0.00  0.00    +0.000 C 
ATOM     22  C   UNL     1      -1.223  11.641  18.985  0.00  0.00    +0.000 C 
ATOM     23  F   UNL     1      -1.743  10.386  19.038  0.00  0.00    +0.000 F 
ATOM     24  F   UNL     1      -1.696  12.200  17.838  0.00  0.00    +0.000 F 
ATOM     25  C   UNL     1       0.312  11.554  18.912  0.00  0.00    +0.000 C 
ENDBRANCH  17  18
ENDBRANCH  16  17
ENDBRANCH  14  16
ENDBRANCH   1  13
BRANCH   3  26
ATOM     26  N   UNL     1       7.158   7.037  16.968  0.00  0.00    +0.000 N 
ATOM     27  H   UNL     1       7.074   7.594  16.123  0.00  0.00    +0.000 HD
BRANCH  26  28
ATOM     28  C   UNL     1       7.906   7.671  18.035  0.00  0.00    +0.000 C 
BRANCH  28  29
ATOM     29  C   UNL     1       8.051   9.174  17.757  0.00  0.00    +0.000 C 
BRANCH  29  30
ATOM     30  C   UNL     1       9.066   9.722  18.762  0.00  0.00    +0.000 C 
BRANCH  30  31
ATOM     31  N   UNL     1       8.941  11.124  19.191  0.00  0.00    +0.000 NA
ATOM     32  C   UNL     1       9.099  12.115  18.101  0.00  0.00    +0.000 C 
ATOM     33  C   UNL     1      10.519  12.184  17.512  0.00  0.00    +0.000 C 
ATOM     34  O   UNL     1      11.511  12.413  18.524  0.00  0.00    +0.000 OA
ATOM     35  C   UNL     1      11.424  11.444  19.574  0.00  0.00    +0.000 C 
ATOM     36  C   UNL     1      10.009  11.413  20.188  0.00  0.00    +0.000 C 
ENDBRANCH  30  31
ENDBRANCH  29  30
ENDBRANCH  28  29
ENDBRANCH  26  28
ENDBRANCH   3  26
TORSDOF 9
ENDMDL
MODEL 9
REMARK VINA RESULT:      -7.7      2.532      4.054
REMARK  Name = 
REMARK  9 active torsions:
REMARK  status: ('A' for Active; 'I' for Inactive)
REMARK    1  A    between atoms: C_2  and  C_14
REMARK    2  A    between atoms: N_3  and  C_4
REMARK    3  A    between atoms: C_4  and  C_5
REMARK    4  A    between atoms: C_5  and  N_6
REMARK    5  A    between atoms: C_16  and  N_17
REMARK    6  A    between atoms: N_17  and  C_18
REMARK    7  A    between atoms: C_18  and  C_19
REMARK    8  A    between atoms: C_19  and  C_20
REMARK    9  A    between atoms: C_20  and  N_21
REMARK                            x       y       z     vdW  Elec       q    Type
REMARK                         _______ _______ _______ _____ _____    ______ ____
ROOT
ATOM      1  C   UNL     1       0.520   9.749  18.804  0.00  0.00    +0.000 A 
ATOM      2  C   UNL     1      -0.284  10.343  17.834  0.00  0.00    +0.000 A 
ATOM      3  C   UNL     1      -1.305  11.172  18.234  0.00  0.00    +0.000 A 
ATOM      4  N   UNL     1      -1.593  11.350  19.539  0.00  0.00    +0.000 NA
ATOM      5  C   UNL     1      -0.828  10.763  20.484  0.00  0.00    +0.000 A 
ATOM      6  C   UNL     1      -1.158  10.947  21.826  0.00  0.00    +0.000 A 
ATOM      7  C   UNL     1      -0.393  10.402  22.862  0.00  0.00    +0.000 A 
ATOM      8  C   UNL     1       0.755   9.700  22.551  0.00  0.00    +0.000 A 
ATOM      9  F   UNL     1       1.516   9.187  23.526  0.00  0.00    +0.000 F 
ATOM     10  C   UNL     1       1.118   9.506  21.230  0.00  0.00    +0.000 A 
ATOM     11  C   UNL     1       0.297   9.979  20.175  0.00  0.00    +0.000 A 
ENDROOT
BRANCH   1  13
ATOM     12  O   UNL     1       2.366   9.403  17.426  0.00  0.00    +0.000 OA
ATOM     13  C   UNL     1       1.621   8.926  18.279  0.00  0.00    +0.000 C 
ATOM     14  N   UNL     1       1.728   7.630  18.750  0.00  0.00    +0.000 N 
ATOM     15  H   UNL     1       1.104   7.285  19.473  0.00  0.00    +0.000 HD
BRANCH  14  16
ATOM     16  C   UNL     1       2.911   6.883  18.394  0.00  0.00    +0.000 C 
BRANCH  16  17
ATOM     17  C   UNL     1       2.967   5.452  18.945  0.00  0.00    +0.000 C 
BRANCH  17  18
ATOM     18  N   UNL     1       4.042   4.677  18.292  0.00  0.00    +0.000 NA
ATOM     19  C   UNL     1       3.579   3.890  17.135  0.00  0.00    +0.000 C 
ATOM     20  C   UNL     1       2.647   2.741  17.523  0.00  0.00    +0.000 C 
ATOM     21  C   UNL     1       3.352   1.774  18.468  0.00  0.00    +0.000 C 
ATOM     22  C   UNL     1       4.027   2.484  19.634  0.00  0.00    +0.000 C 
ATOM     23  F   UNL     1       3.098   2.760  20.588  0.00  0.00    +0.000 F 
ATOM     24  F   UNL     1       4.918   1.630  20.205  0.00  0.00    +0.000 F 
ATOM     25  C   UNL     1       4.751   3.784  19.237  0.00  0.00    +0.000 C 
ENDBRANCH  17  18
ENDBRANCH  16  17
ENDBRANCH  14  16
ENDBRANCH   1  13
BRANCH   3  26
ATOM     26  N   UNL     1      -1.991  11.869  17.227  0.00  0.00    +0.000 N 
ATOM     27  H   UNL     1      -1.363  12.490  16.725  0.00  0.00    +0.000 HD
BRANCH  26  28
ATOM     28  C   UNL     1      -2.834  11.051  16.379  0.00  0.00    +0.000 C 
BRANCH  28  29
ATOM     29  C   UNL     1      -4.285  11.552  16.436  0.00  0.00    +0.000 C 
BRANCH  29  30
ATOM     30  C   UNL     1      -4.696  11.574  17.911  0.00  0.00    +0.000 C 
BRANCH  30  31
ATOM     31  N   UNL     1      -5.847  12.401  18.305  0.00  0.00    +0.000 NA
ATOM     32  C   UNL     1      -5.658  13.150  19.569  0.00  0.00    +0.000 C 
ATOM     33  C   UNL     1      -5.576  12.262  20.824  0.00  0.00    +0.000 C 
ATOM     34  O   UNL     1      -6.710  11.390  20.941  0.00  0.00    +0.000 OA
ATOM     35  C   UNL     1      -6.898  10.610  19.755  0.00  0.00    +0.000 C 
ATOM     36  C   UNL     1      -7.023  11.510  18.509  0.00  0.00    +0.000 C 
ENDBRANCH  30  31
ENDBRANCH  29  30
ENDBRANCH  28  29
ENDBRANCH  26  28
ENDBRANCH   3  26
TORSDOF 9
ENDMDL
