MODEL 1
REMARK VINA RESULT:      -7.1      0.000      0.000
REMARK  Name = 
REMARK  6 active torsions:
REMARK  status: ('A' for Active; 'I' for Inactive)
REMARK    1  A    between atoms: C_1  and  O_2
REMARK    2  A    between atoms: O_2  and  C_3
REMARK    3  A    between atoms: C_3  and  C_4
REMARK    4  A    between atoms: C_4  and  N_5
REMARK    5  A    between atoms: N_12  and  C_13
REMARK    6  A    between atoms: C_13  and  C_14
REMARK                            x       y       z     vdW  Elec       q    Type
REMARK                         _______ _______ _______ _____ _____    ______ ____
ROOT
ATOM      1  N   UNL     1       3.715   5.366  17.085  0.00  0.00    +0.000 NA
ATOM      2  C   UNL     1       4.338   4.079  17.527  0.00  0.00    +0.000 C 
ATOM      3  C   UNL     1       5.453   4.267  18.583  0.00  0.00    +0.000 C 
ATOM      4  O   UNL     1       5.670   3.421  19.449  0.00  0.00    +0.000 OA
ATOM      5  C   UNL     1       6.223   5.469  18.385  0.00  0.00    +0.000 A 
ATOM      6  S   UNL     1       7.603   5.920  19.255  0.00  0.00    +0.000 S 
ATOM      7  C   UNL     1       7.713   7.361  18.302  0.00  0.00    +0.000 A 
ATOM      8  N   UNL     1       8.718   8.244  18.518  0.00  0.00    +0.000 N 
ATOM      9  N   UNL     1       6.757   7.507  17.407  0.00  0.00    +0.000 NA
ATOM     10  C   UNL     1       5.904   6.423  17.447  0.00  0.00    +0.000 A 
ATOM     11  C   UNL     1       4.737   6.283  16.521  0.00  0.00    +0.000 C 
ATOM     12  H   UNL     1       9.203   8.159  19.404  0.00  0.00    +0.000 HD
ENDROOT
BRANCH   1  13
ATOM     13  C   UNL     1       2.899   5.947  18.172  0.00  0.00    +0.000 C 
BRANCH  13  14
ATOM     14  C   UNL     1       1.954   4.968  18.885  0.00  0.00    +0.000 C 
BRANCH  14  16
ATOM     15  C   UNL     1       2.112   3.784  20.914  0.00  0.00    +0.000 C 
ATOM     16  O   UNL     1       2.168   5.064  20.296  0.00  0.00    +0.000 OA
ENDBRANCH  14  16
ENDBRANCH  13  14
ENDBRANCH   1  13
BRANCH   8  17
ATOM     17  C   UNL     1       8.504   9.612  18.078  0.00  0.00    +0.000 C 
BRANCH  17  18
ATOM     18  C   UNL     1       9.454  10.599  18.727  0.00  0.00    +0.000 A 
ATOM     19  C   UNL     1       9.507  10.809  20.112  0.00  0.00    +0.000 A 
ATOM     20  C   UNL     1      10.454  11.680  20.663  0.00  0.00    +0.000 A 
ATOM     21  C   UNL     1      11.367  12.338  19.841  0.00  0.00    +0.000 A 
ATOM     22  C   UNL     1      11.341  12.124  18.468  0.00  0.00    +0.000 A 
ATOM     23  C   UNL     1      10.393  11.260  17.916  0.00  0.00    +0.000 A 
ENDBRANCH  17  18
ENDBRANCH   8  17
TORSDOF 5
ENDMDL
MODEL 2
REMARK VINA RESULT:      -7.0      0.317      1.069
REMARK  Name = 
REMARK  6 active torsions:
REMARK  status: ('A' for Active; 'I' for Inactive)
REMARK    1  A    between atoms: C_1  and  O_2
REMARK    2  A    between atoms: O_2  and  C_3
REMARK    3  A    between atoms: C_3  and  C_4
REMARK    4  A    between atoms: C_4  and  N_5
REMARK    5  A    between atoms: N_12  and  C_13
REMARK    6  A    between atoms: C_13  and  C_14
REMARK                            x       y       z     vdW  Elec       q    Type
REMARK                         _______ _______ _______ _____ _____    ______ ____
ROOT
ATOM      1  N   UNL     1       3.715   5.063  16.941  0.00  0.00    +0.000 NA
ATOM      2  C   UNL     1       4.291   3.816  17.535  0.00  0.00    +0.000 C 
ATOM      3  C   UNL     1       5.316   4.088  18.659  0.00  0.00    +0.000 C 
ATOM      4  O   UNL     1       5.456   3.315  19.606  0.00  0.00    +0.000 OA
ATOM      5  C   UNL     1       6.109   5.270  18.430  0.00  0.00    +0.000 A 
ATOM      6  S   UNL     1       7.416   5.789  19.371  0.00  0.00    +0.000 S 
ATOM      7  C   UNL     1       7.613   7.149  18.318  0.00  0.00    +0.000 A 
ATOM      8  N   UNL     1       8.604   8.046  18.543  0.00  0.00    +0.000 N 
ATOM      9  N   UNL     1       6.735   7.222  17.338  0.00  0.00    +0.000 NA
ATOM     10  C   UNL     1       5.874   6.145  17.395  0.00  0.00    +0.000 A 
ATOM     11  C   UNL     1       4.786   5.931  16.391  0.00  0.00    +0.000 C 
ATOM     12  H   UNL     1       9.013   8.032  19.471  0.00  0.00    +0.000 HD
ENDROOT
BRANCH   1  13
ATOM     13  C   UNL     1       2.816   5.731  17.907  0.00  0.00    +0.000 C 
BRANCH  13  14
ATOM     14  C   UNL     1       1.980   4.792  18.789  0.00  0.00    +0.000 C 
BRANCH  14  16
ATOM     15  C   UNL     1       1.949   3.902  20.969  0.00  0.00    +0.000 C 
ATOM     16  O   UNL     1       2.339   5.003  20.158  0.00  0.00    +0.000 OA
ENDBRANCH  14  16
ENDBRANCH  13  14
ENDBRANCH   1  13
BRANCH   8  17
ATOM     17  C   UNL     1       8.436   9.374  17.979  0.00  0.00    +0.000 C 
BRANCH  17  18
ATOM     18  C   UNL     1       9.333  10.411  18.626  0.00  0.00    +0.000 A 
ATOM     19  C   UNL     1      10.092  11.330  17.888  0.00  0.00    +0.000 A 
ATOM     20  C   UNL     1      10.848  12.312  18.539  0.00  0.00    +0.000 A 
ATOM     21  C   UNL     1      10.841  12.398  19.930  0.00  0.00    +0.000 A 
ATOM     22  C   UNL     1      10.076  11.509  20.675  0.00  0.00    +0.000 A 
ATOM     23  C   UNL     1       9.327  10.524  20.027  0.00  0.00    +0.000 A 
ENDBRANCH  17  18
ENDBRANCH   8  17
TORSDOF 5
ENDMDL
MODEL 3
REMARK VINA RESULT:      -6.9      1.110      1.205
REMARK  Name = 
REMARK  6 active torsions:
REMARK  status: ('A' for Active; 'I' for Inactive)
REMARK    1  A    between atoms: C_1  and  O_2
REMARK    2  A    between atoms: O_2  and  C_3
REMARK    3  A    between atoms: C_3  and  C_4
REMARK    4  A    between atoms: C_4  and  N_5
REMARK    5  A    between atoms: N_12  and  C_13
REMARK    6  A    between atoms: C_13  and  C_14
REMARK                            x       y       z     vdW  Elec       q    Type
REMARK                         _______ _______ _______ _____ _____    ______ ____
ROOT
ATOM      1  N   UNL     1       3.523   4.183  17.030  0.00  0.00    +0.000 NA
ATOM      2  C   UNL     1       4.131   3.060  17.810  0.00  0.00    +0.000 C 
ATOM      3  C   UNL     1       5.098   3.534  18.919  0.00  0.00    +0.000 C 
ATOM      4  O   UNL     1       5.235   2.905  19.967  0.00  0.00    +0.000 OA
ATOM      5  C   UNL     1       5.845   4.712  18.554  0.00  0.00    +0.000 A 
ATOM      6  S   UNL     1       7.089   5.419  19.457  0.00  0.00    +0.000 S 
ATOM      7  C   UNL     1       7.266   6.631  18.232  0.00  0.00    +0.000 A 
ATOM      8  N   UNL     1       8.205   7.599  18.364  0.00  0.00    +0.000 N 
ATOM      9  N   UNL     1       6.424   6.525  17.224  0.00  0.00    +0.000 NA
ATOM     10  C   UNL     1       5.611   5.424  17.401  0.00  0.00    +0.000 A 
ATOM     11  C   UNL     1       4.575   5.021  16.401  0.00  0.00    +0.000 C 
ATOM     12  H   UNL     1       8.578   7.732  19.297  0.00  0.00    +0.000 HD
ENDROOT
BRANCH   1  13
ATOM     13  C   UNL     1       2.558   4.931  17.865  0.00  0.00    +0.000 C 
BRANCH  13  14
ATOM     14  C   UNL     1       1.403   4.100  18.444  0.00  0.00    +0.000 C 
BRANCH  14  16
ATOM     15  C   UNL     1       1.415   3.093  20.572  0.00  0.00    +0.000 C 
ATOM     16  O   UNL     1       1.338   4.319  19.856  0.00  0.00    +0.000 OA
ENDBRANCH  14  16
ENDBRANCH  13  14
ENDBRANCH   1  13
BRANCH   8  17
ATOM     17  C   UNL     1       8.000   8.827  17.616  0.00  0.00    +0.000 C 
BRANCH  17  18
ATOM     18  C   UNL     1       8.589  10.044  18.302  0.00  0.00    +0.000 A 
ATOM     19  C   UNL     1       9.325   9.968  19.493  0.00  0.00    +0.000 A 
ATOM     20  C   UNL     1       9.906  11.115  20.043  0.00  0.00    +0.000 A 
ATOM     21  C   UNL     1       9.774  12.347  19.404  0.00  0.00    +0.000 A 
ATOM     22  C   UNL     1       9.066  12.435  18.212  0.00  0.00    +0.000 A 
ATOM     23  C   UNL     1       8.479  11.293  17.665  0.00  0.00    +0.000 A 
ENDBRANCH  17  18
ENDBRANCH   8  17
TORSDOF 5
ENDMDL
MODEL 4
REMARK VINA RESULT:      -6.8      1.087      1.212
REMARK  Name = 
REMARK  6 active torsions:
REMARK  status: ('A' for Active; 'I' for Inactive)
REMARK    1  A    between atoms: C_1  and  O_2
REMARK    2  A    between atoms: O_2  and  C_3
REMARK    3  A    between atoms: C_3  and  C_4
REMARK    4  A    between atoms: C_4  and  N_5
REMARK    5  A    between atoms: N_12  and  C_13
REMARK    6  A    between atoms: C_13  and  C_14
REMARK                            x       y       z     vdW  Elec       q    Type
REMARK                         _______ _______ _______ _____ _____    ______ ____
ROOT
ATOM      1  N   UNL     1       3.658   5.310  17.089  0.00  0.00    +0.000 NA
ATOM      2  C   UNL     1       4.240   4.034  17.610  0.00  0.00    +0.000 C 
ATOM      3  C   UNL     1       5.327   4.249  18.688  0.00  0.00    +0.000 C 
ATOM      4  O   UNL     1       5.500   3.441  19.599  0.00  0.00    +0.000 OA
ATOM      5  C   UNL     1       6.129   5.424  18.457  0.00  0.00    +0.000 A 
ATOM      6  S   UNL     1       7.492   5.887  19.346  0.00  0.00    +0.000 S 
ATOM      7  C   UNL     1       7.661   7.279  18.330  0.00  0.00    +0.000 A 
ATOM      8  N   UNL     1       8.679   8.151  18.534  0.00  0.00    +0.000 N 
ATOM      9  N   UNL     1       6.735   7.401  17.400  0.00  0.00    +0.000 NA
ATOM     10  C   UNL     1       5.858   6.338  17.466  0.00  0.00    +0.000 A 
ATOM     11  C   UNL     1       4.716   6.178  16.513  0.00  0.00    +0.000 C 
ATOM     12  H   UNL     1       9.135   8.098  19.437  0.00  0.00    +0.000 HD
ENDROOT
BRANCH   1  13
ATOM     13  C   UNL     1       2.823   5.960  18.122  0.00  0.00    +0.000 C 
BRANCH  13  14
ATOM     14  C   UNL     1       2.843   7.496  18.119  0.00  0.00    +0.000 C 
BRANCH  14  16
ATOM     15  C   UNL     1       1.940   7.453  20.292  0.00  0.00    +0.000 C 
ATOM     16  O   UNL     1       1.803   7.973  18.976  0.00  0.00    +0.000 OA
ENDBRANCH  14  16
ENDBRANCH  13  14
ENDBRANCH   1  13
BRANCH   8  17
ATOM     17  C   UNL     1       8.507   9.501  18.024  0.00  0.00    +0.000 C 
BRANCH  17  18
ATOM     18  C   UNL     1       9.427  10.507  18.688  0.00  0.00    +0.000 A 
ATOM     19  C   UNL     1       9.398  10.774  20.064  0.00  0.00    +0.000 A 
ATOM     20  C   UNL     1      10.318  11.661  20.635  0.00  0.00    +0.000 A 
ATOM     21  C   UNL     1      11.287  12.275  19.843  0.00  0.00    +0.000 A 
ATOM     22  C   UNL     1      11.343  12.003  18.481  0.00  0.00    +0.000 A 
ATOM     23  C   UNL     1      10.421  11.125  17.909  0.00  0.00    +0.000 A 
ENDBRANCH  17  18
ENDBRANCH   8  17
TORSDOF 5
ENDMDL
MODEL 5
REMARK VINA RESULT:      -6.8      1.102      1.584
REMARK  Name = 
REMARK  6 active torsions:
REMARK  status: ('A' for Active; 'I' for Inactive)
REMARK    1  A    between atoms: C_1  and  O_2
REMARK    2  A    between atoms: O_2  and  C_3
REMARK    3  A    between atoms: C_3  and  C_4
REMARK    4  A    between atoms: C_4  and  N_5
REMARK    5  A    between atoms: N_12  and  C_13
REMARK    6  A    between atoms: C_13  and  C_14
REMARK                            x       y       z     vdW  Elec       q    Type
REMARK                         _______ _______ _______ _____ _____    ______ ____
ROOT
ATOM      1  N   UNL     1       4.021   5.476  16.704  0.00  0.00    +0.000 NA
ATOM      2  C   UNL     1       4.626   4.187  17.166  0.00  0.00    +0.000 C 
ATOM      3  C   UNL     1       5.644   4.363  18.316  0.00  0.00    +0.000 C 
ATOM      4  O   UNL     1       5.801   3.498  19.176  0.00  0.00    +0.000 OA
ATOM      5  C   UNL     1       6.408   5.581  18.214  0.00  0.00    +0.000 A 
ATOM      6  S   UNL     1       7.702   6.028  19.209  0.00  0.00    +0.000 S 
ATOM      7  C   UNL     1       7.868   7.496  18.305  0.00  0.00    +0.000 A 
ATOM      8  N   UNL     1       8.837   8.387  18.627  0.00  0.00    +0.000 N 
ATOM      9  N   UNL     1       6.989   7.651  17.336  0.00  0.00    +0.000 NA
ATOM     10  C   UNL     1       6.153   6.554  17.276  0.00  0.00    +0.000 A 
ATOM     11  C   UNL     1       5.072   6.422  16.252  0.00  0.00    +0.000 C 
ATOM     12  H   UNL     1       9.247   8.285  19.548  0.00  0.00    +0.000 HD
ENDROOT
BRANCH   1  13
ATOM     13  C   UNL     1       3.106   6.017  17.733  0.00  0.00    +0.000 C 
BRANCH  13  14
ATOM     14  C   UNL     1       3.036   7.550  17.813  0.00  0.00    +0.000 C 
BRANCH  14  16
ATOM     15  C   UNL     1       2.292   6.957  19.967  0.00  0.00    +0.000 C 
ATOM     16  O   UNL     1       2.208   7.916  18.921  0.00  0.00    +0.000 OA
ENDBRANCH  14  16
ENDBRANCH  13  14
ENDBRANCH   1  13
BRANCH   8  17
ATOM     17  C   UNL     1       8.638   9.763  18.205  0.00  0.00    +0.000 C 
BRANCH  17  18
ATOM     18  C   UNL     1       9.665  10.716  18.785  0.00  0.00    +0.000 A 
ATOM     19  C   UNL     1      10.594  11.409  17.996  0.00  0.00    +0.000 A 
ATOM     20  C   UNL     1      11.473  12.330  18.577  0.00  0.00    +0.000 A 
ATOM     21  C   UNL     1      11.422  12.582  19.948  0.00  0.00    +0.000 A 
ATOM     22  C   UNL     1      10.493  11.919  20.739  0.00  0.00    +0.000 A 
ATOM     23  C   UNL     1       9.620  10.994  20.162  0.00  0.00    +0.000 A 
ENDBRANCH  17  18
ENDBRANCH   8  17
TORSDOF 5
ENDMDL
MODEL 6
REMARK VINA RESULT:      -6.7      6.357      9.576
REMARK  Name = 
REMARK  6 active torsions:
REMARK  status: ('A' for Active; 'I' for Inactive)
REMARK    1  A    between atoms: C_1  and  O_2
REMARK    2  A    between atoms: O_2  and  C_3
REMARK    3  A    between atoms: C_3  and  C_4
REMARK    4  A    between atoms: C_4  and  N_5
REMARK    5  A    between atoms: N_12  and  C_13
REMARK    6  A    between atoms: C_13  and  C_14
REMARK                            x       y       z     vdW  Elec       q    Type
REMARK                         _______ _______ _______ _____ _____    ______ ____
ROOT
ATOM      1  N   UNL     1       0.204  12.503  19.195  0.00  0.00    +0.000 NA
ATOM      2  C   UNL     1      -0.626  12.650  20.432  0.00  0.00    +0.000 C 
ATOM      3  C   UNL     1      -0.138  11.772  21.607  0.00  0.00    +0.000 C 
ATOM      4  O   UNL     1      -0.268  12.130  22.777  0.00  0.00    +0.000 OA
ATOM      5  C   UNL     1       0.396  10.502  21.182  0.00  0.00    +0.000 A 
ATOM      6  S   UNL     1       0.885   9.240  22.198  0.00  0.00    +0.000 S 
ATOM      7  C   UNL     1       1.302   8.302  20.803  0.00  0.00    +0.000 A 
ATOM      8  N   UNL     1       1.798   7.049  20.949  0.00  0.00    +0.000 N 
ATOM      9  N   UNL     1       1.112   8.911  19.650  0.00  0.00    +0.000 NA
ATOM     10  C   UNL     1       0.588  10.170  19.862  0.00  0.00    +0.000 A 
ATOM     11  C   UNL     1       0.230  11.091  18.739  0.00  0.00    +0.000 C 
ATOM     12  H   UNL     1       2.157   6.818  21.869  0.00  0.00    +0.000 HD
ENDROOT
BRANCH   1  13
ATOM     13  C   UNL     1       1.537  13.112  19.391  0.00  0.00    +0.000 C 
BRANCH  13  14
ATOM     14  C   UNL     1       2.423  13.178  18.138  0.00  0.00    +0.000 C 
BRANCH  14  16
ATOM     15  C   UNL     1       3.507  15.245  17.824  0.00  0.00    +0.000 C 
ATOM     16  O   UNL     1       3.583  13.962  18.433  0.00  0.00    +0.000 OA
ENDBRANCH  14  16
ENDBRANCH  13  14
ENDBRANCH   1  13
BRANCH   8  17
ATOM     17  C   UNL     1       2.575   6.511  19.846  0.00  0.00    +0.000 C 
BRANCH  17  18
ATOM     18  C   UNL     1       2.065   5.168  19.361  0.00  0.00    +0.000 A 
ATOM     19  C   UNL     1       2.391   4.636  18.106  0.00  0.00    +0.000 A 
ATOM     20  C   UNL     1       1.950   3.359  17.739  0.00  0.00    +0.000 A 
ATOM     21  C   UNL     1       1.194   2.594  18.626  0.00  0.00    +0.000 A 
ATOM     22  C   UNL     1       0.881   3.099  19.882  0.00  0.00    +0.000 A 
ATOM     23  C   UNL     1       1.314   4.375  20.247  0.00  0.00    +0.000 A 
ENDBRANCH  17  18
ENDBRANCH   8  17
TORSDOF 5
ENDMDL
MODEL 7
REMARK VINA RESULT:      -6.6      5.109      6.038
REMARK  Name = 
REMARK  6 active torsions:
REMARK  status: ('A' for Active; 'I' for Inactive)
REMARK    1  A    between atoms: C_1  and  O_2
REMARK    2  A    between atoms: O_2  and  C_3
REMARK    3  A    between atoms: C_3  and  C_4
REMARK    4  A    between atoms: C_4  and  N_5
REMARK    5  A    between atoms: N_12  and  C_13
REMARK    6  A    between atoms: C_13  and  C_14
REMARK                            x       y       z     vdW  Elec       q    Type
REMARK                         _______ _______ _______ _____ _____    ______ ____
ROOT
ATOM      1  N   UNL     1       2.254   1.788  18.127  0.00  0.00    +0.000 NA
ATOM      2  C   UNL     1       3.635   1.415  18.565  0.00  0.00    +0.000 C 
ATOM      3  C   UNL     1       4.363   2.543  19.333  0.00  0.00    +0.000 C 
ATOM      4  O   UNL     1       5.178   2.296  20.220  0.00  0.00    +0.000 OA
ATOM      5  C   UNL     1       4.038   3.860  18.846  0.00  0.00    +0.000 A 
ATOM      6  S   UNL     1       4.752   5.309  19.349  0.00  0.00    +0.000 S 
ATOM      7  C   UNL     1       3.738   6.174  18.243  0.00  0.00    +0.000 A 
ATOM      8  N   UNL     1       3.834   7.522  18.143  0.00  0.00    +0.000 N 
ATOM      9  N   UNL     1       2.897   5.422  17.560  0.00  0.00    +0.000 NA
ATOM     10  C   UNL     1       3.069   4.095  17.899  0.00  0.00    +0.000 A 
ATOM     11  C   UNL     1       2.280   2.995  17.262  0.00  0.00    +0.000 C 
ATOM     12  H   UNL     1       4.300   7.992  18.910  0.00  0.00    +0.000 HD
ENDROOT
BRANCH   1  13
ATOM     13  C   UNL     1       1.349   1.886  19.293  0.00  0.00    +0.000 C 
BRANCH  13  14
ATOM     14  C   UNL     1       0.496   3.162  19.362  0.00  0.00    +0.000 C 
BRANCH  14  16
ATOM     15  C   UNL     1       1.503   3.036  21.486  0.00  0.00    +0.000 C 
ATOM     16  O   UNL     1       0.827   3.874  20.557  0.00  0.00    +0.000 OA
ENDBRANCH  14  16
ENDBRANCH  13  14
ENDBRANCH   1  13
BRANCH   8  17
ATOM     17  C   UNL     1       2.682   8.230  17.612  0.00  0.00    +0.000 C 
BRANCH  17  18
ATOM     18  C   UNL     1       1.719   8.688  18.689  0.00  0.00    +0.000 A 
ATOM     19  C   UNL     1       1.756   8.200  20.003  0.00  0.00    +0.000 A 
ATOM     20  C   UNL     1       0.889   8.711  20.975  0.00  0.00    +0.000 A 
ATOM     21  C   UNL     1      -0.011   9.725  20.653  0.00  0.00    +0.000 A 
ATOM     22  C   UNL     1      -0.044  10.235  19.360  0.00  0.00    +0.000 A 
ATOM     23  C   UNL     1       0.815   9.721  18.387  0.00  0.00    +0.000 A 
ENDBRANCH  17  18
ENDBRANCH   8  17
TORSDOF 5
ENDMDL
MODEL 8
REMARK VINA RESULT:      -6.6      6.853      9.867
REMARK  Name = 
REMARK  6 active torsions:
REMARK  status: ('A' for Active; 'I' for Inactive)
REMARK    1  A    between atoms: C_1  and  O_2
REMARK    2  A    between atoms: O_2  and  C_3
REMARK    3  A    between atoms: C_3  and  C_4
REMARK    4  A    between atoms: C_4  and  N_5
REMARK    5  A    between atoms: N_12  and  C_13
REMARK    6  A    between atoms: C_13  and  C_14
REMARK                            x       y       z     vdW  Elec       q    Type
REMARK                         _______ _______ _______ _____ _____    ______ ____
ROOT
ATOM      1  N   UNL     1      -0.727  12.292  19.362  0.00  0.00    +0.000 NA
ATOM      2  C   UNL     1      -1.329  12.416  20.726  0.00  0.00    +0.000 C 
ATOM      3  C   UNL     1      -0.517  11.690  21.824  0.00  0.00    +0.000 C 
ATOM      4  O   UNL     1      -0.479  12.108  22.981  0.00  0.00    +0.000 OA
ATOM      5  C   UNL     1       0.099  10.472  21.361  0.00  0.00    +0.000 A 
ATOM      6  S   UNL     1       0.935   9.355  22.318  0.00  0.00    +0.000 S 
ATOM      7  C   UNL     1       1.215   8.384  20.912  0.00  0.00    +0.000 A 
ATOM      8  N   UNL     1       1.897   7.218  21.015  0.00  0.00    +0.000 N 
ATOM      9  N   UNL     1       0.735   8.884  19.790  0.00  0.00    +0.000 NA
ATOM     10  C   UNL     1       0.090  10.077  20.043  0.00  0.00    +0.000 A 
ATOM     11  C   UNL     1      -0.590  10.867  18.971  0.00  0.00    +0.000 C 
ATOM     12  H   UNL     1       2.447   7.098  21.858  0.00  0.00    +0.000 HD
ENDROOT
BRANCH   1  13
ATOM     13  C   UNL     1       0.523  13.078  19.273  0.00  0.00    +0.000 C 
BRANCH  13  14
ATOM     14  C   UNL     1       0.388  14.573  19.598  0.00  0.00    +0.000 C 
BRANCH  14  16
ATOM     15  C   UNL     1      -0.395  16.621  18.740  0.00  0.00    +0.000 C 
ATOM     16  O   UNL     1      -0.290  15.221  18.517  0.00  0.00    +0.000 OA
ENDBRANCH  14  16
ENDBRANCH  13  14
ENDBRANCH   1  13
BRANCH   8  17
ATOM     17  C   UNL     1       2.525   6.709  19.808  0.00  0.00    +0.000 C 
BRANCH  17  18
ATOM     18  C   UNL     1       1.995   5.351  19.391  0.00  0.00    +0.000 A 
ATOM     19  C   UNL     1       2.186   4.818  18.108  0.00  0.00    +0.000 A 
ATOM     20  C   UNL     1       1.736   3.529  17.800  0.00  0.00    +0.000 A 
ATOM     21  C   UNL     1       1.108   2.752  18.772  0.00  0.00    +0.000 A 
ATOM     22  C   UNL     1       0.931   3.258  20.055  0.00  0.00    +0.000 A 
ATOM     23  C   UNL     1       1.372   4.546  20.361  0.00  0.00    +0.000 A 
ENDBRANCH  17  18
ENDBRANCH   8  17
TORSDOF 5
ENDMDL
MODEL 9
REMARK VINA RESULT:      -6.6      6.365      9.651
REMARK  Name = 
REMARK  6 active torsions:
REMARK  status: ('A' for Active; 'I' for Inactive)
REMARK    1  A    between atoms: C_1  and  O_2
REMARK    2  A    between atoms: O_2  and  C_3
REMARK    3  A    between atoms: C_3  and  C_4
REMARK    4  A    between atoms: C_4  and  N_5
REMARK    5  A    between atoms: N_12  and  C_13
REMARK    6  A    between atoms: C_13  and  C_14
REMARK                            x       y       z     vdW  Elec       q    Type
REMARK                         _______ _______ _______ _____ _____    ______ ____
ROOT
ATOM      1  N   UNL     1       0.420  12.564  19.142  0.00  0.00    +0.000 NA
ATOM      2  C   UNL     1      -0.437  12.762  20.353  0.00  0.00    +0.000 C 
ATOM      3  C   UNL     1      -0.019  11.880  21.553  0.00  0.00    +0.000 C 
ATOM      4  O   UNL     1      -0.166  12.259  22.714  0.00  0.00    +0.000 OA
ATOM      5  C   UNL     1       0.471  10.583  21.158  0.00  0.00    +0.000 A 
ATOM      6  S   UNL     1       0.877   9.314  22.202  0.00  0.00    +0.000 S 
ATOM      7  C   UNL     1       1.292   8.341  20.831  0.00  0.00    +0.000 A 
ATOM      8  N   UNL     1       1.730   7.070  21.006  0.00  0.00    +0.000 N 
ATOM      9  N   UNL     1       1.160   8.942  19.665  0.00  0.00    +0.000 NA
ATOM     10  C   UNL     1       0.685  10.225  19.847  0.00  0.00    +0.000 A 
ATOM     11  C   UNL     1       0.398  11.146  18.704  0.00  0.00    +0.000 C 
ATOM     12  H   UNL     1       2.053   6.836  21.938  0.00  0.00    +0.000 HD
ENDROOT
BRANCH   1  13
ATOM     13  C   UNL     1       1.772  13.118  19.368  0.00  0.00    +0.000 C 
BRANCH  13  14
ATOM     14  C   UNL     1       2.000  14.542  18.836  0.00  0.00    +0.000 C 
BRANCH  14  16
ATOM     15  C   UNL     1       3.873  15.371  17.676  0.00  0.00    +0.000 C 
ATOM     16  O   UNL     1       3.396  14.844  18.908  0.00  0.00    +0.000 OA
ENDBRANCH  14  16
ENDBRANCH  13  14
ENDBRANCH   1  13
BRANCH   8  17
ATOM     17  C   UNL     1       2.513   6.485  19.931  0.00  0.00    +0.000 C 
BRANCH  17  18
ATOM     18  C   UNL     1       2.038   5.100  19.538  0.00  0.00    +0.000 A 
ATOM     19  C   UNL     1       1.419   4.222  20.438  0.00  0.00    +0.000 A 
ATOM     20  C   UNL     1       0.936   2.983  20.003  0.00  0.00    +0.000 A 
ATOM     21  C   UNL     1       1.049   2.614  18.663  0.00  0.00    +0.000 A 
ATOM     22  C   UNL     1       1.640   3.483  17.754  0.00  0.00    +0.000 A 
ATOM     23  C   UNL     1       2.129   4.717  18.188  0.00  0.00    +0.000 A 
ENDBRANCH  17  18
ENDBRANCH   8  17
TORSDOF 5
ENDMDL
