MODEL 1
REMARK VINA RESULT:      -8.3      0.000      0.000
REMARK  Name = 
REMARK  9 active torsions:
REMARK  status: ('A' for Active; 'I' for Inactive)
REMARK    1  A    between atoms: C_2  and  C_3
REMARK    2  A    between atoms: C_7  and  C_8
REMARK    3  A    between atoms: C_9  and  C_10
REMARK    4  A    between atoms: C_10  and  C_12
REMARK    5  A    between atoms: C_12  and  C_13
REMARK    6  A    between atoms: C_13  and  C_15
REMARK    7  A    between atoms: C_16  and  C_17
REMARK    8  A    between atoms: C_20  and  O_21
REMARK    9  A    between atoms: C_22  and  O_23
REMARK                            x       y       z     vdW  Elec       q    Type
REMARK                         _______ _______ _______ _____ _____    ______ ____
ROOT
ATOM      1  C   UNL     1       1.739   2.712  18.592  0.00  0.00    +0.000 C 
ATOM      2  O   UNL     1       0.567   2.839  18.238  0.00  0.00    +0.000 OA
ENDROOT
BRANCH   1   3
ATOM      3  C   UNL     1       2.862   2.932  17.638  0.00  0.00    +0.000 C 
ATOM      4  C   UNL     1       3.602   4.048  17.752  0.00  0.00    +0.000 C 
BRANCH   4   5
ATOM      5  C   UNL     1       4.736   4.400  16.889  0.00  0.00    +0.000 A 
ATOM      6  C   UNL     1       5.052   3.667  15.733  0.00  0.00    +0.000 A 
ATOM      7  C   UNL     1       6.127   4.037  14.920  0.00  0.00    +0.000 A 
ATOM      8  C   UNL     1       6.880   5.152  15.258  0.00  0.00    +0.000 A 
ATOM      9  C   UNL     1       6.556   5.901  16.386  0.00  0.00    +0.000 A 
ATOM     10  C   UNL     1       5.490   5.540  17.199  0.00  0.00    +0.000 A 
BRANCH   8  11
ATOM     11  O   UNL     1       7.948   5.557  14.509  0.00  0.00    +0.000 OA
ATOM     12  H   UNL     1       8.723   5.612  15.094  0.00  0.00    +0.000 HD
ENDBRANCH   8  11
BRANCH   9  13
ATOM     13  O   UNL     1       7.293   7.007  16.704  0.00  0.00    +0.000 OA
ATOM     14  H   UNL     1       7.462   6.923  17.663  0.00  0.00    +0.000 HD
ENDBRANCH   9  13
ENDBRANCH   4   5
ENDBRANCH   1   3
BRANCH   1  15
ATOM     15  C   UNL     1       2.082   2.310  20.000  0.00  0.00    +0.000 C 
BRANCH  15  16
ATOM     16  C   UNL     1       1.895   3.401  21.021  0.00  0.00    +0.000 C 
ATOM     17  O   UNL     1       2.159   3.211  22.207  0.00  0.00    +0.000 OA
BRANCH  16  19
ATOM     18  C   UNL     1       2.312   5.731  20.362  0.00  0.00    +0.000 C 
ATOM     19  C   UNL     1       1.428   4.736  20.541  0.00  0.00    +0.000 C 
BRANCH  18  24
ATOM     20  C   UNL     1       1.173   9.352  20.280  0.00  0.00    +0.000 A 
ATOM     21  C   UNL     1       1.435   9.686  18.949  0.00  0.00    +0.000 A 
ATOM     22  C   UNL     1       1.968   8.727  18.090  0.00  0.00    +0.000 A 
ATOM     23  C   UNL     1       2.240   7.437  18.562  0.00  0.00    +0.000 A 
ATOM     24  C   UNL     1       1.978   7.086  19.894  0.00  0.00    +0.000 A 
ATOM     25  C   UNL     1       1.453   8.062  20.750  0.00  0.00    +0.000 A 
BRANCH  20  27
ATOM     26  N   UNL     1       0.131  11.083  21.905  0.00  0.00    +0.000 NA
ATOM     27  C   UNL     1       0.607  10.315  21.173  0.00  0.00    +0.000 C 
ENDBRANCH  20  27
ENDBRANCH  18  24
ENDBRANCH  16  19
ENDBRANCH  15  16
ENDBRANCH   1  15
TORSDOF 9
ENDMDL
MODEL 2
REMARK VINA RESULT:      -8.2      2.955      6.092
REMARK  Name = 
REMARK  9 active torsions:
REMARK  status: ('A' for Active; 'I' for Inactive)
REMARK    1  A    between atoms: C_2  and  C_3
REMARK    2  A    between atoms: C_7  and  C_8
REMARK    3  A    between atoms: C_9  and  C_10
REMARK    4  A    between atoms: C_10  and  C_12
REMARK    5  A    between atoms: C_12  and  C_13
REMARK    6  A    between atoms: C_13  and  C_15
REMARK    7  A    between atoms: C_16  and  C_17
REMARK    8  A    between atoms: C_20  and  O_21
REMARK    9  A    between atoms: C_22  and  O_23
REMARK                            x       y       z     vdW  Elec       q    Type
REMARK                         _______ _______ _______ _____ _____    ______ ____
ROOT
ATOM      1  C   UNL     1       2.015   3.676  21.122  0.00  0.00    +0.000 C 
ATOM      2  O   UNL     1       2.513   3.623  22.245  0.00  0.00    +0.000 OA
ENDROOT
BRANCH   1   3
ATOM      3  C   UNL     1       1.546   4.968  20.545  0.00  0.00    +0.000 C 
ATOM      4  C   UNL     1       2.455   5.903  20.222  0.00  0.00    +0.000 C 
BRANCH   4   5
ATOM      5  C   UNL     1       2.145   7.218  19.647  0.00  0.00    +0.000 A 
ATOM      6  C   UNL     1       2.516   7.569  18.339  0.00  0.00    +0.000 A 
ATOM      7  C   UNL     1       2.191   8.822  17.812  0.00  0.00    +0.000 A 
ATOM      8  C   UNL     1       1.480   9.722  18.594  0.00  0.00    +0.000 A 
ATOM      9  C   UNL     1       1.083   9.371  19.881  0.00  0.00    +0.000 A 
ATOM     10  C   UNL     1       1.402   8.128  20.412  0.00  0.00    +0.000 A 
BRANCH   8  11
ATOM     11  O   UNL     1       1.141  10.964  18.138  0.00  0.00    +0.000 OA
ATOM     12  H   UNL     1       1.797  11.228  17.469  0.00  0.00    +0.000 HD
ENDBRANCH   8  11
BRANCH   9  13
ATOM     13  O   UNL     1       0.370  10.256  20.639  0.00  0.00    +0.000 OA
ATOM     14  H   UNL     1      -0.550  10.169  20.320  0.00  0.00    +0.000 HD
ENDBRANCH   9  13
ENDBRANCH   4   5
ENDBRANCH   1   3
BRANCH   1  15
ATOM     15  C   UNL     1       1.842   2.434  20.292  0.00  0.00    +0.000 C 
BRANCH  15  16
ATOM     16  C   UNL     1       2.022   2.645  18.811  0.00  0.00    +0.000 C 
ATOM     17  O   UNL     1       1.084   2.486  18.030  0.00  0.00    +0.000 OA
BRANCH  16  19
ATOM     18  C   UNL     1       3.444   3.904  17.254  0.00  0.00    +0.000 C 
ATOM     19  C   UNL     1       3.358   3.102  18.327  0.00  0.00    +0.000 C 
BRANCH  18  24
ATOM     20  C   UNL     1       6.629   5.905  16.735  0.00  0.00    +0.000 A 
ATOM     21  C   UNL     1       7.135   5.310  15.577  0.00  0.00    +0.000 A 
ATOM     22  C   UNL     1       6.429   4.273  14.970  0.00  0.00    +0.000 A 
ATOM     23  C   UNL     1       5.221   3.830  15.522  0.00  0.00    +0.000 A 
ATOM     24  C   UNL     1       4.699   4.422  16.682  0.00  0.00    +0.000 A 
ATOM     25  C   UNL     1       5.423   5.455  17.289  0.00  0.00    +0.000 A 
BRANCH  20  27
ATOM     26  N   UNL     1       7.912   7.850  17.873  0.00  0.00    +0.000 NA
ATOM     27  C   UNL     1       7.327   6.984  17.362  0.00  0.00    +0.000 C 
ENDBRANCH  20  27
ENDBRANCH  18  24
ENDBRANCH  16  19
ENDBRANCH  15  16
ENDBRANCH   1  15
TORSDOF 9
ENDMDL
MODEL 3
REMARK VINA RESULT:      -8.0      5.114      7.678
REMARK  Name = 
REMARK  9 active torsions:
REMARK  status: ('A' for Active; 'I' for Inactive)
REMARK    1  A    between atoms: C_2  and  C_3
REMARK    2  A    between atoms: C_7  and  C_8
REMARK    3  A    between atoms: C_9  and  C_10
REMARK    4  A    between atoms: C_10  and  C_12
REMARK    5  A    between atoms: C_12  and  C_13
REMARK    6  A    between atoms: C_13  and  C_15
REMARK    7  A    between atoms: C_16  and  C_17
REMARK    8  A    between atoms: C_20  and  O_21
REMARK    9  A    between atoms: C_22  and  O_23
REMARK                            x       y       z     vdW  Elec       q    Type
REMARK                         _______ _______ _______ _____ _____    ______ ____
ROOT
ATOM      1  C   UNL     1       7.199   5.521  19.368  0.00  0.00    +0.000 C 
ATOM      2  O   UNL     1       7.896   5.576  20.380  0.00  0.00    +0.000 OA
ENDROOT
BRANCH   1   3
ATOM      3  C   UNL     1       5.781   5.068  19.430  0.00  0.00    +0.000 C 
ATOM      4  C   UNL     1       5.387   4.055  18.641  0.00  0.00    +0.000 C 
BRANCH   4   5
ATOM      5  C   UNL     1       4.028   3.502  18.594  0.00  0.00    +0.000 A 
ATOM      6  C   UNL     1       3.662   2.351  19.312  0.00  0.00    +0.000 A 
ATOM      7  C   UNL     1       2.355   1.858  19.261  0.00  0.00    +0.000 A 
ATOM      8  C   UNL     1       1.408   2.528  18.500  0.00  0.00    +0.000 A 
ATOM      9  C   UNL     1       1.754   3.685  17.809  0.00  0.00    +0.000 A 
ATOM     10  C   UNL     1       3.050   4.181  17.853  0.00  0.00    +0.000 A 
BRANCH   8  11
ATOM     11  O   UNL     1       0.117   2.090  18.404  0.00  0.00    +0.000 OA
ATOM     12  H   UNL     1      -0.471   2.847  18.572  0.00  0.00    +0.000 HD
ENDBRANCH   8  11
BRANCH   9  13
ATOM     13  O   UNL     1       0.812   4.348  17.074  0.00  0.00    +0.000 OA
ATOM     14  H   UNL     1       0.354   3.647  16.570  0.00  0.00    +0.000 HD
ENDBRANCH   9  13
ENDBRANCH   4   5
ENDBRANCH   1   3
BRANCH   1  15
ATOM     15  C   UNL     1       7.759   5.893  18.023  0.00  0.00    +0.000 C 
BRANCH  15  16
ATOM     16  C   UNL     1       7.564   7.338  17.646  0.00  0.00    +0.000 C 
ATOM     17  O   UNL     1       6.772   7.661  16.761  0.00  0.00    +0.000 OA
BRANCH  16  19
ATOM     18  C   UNL     1       8.475   9.604  17.910  0.00  0.00    +0.000 C 
ATOM     19  C   UNL     1       8.323   8.370  18.414  0.00  0.00    +0.000 C 
BRANCH  18  24
ATOM     20  C   UNL     1      10.153  12.946  18.574  0.00  0.00    +0.000 A 
ATOM     21  C   UNL     1      10.516  12.802  19.916  0.00  0.00    +0.000 A 
ATOM     22  C   UNL     1      10.222  11.616  20.586  0.00  0.00    +0.000 A 
ATOM     23  C   UNL     1       9.564  10.577  19.917  0.00  0.00    +0.000 A 
ATOM     24  C   UNL     1       9.199  10.705  18.569  0.00  0.00    +0.000 A 
ATOM     25  C   UNL     1       9.489  11.905  17.909  0.00  0.00    +0.000 A 
BRANCH  20  27
ATOM     26  N   UNL     1      10.724  15.109  17.265  0.00  0.00    +0.000 NA
ATOM     27  C   UNL     1      10.463  14.145  17.861  0.00  0.00    +0.000 C 
ENDBRANCH  20  27
ENDBRANCH  18  24
ENDBRANCH  16  19
ENDBRANCH  15  16
ENDBRANCH   1  15
TORSDOF 9
ENDMDL
MODEL 4
REMARK VINA RESULT:      -8.0      3.604      6.748
REMARK  Name = 
REMARK  9 active torsions:
REMARK  status: ('A' for Active; 'I' for Inactive)
REMARK    1  A    between atoms: C_2  and  C_3
REMARK    2  A    between atoms: C_7  and  C_8
REMARK    3  A    between atoms: C_9  and  C_10
REMARK    4  A    between atoms: C_10  and  C_12
REMARK    5  A    between atoms: C_12  and  C_13
REMARK    6  A    between atoms: C_13  and  C_15
REMARK    7  A    between atoms: C_16  and  C_17
REMARK    8  A    between atoms: C_20  and  O_21
REMARK    9  A    between atoms: C_22  and  O_23
REMARK                            x       y       z     vdW  Elec       q    Type
REMARK                         _______ _______ _______ _____ _____    ______ ____
ROOT
ATOM      1  C   UNL     1       1.879   3.480  21.185  0.00  0.00    +0.000 C 
ATOM      2  O   UNL     1       2.189   3.415  22.374  0.00  0.00    +0.000 OA
ENDROOT
BRANCH   1   3
ATOM      3  C   UNL     1       1.452   4.768  20.568  0.00  0.00    +0.000 C 
ATOM      4  C   UNL     1       2.386   5.685  20.266  0.00  0.00    +0.000 C 
BRANCH   4   5
ATOM      5  C   UNL     1       2.117   6.993  19.657  0.00  0.00    +0.000 A 
ATOM      6  C   UNL     1       2.480   7.291  18.332  0.00  0.00    +0.000 A 
ATOM      7  C   UNL     1       2.195   8.540  17.774  0.00  0.00    +0.000 A 
ATOM      8  C   UNL     1       1.532   9.489  18.539  0.00  0.00    +0.000 A 
ATOM      9  C   UNL     1       1.143   9.193  19.842  0.00  0.00    +0.000 A 
ATOM     10  C   UNL     1       1.423   7.954  20.405  0.00  0.00    +0.000 A 
BRANCH   8  11
ATOM     11  O   UNL     1       1.234  10.731  18.051  0.00  0.00    +0.000 OA
ATOM     12  H   UNL     1       0.527  11.109  18.603  0.00  0.00    +0.000 HD
ENDBRANCH   8  11
BRANCH   9  13
ATOM     13  O   UNL     1       0.477  10.126  20.583  0.00  0.00    +0.000 OA
ATOM     14  H   UNL     1       1.090  10.886  20.634  0.00  0.00    +0.000 HD
ENDBRANCH   9  13
ENDBRANCH   4   5
ENDBRANCH   1   3
BRANCH   1  15
ATOM     15  C   UNL     1       1.901   2.257  20.311  0.00  0.00    +0.000 C 
BRANCH  15  16
ATOM     16  C   UNL     1       2.040   2.547  18.839  0.00  0.00    +0.000 C 
ATOM     17  O   UNL     1       1.055   2.569  18.102  0.00  0.00    +0.000 OA
BRANCH  16  19
ATOM     18  C   UNL     1       3.539   3.564  17.180  0.00  0.00    +0.000 C 
ATOM     19  C   UNL     1       3.402   2.857  18.313  0.00  0.00    +0.000 C 
BRANCH  18  24
ATOM     20  C   UNL     1       6.287   4.164  14.629  0.00  0.00    +0.000 A 
ATOM     21  C   UNL     1       7.277   4.737  15.431  0.00  0.00    +0.000 A 
ATOM     22  C   UNL     1       7.045   4.911  16.795  0.00  0.00    +0.000 A 
ATOM     23  C   UNL     1       5.824   4.515  17.354  0.00  0.00    +0.000 A 
ATOM     24  C   UNL     1       4.823   3.934  16.562  0.00  0.00    +0.000 A 
ATOM     25  C   UNL     1       5.064   3.774  15.192  0.00  0.00    +0.000 A 
BRANCH  20  27
ATOM     26  N   UNL     1       6.708   3.773  12.101  0.00  0.00    +0.000 NA
ATOM     27  C   UNL     1       6.512   3.957  13.233  0.00  0.00    +0.000 C 
ENDBRANCH  20  27
ENDBRANCH  18  24
ENDBRANCH  16  19
ENDBRANCH  15  16
ENDBRANCH   1  15
TORSDOF 9
ENDMDL
MODEL 5
REMARK VINA RESULT:      -7.9      0.822      1.488
REMARK  Name = 
REMARK  9 active torsions:
REMARK  status: ('A' for Active; 'I' for Inactive)
REMARK    1  A    between atoms: C_2  and  C_3
REMARK    2  A    between atoms: C_7  and  C_8
REMARK    3  A    between atoms: C_9  and  C_10
REMARK    4  A    between atoms: C_10  and  C_12
REMARK    5  A    between atoms: C_12  and  C_13
REMARK    6  A    between atoms: C_13  and  C_15
REMARK    7  A    between atoms: C_16  and  C_17
REMARK    8  A    between atoms: C_20  and  O_21
REMARK    9  A    between atoms: C_22  and  O_23
REMARK                            x       y       z     vdW  Elec       q    Type
REMARK                         _______ _______ _______ _____ _____    ______ ____
ROOT
ATOM      1  C   UNL     1       2.427   2.427  18.769  0.00  0.00    +0.000 C 
ATOM      2  O   UNL     1       1.381   2.305  18.133  0.00  0.00    +0.000 OA
ENDROOT
BRANCH   1   3
ATOM      3  C   UNL     1       3.696   2.832  18.099  0.00  0.00    +0.000 C 
ATOM      4  C   UNL     1       3.652   3.770  17.139  0.00  0.00    +0.000 C 
BRANCH   4   5
ATOM      5  C   UNL     1       4.815   4.269  16.394  0.00  0.00    +0.000 A 
ATOM      6  C   UNL     1       5.649   5.281  16.897  0.00  0.00    +0.000 A 
ATOM      7  C   UNL     1       6.760   5.723  16.173  0.00  0.00    +0.000 A 
ATOM      8  C   UNL     1       7.045   5.139  14.947  0.00  0.00    +0.000 A 
ATOM      9  C   UNL     1       6.241   4.115  14.453  0.00  0.00    +0.000 A 
ATOM     10  C   UNL     1       5.135   3.671  15.167  0.00  0.00    +0.000 A 
BRANCH   8  11
ATOM     11  O   UNL     1       8.110   5.535  14.189  0.00  0.00    +0.000 OA
ATOM     12  H   UNL     1       8.460   6.359  14.569  0.00  0.00    +0.000 HD
ENDBRANCH   8  11
BRANCH   9  13
ATOM     13  O   UNL     1       6.537   3.535  13.253  0.00  0.00    +0.000 OA
ATOM     14  H   UNL     1       5.678   3.473  12.790  0.00  0.00    +0.000 HD
ENDBRANCH   9  13
ENDBRANCH   4   5
ENDBRANCH   1   3
BRANCH   1  15
ATOM     15  C   UNL     1       2.470   2.155  20.247  0.00  0.00    +0.000 C 
BRANCH  15  16
ATOM     16  C   UNL     1       1.770   3.188  21.091  0.00  0.00    +0.000 C 
ATOM     17  O   UNL     1       1.540   2.983  22.282  0.00  0.00    +0.000 OA
BRANCH  16  19
ATOM     18  C   UNL     1       2.327   5.462  20.346  0.00  0.00    +0.000 C 
ATOM     19  C   UNL     1       1.409   4.487  20.449  0.00  0.00    +0.000 C 
BRANCH  18  24
ATOM     20  C   UNL     1       1.351   9.098  19.851  0.00  0.00    +0.000 A 
ATOM     21  C   UNL     1       1.754   9.306  18.529  0.00  0.00    +0.000 A 
ATOM     22  C   UNL     1       2.328   8.259  17.810  0.00  0.00    +0.000 A 
ATOM     23  C   UNL     1       2.500   7.007  18.412  0.00  0.00    +0.000 A 
ATOM     24  C   UNL     1       2.095   6.782  19.736  0.00  0.00    +0.000 A 
ATOM     25  C   UNL     1       1.531   7.844  20.452  0.00  0.00    +0.000 A 
BRANCH  20  27
ATOM     26  N   UNL     1       0.266  11.020  21.210  0.00  0.00    +0.000 NA
ATOM     27  C   UNL     1       0.742  10.152  20.601  0.00  0.00    +0.000 C 
ENDBRANCH  20  27
ENDBRANCH  18  24
ENDBRANCH  16  19
ENDBRANCH  15  16
ENDBRANCH   1  15
TORSDOF 9
ENDMDL
MODEL 6
REMARK VINA RESULT:      -7.8      4.999      7.495
REMARK  Name = 
REMARK  9 active torsions:
REMARK  status: ('A' for Active; 'I' for Inactive)
REMARK    1  A    between atoms: C_2  and  C_3
REMARK    2  A    between atoms: C_7  and  C_8
REMARK    3  A    between atoms: C_9  and  C_10
REMARK    4  A    between atoms: C_10  and  C_12
REMARK    5  A    between atoms: C_12  and  C_13
REMARK    6  A    between atoms: C_13  and  C_15
REMARK    7  A    between atoms: C_16  and  C_17
REMARK    8  A    between atoms: C_20  and  O_21
REMARK    9  A    between atoms: C_22  and  O_23
REMARK                            x       y       z     vdW  Elec       q    Type
REMARK                         _______ _______ _______ _____ _____    ______ ____
ROOT
ATOM      1  C   UNL     1       7.592   7.459  17.755  0.00  0.00    +0.000 C 
ATOM      2  O   UNL     1       7.053   7.659  16.668  0.00  0.00    +0.000 OA
ENDROOT
BRANCH   1   3
ATOM      3  C   UNL     1       8.135   8.585  18.567  0.00  0.00    +0.000 C 
ATOM      4  C   UNL     1       8.756   9.598  17.940  0.00  0.00    +0.000 C 
BRANCH   4   5
ATOM      5  C   UNL     1       9.339  10.770  18.604  0.00  0.00    +0.000 A 
ATOM      6  C   UNL     1       9.816  11.878  17.884  0.00  0.00    +0.000 A 
ATOM      7  C   UNL     1      10.350  12.988  18.546  0.00  0.00    +0.000 A 
ATOM      8  C   UNL     1      10.393  12.994  19.933  0.00  0.00    +0.000 A 
ATOM      9  C   UNL     1       9.895  11.913  20.655  0.00  0.00    +0.000 A 
ATOM     10  C   UNL     1       9.364  10.807  20.005  0.00  0.00    +0.000 A 
BRANCH   8  11
ATOM     11  O   UNL     1      10.911  14.046  20.635  0.00  0.00    +0.000 OA
ATOM     12  H   UNL     1      10.468  14.077  21.501  0.00  0.00    +0.000 HD
ENDBRANCH   8  11
BRANCH   9  13
ATOM     13  O   UNL     1       9.927  11.933  22.020  0.00  0.00    +0.000 OA
ATOM     14  H   UNL     1       9.579  11.060  22.288  0.00  0.00    +0.000 HD
ENDBRANCH   9  13
ENDBRANCH   4   5
ENDBRANCH   1   3
BRANCH   1  15
ATOM     15  C   UNL     1       7.740   6.066  18.300  0.00  0.00    +0.000 C 
BRANCH  15  16
ATOM     16  C   UNL     1       7.245   4.982  17.378  0.00  0.00    +0.000 C 
ATOM     17  O   UNL     1       8.018   4.384  16.630  0.00  0.00    +0.000 OA
BRANCH  16  19
ATOM     18  C   UNL     1       5.250   4.235  18.602  0.00  0.00    +0.000 C 
ATOM     19  C   UNL     1       5.798   4.619  17.438  0.00  0.00    +0.000 C 
BRANCH  18  24
ATOM     20  C   UNL     1       1.979   3.135  20.187  0.00  0.00    +0.000 A 
ATOM     21  C   UNL     1       1.111   3.219  19.095  0.00  0.00    +0.000 A 
ATOM     22  C   UNL     1       1.601   3.620  17.854  0.00  0.00    +0.000 A 
ATOM     23  C   UNL     1       2.956   3.939  17.705  0.00  0.00    +0.000 A 
ATOM     24  C   UNL     1       3.840   3.855  18.790  0.00  0.00    +0.000 A 
ATOM     25  C   UNL     1       3.334   3.462  20.035  0.00  0.00    +0.000 A 
BRANCH  20  27
ATOM     26  N   UNL     1       1.099   2.345  22.494  0.00  0.00    +0.000 NA
ATOM     27  C   UNL     1       1.502   2.706  21.464  0.00  0.00    +0.000 C 
ENDBRANCH  20  27
ENDBRANCH  18  24
ENDBRANCH  16  19
ENDBRANCH  15  16
ENDBRANCH   1  15
TORSDOF 9
ENDMDL
MODEL 7
REMARK VINA RESULT:      -7.8      5.043      7.597
REMARK  Name = 
REMARK  9 active torsions:
REMARK  status: ('A' for Active; 'I' for Inactive)
REMARK    1  A    between atoms: C_2  and  C_3
REMARK    2  A    between atoms: C_7  and  C_8
REMARK    3  A    between atoms: C_9  and  C_10
REMARK    4  A    between atoms: C_10  and  C_12
REMARK    5  A    between atoms: C_12  and  C_13
REMARK    6  A    between atoms: C_13  and  C_15
REMARK    7  A    between atoms: C_16  and  C_17
REMARK    8  A    between atoms: C_20  and  O_21
REMARK    9  A    between atoms: C_22  and  O_23
REMARK                            x       y       z     vdW  Elec       q    Type
REMARK                         _______ _______ _______ _____ _____    ______ ____
ROOT
ATOM      1  C   UNL     1       7.441   5.333  18.399  0.00  0.00    +0.000 C 
ATOM      2  O   UNL     1       8.120   4.447  17.881  0.00  0.00    +0.000 OA
ENDROOT
BRANCH   1   3
ATOM      3  C   UNL     1       6.007   5.109  18.738  0.00  0.00    +0.000 C 
ATOM      4  C   UNL     1       5.442   3.932  18.424  0.00  0.00    +0.000 C 
BRANCH   4   5
ATOM      5  C   UNL     1       4.045   3.569  18.695  0.00  0.00    +0.000 A 
ATOM      6  C   UNL     1       3.672   2.821  19.825  0.00  0.00    +0.000 A 
ATOM      7  C   UNL     1       2.332   2.506  20.066  0.00  0.00    +0.000 A 
ATOM      8  C   UNL     1       1.361   2.952  19.180  0.00  0.00    +0.000 A 
ATOM      9  C   UNL     1       1.718   3.717  18.075  0.00  0.00    +0.000 A 
ATOM     10  C   UNL     1       3.048   4.035  17.828  0.00  0.00    +0.000 A 
BRANCH   8  11
ATOM     11  O   UNL     1       0.036   2.667  19.358  0.00  0.00    +0.000 OA
ATOM     12  H   UNL     1      -0.272   2.171  18.579  0.00  0.00    +0.000 HD
ENDBRANCH   8  11
BRANCH   9  13
ATOM     13  O   UNL     1       0.756   4.166  17.216  0.00  0.00    +0.000 OA
ATOM     14  H   UNL     1       1.050   3.864  16.334  0.00  0.00    +0.000 HD
ENDBRANCH   9  13
ENDBRANCH   4   5
ENDBRANCH   1   3
BRANCH   1  15
ATOM     15  C   UNL     1       8.029   6.685  18.693  0.00  0.00    +0.000 C 
BRANCH  15  16
ATOM     16  C   UNL     1       7.693   7.744  17.676  0.00  0.00    +0.000 C 
ATOM     17  O   UNL     1       6.909   7.514  16.756  0.00  0.00    +0.000 OA
BRANCH  16  19
ATOM     18  C   UNL     1       8.933   9.408  18.991  0.00  0.00    +0.000 C 
ATOM     19  C   UNL     1       8.301   9.097  17.847  0.00  0.00    +0.000 C 
BRANCH  18  24
ATOM     20  C   UNL     1       9.902  12.668  20.681  0.00  0.00    +0.000 A 
ATOM     21  C   UNL     1      10.892  13.136  19.813  0.00  0.00    +0.000 A 
ATOM     22  C   UNL     1      11.225  12.393  18.681  0.00  0.00    +0.000 A 
ATOM     23  C   UNL     1      10.571  11.183  18.420  0.00  0.00    +0.000 A 
ATOM     24  C   UNL     1       9.572  10.703  19.280  0.00  0.00    +0.000 A 
ATOM     25  C   UNL     1       9.254  11.453  20.419  0.00  0.00    +0.000 A 
BRANCH  20  27
ATOM     26  N   UNL     1       9.214  14.051  22.763  0.00  0.00    +0.000 NA
ATOM     27  C   UNL     1       9.530  13.424  21.836  0.00  0.00    +0.000 C 
ENDBRANCH  20  27
ENDBRANCH  18  24
ENDBRANCH  16  19
ENDBRANCH  15  16
ENDBRANCH   1  15
TORSDOF 9
ENDMDL
MODEL 8
REMARK VINA RESULT:      -7.8      4.807      7.397
REMARK  Name = 
REMARK  9 active torsions:
REMARK  status: ('A' for Active; 'I' for Inactive)
REMARK    1  A    between atoms: C_2  and  C_3
REMARK    2  A    between atoms: C_7  and  C_8
REMARK    3  A    between atoms: C_9  and  C_10
REMARK    4  A    between atoms: C_10  and  C_12
REMARK    5  A    between atoms: C_12  and  C_13
REMARK    6  A    between atoms: C_13  and  C_15
REMARK    7  A    between atoms: C_16  and  C_17
REMARK    8  A    between atoms: C_20  and  O_21
REMARK    9  A    between atoms: C_22  and  O_23
REMARK                            x       y       z     vdW  Elec       q    Type
REMARK                         _______ _______ _______ _____ _____    ______ ____
ROOT
ATOM      1  C   UNL     1       7.230   5.569  19.100  0.00  0.00    +0.000 C 
ATOM      2  O   UNL     1       7.562   5.627  20.283  0.00  0.00    +0.000 OA
ENDROOT
BRANCH   1   3
ATOM      3  C   UNL     1       6.079   4.730  18.660  0.00  0.00    +0.000 C 
ATOM      4  C   UNL     1       4.937   4.775  19.365  0.00  0.00    +0.000 C 
BRANCH   4   5
ATOM      5  C   UNL     1       3.724   4.008  19.054  0.00  0.00    +0.000 A 
ATOM      6  C   UNL     1       3.581   3.288  17.856  0.00  0.00    +0.000 A 
ATOM      7  C   UNL     1       2.421   2.552  17.595  0.00  0.00    +0.000 A 
ATOM      8  C   UNL     1       1.407   2.527  18.543  0.00  0.00    +0.000 A 
ATOM      9  C   UNL     1       1.553   3.214  19.744  0.00  0.00    +0.000 A 
ATOM     10  C   UNL     1       2.702   3.947  20.011  0.00  0.00    +0.000 A 
BRANCH   8  11
ATOM     11  O   UNL     1       0.247   1.834  18.341  0.00  0.00    +0.000 OA
ATOM     12  H   UNL     1      -0.265   2.298  17.656  0.00  0.00    +0.000 HD
ENDBRANCH   8  11
BRANCH   9  13
ATOM     13  O   UNL     1       0.557   3.172  20.678  0.00  0.00    +0.000 OA
ATOM     14  H   UNL     1      -0.044   3.902  20.432  0.00  0.00    +0.000 HD
ENDBRANCH   9  13
ENDBRANCH   4   5
ENDBRANCH   1   3
BRANCH   1  15
ATOM     15  C   UNL     1       7.987   6.329  18.046  0.00  0.00    +0.000 C 
BRANCH  15  16
ATOM     16  C   UNL     1       7.230   7.487  17.450  0.00  0.00    +0.000 C 
ATOM     17  O   UNL     1       6.198   7.304  16.805  0.00  0.00    +0.000 OA
BRANCH  16  19
ATOM     18  C   UNL     1       8.722   9.059  18.605  0.00  0.00    +0.000 C 
ATOM     19  C   UNL     1       7.742   8.865  17.709  0.00  0.00    +0.000 C 
BRANCH  18  24
ATOM     20  C   UNL     1       9.704  12.202  20.498  0.00  0.00    +0.000 A 
ATOM     21  C   UNL     1      10.534  12.828  19.565  0.00  0.00    +0.000 A 
ATOM     22  C   UNL     1      10.756  12.229  18.326  0.00  0.00    +0.000 A 
ATOM     23  C   UNL     1      10.151  11.003  18.023  0.00  0.00    +0.000 A 
ATOM     24  C   UNL     1       9.311  10.365  18.947  0.00  0.00    +0.000 A 
ATOM     25  C   UNL     1       9.105  10.971  20.192  0.00  0.00    +0.000 A 
BRANCH  20  27
ATOM     26  N   UNL     1       9.216  13.298  22.796  0.00  0.00    +0.000 NA
ATOM     27  C   UNL     1       9.446  12.809  21.766  0.00  0.00    +0.000 C 
ENDBRANCH  20  27
ENDBRANCH  18  24
ENDBRANCH  16  19
ENDBRANCH  15  16
ENDBRANCH   1  15
TORSDOF 9
ENDMDL
MODEL 9
REMARK VINA RESULT:      -7.6      5.225      8.045
REMARK  Name = 
REMARK  9 active torsions:
REMARK  status: ('A' for Active; 'I' for Inactive)
REMARK    1  A    between atoms: C_2  and  C_3
REMARK    2  A    between atoms: C_7  and  C_8
REMARK    3  A    between atoms: C_9  and  C_10
REMARK    4  A    between atoms: C_10  and  C_12
REMARK    5  A    between atoms: C_12  and  C_13
REMARK    6  A    between atoms: C_13  and  C_15
REMARK    7  A    between atoms: C_16  and  C_17
REMARK    8  A    between atoms: C_20  and  O_21
REMARK    9  A    between atoms: C_22  and  O_23
REMARK                            x       y       z     vdW  Elec       q    Type
REMARK                         _______ _______ _______ _____ _____    ______ ____
ROOT
ATOM      1  C   UNL     1       6.756   5.552  16.412  0.00  0.00    +0.000 C 
ATOM      2  O   UNL     1       7.145   5.327  15.267  0.00  0.00    +0.000 OA
ENDROOT
BRANCH   1   3
ATOM      3  C   UNL     1       5.407   5.114  16.870  0.00  0.00    +0.000 C 
ATOM      4  C   UNL     1       5.229   4.809  18.166  0.00  0.00    +0.000 C 
BRANCH   4   5
ATOM      5  C   UNL     1       3.962   4.365  18.761  0.00  0.00    +0.000 A 
ATOM      6  C   UNL     1       3.218   5.179  19.631  0.00  0.00    +0.000 A 
ATOM      7  C   UNL     1       2.006   4.736  20.168  0.00  0.00    +0.000 A 
ATOM      8  C   UNL     1       1.531   3.478  19.822  0.00  0.00    +0.000 A 
ATOM      9  C   UNL     1       2.247   2.677  18.939  0.00  0.00    +0.000 A 
ATOM     10  C   UNL     1       3.453   3.110  18.401  0.00  0.00    +0.000 A 
BRANCH   8  11
ATOM     11  O   UNL     1       0.358   2.986  20.322  0.00  0.00    +0.000 OA
ATOM     12  H   UNL     1      -0.078   2.476  19.618  0.00  0.00    +0.000 HD
ENDBRANCH   8  11
BRANCH   9  13
ATOM     13  O   UNL     1       1.766   1.447  18.591  0.00  0.00    +0.000 OA
ATOM     14  H   UNL     1       1.460   1.553  17.668  0.00  0.00    +0.000 HD
ENDBRANCH   9  13
ENDBRANCH   4   5
ENDBRANCH   1   3
BRANCH   1  15
ATOM     15  C   UNL     1       7.622   6.296  17.390  0.00  0.00    +0.000 C 
BRANCH  15  16
ATOM     16  C   UNL     1       7.359   7.778  17.452  0.00  0.00    +0.000 C 
ATOM     17  O   UNL     1       6.387   8.273  16.883  0.00  0.00    +0.000 OA
BRANCH  16  19
ATOM     18  C   UNL     1       8.540   9.885  17.899  0.00  0.00    +0.000 C 
ATOM     19  C   UNL     1       8.285   8.619  18.267  0.00  0.00    +0.000 C 
BRANCH  18  24
ATOM     20  C   UNL     1      10.969  12.700  18.673  0.00  0.00    +0.000 A 
ATOM     21  C   UNL     1      11.055  12.605  20.064  0.00  0.00    +0.000 A 
ATOM     22  C   UNL     1      10.333  11.619  20.734  0.00  0.00    +0.000 A 
ATOM     23  C   UNL     1       9.523  10.732  20.014  0.00  0.00    +0.000 A 
ATOM     24  C   UNL     1       9.431  10.813  18.617  0.00  0.00    +0.000 A 
ATOM     25  C   UNL     1      10.152  11.814  17.956  0.00  0.00    +0.000 A 
BRANCH  20  27
ATOM     26  N   UNL     1      12.330  14.506  17.405  0.00  0.00    +0.000 NA
ATOM     27  C   UNL     1      11.717  13.690  17.963  0.00  0.00    +0.000 C 
ENDBRANCH  20  27
ENDBRANCH  18  24
ENDBRANCH  16  19
ENDBRANCH  15  16
ENDBRANCH   1  15
TORSDOF 9
ENDMDL
