MODEL 1
REMARK VINA RESULT:      -7.7      0.000      0.000
REMARK  Name = 
REMARK  4 active torsions:
REMARK  status: ('A' for Active; 'I' for Inactive)
REMARK    1  A    between atoms: C_2  and  C_3
REMARK    2  A    between atoms: C_3  and  S_4
REMARK    3  A    between atoms: S_4  and  C_7
REMARK    4  A    between atoms: C_7  and  C_8
REMARK                            x       y       z     vdW  Elec       q    Type
REMARK                         _______ _______ _______ _____ _____    ______ ____
ROOT
ATOM      1  C   UNL     1       6.101   4.732  18.139  0.00  0.00    +0.000 C 
ENDROOT
BRANCH   1   3
ATOM      2  O   UNL     1       7.750   5.756  16.782  0.00  0.00    +0.000 OA
ATOM      3  C   UNL     1       6.768   5.024  16.831  0.00  0.00    +0.000 C 
ATOM      4  N   UNL     1       6.211   4.353  15.765  0.00  0.00    +0.000 N 
ATOM      5  C   UNL     1       6.635   4.451  14.444  0.00  0.00    +0.000 A 
ATOM      6  N   UNL     1       6.044   3.573  13.619  0.00  0.00    +0.000 NA
ATOM      7  C   UNL     1       6.442   3.603  12.332  0.00  0.00    +0.000 A 
ATOM      8  C   UNL     1       7.379   4.480  11.844  0.00  0.00    +0.000 A 
ATOM      9  C   UNL     1       7.900   5.352  12.767  0.00  0.00    +0.000 A 
ATOM     10  N   UNL     1       7.541   5.354  14.061  0.00  0.00    +0.000 NA
ATOM     11  H   UNL     1       5.519   3.629  15.881  0.00  0.00    +0.000 HD
ENDBRANCH   1   3
BRANCH   1  12
ATOM     12  S   UNL     1       4.432   5.322  18.163  0.00  0.00    +0.000 S 
ATOM     13  O   UNL     1       4.187   5.749  19.531  0.00  0.00    +0.000 OA
ATOM     14  O   UNL     1       4.233   6.242  17.061  0.00  0.00    +0.000 OA
BRANCH  12  15
ATOM     15  C   UNL     1       3.466   3.834  17.882  0.00  0.00    +0.000 C 
BRANCH  15  16
ATOM     16  C   UNL     1       2.736   3.461  19.143  0.00  0.00    +0.000 A 
ATOM     17  C   UNL     1       1.384   3.802  19.297  0.00  0.00    +0.000 A 
ATOM     18  C   UNL     1       0.701   3.478  20.469  0.00  0.00    +0.000 A 
ATOM     19  C   UNL     1       1.360   2.812  21.499  0.00  0.00    +0.000 A 
ATOM     20  C   UNL     1       2.704   2.470  21.359  0.00  0.00    +0.000 A 
ATOM     21  C   UNL     1       3.390   2.792  20.187  0.00  0.00    +0.000 A 
ENDBRANCH  15  16
ENDBRANCH  12  15
ENDBRANCH   1  12
TORSDOF 4
ENDMDL
MODEL 2
REMARK VINA RESULT:      -7.7      0.100      1.083
REMARK  Name = 
REMARK  4 active torsions:
REMARK  status: ('A' for Active; 'I' for Inactive)
REMARK    1  A    between atoms: C_2  and  C_3
REMARK    2  A    between atoms: C_3  and  S_4
REMARK    3  A    between atoms: S_4  and  C_7
REMARK    4  A    between atoms: C_7  and  C_8
REMARK                            x       y       z     vdW  Elec       q    Type
REMARK                         _______ _______ _______ _____ _____    ______ ____
ROOT
ATOM      1  C   UNL     1       6.012   4.785  18.103  0.00  0.00    +0.000 C 
ENDROOT
BRANCH   1   3
ATOM      2  O   UNL     1       7.684   5.802  16.768  0.00  0.00    +0.000 OA
ATOM      3  C   UNL     1       6.704   5.066  16.805  0.00  0.00    +0.000 C 
ATOM      4  N   UNL     1       6.171   4.382  15.735  0.00  0.00    +0.000 N 
ATOM      5  C   UNL     1       6.620   4.468  14.422  0.00  0.00    +0.000 A 
ATOM      6  N   UNL     1       6.049   3.580  13.595  0.00  0.00    +0.000 NA
ATOM      7  C   UNL     1       6.471   3.598  12.315  0.00  0.00    +0.000 A 
ATOM      8  C   UNL     1       7.415   4.473  11.837  0.00  0.00    +0.000 A 
ATOM      9  C   UNL     1       7.915   5.357  12.761  0.00  0.00    +0.000 A 
ATOM     10  N   UNL     1       7.530   5.370  14.048  0.00  0.00    +0.000 NA
ATOM     11  H   UNL     1       5.479   3.657  15.845  0.00  0.00    +0.000 HD
ENDBRANCH   1   3
BRANCH   1  12
ATOM     12  S   UNL     1       4.336   5.352  18.082  0.00  0.00    +0.000 S 
ATOM     13  O   UNL     1       4.066   5.828  19.429  0.00  0.00    +0.000 OA
ATOM     14  O   UNL     1       4.140   6.226  16.943  0.00  0.00    +0.000 OA
BRANCH  12  15
ATOM     15  C   UNL     1       3.394   3.842  17.845  0.00  0.00    +0.000 C 
BRANCH  15  16
ATOM     16  C   UNL     1       2.718   3.462  19.134  0.00  0.00    +0.000 A 
ATOM     17  C   UNL     1       3.452   2.841  20.155  0.00  0.00    +0.000 A 
ATOM     18  C   UNL     1       2.832   2.468  21.347  0.00  0.00    +0.000 A 
ATOM     19  C   UNL     1       1.473   2.710  21.532  0.00  0.00    +0.000 A 
ATOM     20  C   UNL     1       0.732   3.324  20.524  0.00  0.00    +0.000 A 
ATOM     21  C   UNL     1       1.349   3.700  19.330  0.00  0.00    +0.000 A 
ENDBRANCH  15  16
ENDBRANCH  12  15
ENDBRANCH   1  12
TORSDOF 4
ENDMDL
MODEL 3
REMARK VINA RESULT:      -7.6      1.418      1.960
REMARK  Name = 
REMARK  4 active torsions:
REMARK  status: ('A' for Active; 'I' for Inactive)
REMARK    1  A    between atoms: C_2  and  C_3
REMARK    2  A    between atoms: C_3  and  S_4
REMARK    3  A    between atoms: S_4  and  C_7
REMARK    4  A    between atoms: C_7  and  C_8
REMARK                            x       y       z     vdW  Elec       q    Type
REMARK                         _______ _______ _______ _____ _____    ______ ____
ROOT
ATOM      1  C   UNL     1       5.464   6.420  17.722  0.00  0.00    +0.000 C 
ENDROOT
BRANCH   1   3
ATOM      2  O   UNL     1       7.464   6.501  16.455  0.00  0.00    +0.000 OA
ATOM      3  C   UNL     1       6.304   6.109  16.522  0.00  0.00    +0.000 C 
ATOM      4  N   UNL     1       5.668   5.318  15.592  0.00  0.00    +0.000 N 
ATOM      5  C   UNL     1       6.219   4.891  14.389  0.00  0.00    +0.000 A 
ATOM      6  N   UNL     1       5.465   3.994  13.736  0.00  0.00    +0.000 NA
ATOM      7  C   UNL     1       5.966   3.522  12.577  0.00  0.00    +0.000 A 
ATOM      8  C   UNL     1       7.168   3.924  12.048  0.00  0.00    +0.000 A 
ATOM      9  C   UNL     1       7.846   4.865  12.783  0.00  0.00    +0.000 A 
ATOM     10  N   UNL     1       7.389   5.358  13.946  0.00  0.00    +0.000 NA
ATOM     11  H   UNL     1       4.779   4.877  15.771  0.00  0.00    +0.000 HD
ENDBRANCH   1   3
BRANCH   1  12
ATOM     12  S   UNL     1       5.507   5.102  18.903  0.00  0.00    +0.000 S 
ATOM     13  O   UNL     1       5.309   3.883  18.136  0.00  0.00    +0.000 OA
ATOM     14  O   UNL     1       6.673   5.254  19.750  0.00  0.00    +0.000 OA
BRANCH  12  15
ATOM     15  C   UNL     1       4.022   5.374  19.876  0.00  0.00    +0.000 C 
BRANCH  15  16
ATOM     16  C   UNL     1       2.957   4.401  19.453  0.00  0.00    +0.000 A 
ATOM     17  C   UNL     1       2.701   3.260  20.228  0.00  0.00    +0.000 A 
ATOM     18  C   UNL     1       1.729   2.341  19.837  0.00  0.00    +0.000 A 
ATOM     19  C   UNL     1       1.001   2.550  18.668  0.00  0.00    +0.000 A 
ATOM     20  C   UNL     1       1.247   3.678  17.888  0.00  0.00    +0.000 A 
ATOM     21  C   UNL     1       2.219   4.601  18.277  0.00  0.00    +0.000 A 
ENDBRANCH  15  16
ENDBRANCH  12  15
ENDBRANCH   1  12
TORSDOF 4
ENDMDL
MODEL 4
REMARK VINA RESULT:      -7.5      1.055      1.219
REMARK  Name = 
REMARK  4 active torsions:
REMARK  status: ('A' for Active; 'I' for Inactive)
REMARK    1  A    between atoms: C_2  and  C_3
REMARK    2  A    between atoms: C_3  and  S_4
REMARK    3  A    between atoms: S_4  and  C_7
REMARK    4  A    between atoms: C_7  and  C_8
REMARK                            x       y       z     vdW  Elec       q    Type
REMARK                         _______ _______ _______ _____ _____    ______ ____
ROOT
ATOM      1  C   UNL     1       6.233   5.662  18.086  0.00  0.00    +0.000 C 
ENDROOT
BRANCH   1   3
ATOM      2  O   UNL     1       7.849   6.389  16.514  0.00  0.00    +0.000 OA
ATOM      3  C   UNL     1       6.859   5.696  16.727  0.00  0.00    +0.000 C 
ATOM      4  N   UNL     1       6.259   4.851  15.820  0.00  0.00    +0.000 N 
ATOM      5  C   UNL     1       6.640   4.697  14.492  0.00  0.00    +0.000 A 
ATOM      6  N   UNL     1       6.011   3.693  13.861  0.00  0.00    +0.000 NA
ATOM      7  C   UNL     1       6.365   3.478  12.579  0.00  0.00    +0.000 A 
ATOM      8  C   UNL     1       7.297   4.233  11.910  0.00  0.00    +0.000 A 
ATOM      9  C   UNL     1       7.860   5.250  12.639  0.00  0.00    +0.000 A 
ATOM     10  N   UNL     1       7.544   5.496  13.922  0.00  0.00    +0.000 NA
ATOM     11  H   UNL     1       5.562   4.174  16.088  0.00  0.00    +0.000 HD
ENDBRANCH   1   3
BRANCH   1  12
ATOM     12  S   UNL     1       4.563   5.078  18.017  0.00  0.00    +0.000 S 
ATOM     13  O   UNL     1       3.913   5.872  16.987  0.00  0.00    +0.000 OA
ATOM     14  O   UNL     1       4.566   3.631  17.935  0.00  0.00    +0.000 OA
BRANCH  12  15
ATOM     15  C   UNL     1       3.884   5.586  19.600  0.00  0.00    +0.000 C 
BRANCH  15  16
ATOM     16  C   UNL     1       2.853   4.587  20.049  0.00  0.00    +0.000 A 
ATOM     17  C   UNL     1       1.680   4.405  19.302  0.00  0.00    +0.000 A 
ATOM     18  C   UNL     1       0.708   3.497  19.718  0.00  0.00    +0.000 A 
ATOM     19  C   UNL     1       0.896   2.760  20.886  0.00  0.00    +0.000 A 
ATOM     20  C   UNL     1       2.056   2.933  21.639  0.00  0.00    +0.000 A 
ATOM     21  C   UNL     1       3.031   3.842  21.224  0.00  0.00    +0.000 A 
ENDBRANCH  15  16
ENDBRANCH  12  15
ENDBRANCH   1  12
TORSDOF 4
ENDMDL
MODEL 5
REMARK VINA RESULT:      -7.4      2.667      7.172
REMARK  Name = 
REMARK  4 active torsions:
REMARK  status: ('A' for Active; 'I' for Inactive)
REMARK    1  A    between atoms: C_2  and  C_3
REMARK    2  A    between atoms: C_3  and  S_4
REMARK    3  A    between atoms: S_4  and  C_7
REMARK    4  A    between atoms: C_7  and  C_8
REMARK                            x       y       z     vdW  Elec       q    Type
REMARK                         _______ _______ _______ _____ _____    ______ ____
ROOT
ATOM      1  C   UNL     1       6.539   5.833  18.575  0.00  0.00    +0.000 C 
ENDROOT
BRANCH   1   3
ATOM      2  O   UNL     1       5.905   3.602  19.059  0.00  0.00    +0.000 OA
ATOM      3  C   UNL     1       5.562   4.778  18.993  0.00  0.00    +0.000 C 
ATOM      4  N   UNL     1       4.324   5.274  19.336  0.00  0.00    +0.000 N 
ATOM      5  C   UNL     1       3.239   4.510  19.751  0.00  0.00    +0.000 A 
ATOM      6  N   UNL     1       2.201   5.238  20.189  0.00  0.00    +0.000 NA
ATOM      7  C   UNL     1       1.132   4.547  20.634  0.00  0.00    +0.000 A 
ATOM      8  C   UNL     1       1.060   3.176  20.637  0.00  0.00    +0.000 A 
ATOM      9  C   UNL     1       2.165   2.530  20.143  0.00  0.00    +0.000 A 
ATOM     10  N   UNL     1       3.256   3.177  19.697  0.00  0.00    +0.000 NA
ATOM     11  H   UNL     1       4.144   6.261  19.434  0.00  0.00    +0.000 HD
ENDBRANCH   1   3
BRANCH   1  12
ATOM     12  S   UNL     1       7.226   5.487  16.981  0.00  0.00    +0.000 S 
ATOM     13  O   UNL     1       7.870   6.720  16.557  0.00  0.00    +0.000 OA
ATOM     14  O   UNL     1       7.979   4.250  17.042  0.00  0.00    +0.000 OA
BRANCH  12  15
ATOM     15  C   UNL     1       5.775   5.253  15.950  0.00  0.00    +0.000 C 
BRANCH  15  16
ATOM     16  C   UNL     1       6.200   4.847  14.566  0.00  0.00    +0.000 A 
ATOM     17  C   UNL     1       5.469   3.877  13.864  0.00  0.00    +0.000 A 
ATOM     18  C   UNL     1       5.864   3.479  12.587  0.00  0.00    +0.000 A 
ATOM     19  C   UNL     1       6.993   4.044  11.998  0.00  0.00    +0.000 A 
ATOM     20  C   UNL     1       7.729   5.007  12.686  0.00  0.00    +0.000 A 
ATOM     21  C   UNL     1       7.335   5.408  13.964  0.00  0.00    +0.000 A 
ENDBRANCH  15  16
ENDBRANCH  12  15
ENDBRANCH   1  12
TORSDOF 4
ENDMDL
MODEL 6
REMARK VINA RESULT:      -7.3      0.962      1.535
REMARK  Name = 
REMARK  4 active torsions:
REMARK  status: ('A' for Active; 'I' for Inactive)
REMARK    1  A    between atoms: C_2  and  C_3
REMARK    2  A    between atoms: C_3  and  S_4
REMARK    3  A    between atoms: S_4  and  C_7
REMARK    4  A    between atoms: C_7  and  C_8
REMARK                            x       y       z     vdW  Elec       q    Type
REMARK                         _______ _______ _______ _____ _____    ______ ____
ROOT
ATOM      1  C   UNL     1       5.739   4.803  17.978  0.00  0.00    +0.000 C 
ENDROOT
BRANCH   1   3
ATOM      2  O   UNL     1       7.571   5.664  16.747  0.00  0.00    +0.000 OA
ATOM      3  C   UNL     1       6.524   5.026  16.722  0.00  0.00    +0.000 C 
ATOM      4  N   UNL     1       5.986   4.404  15.617  0.00  0.00    +0.000 N 
ATOM      5  C   UNL     1       6.512   4.457  14.331  0.00  0.00    +0.000 A 
ATOM      6  N   UNL     1       5.904   3.634  13.463  0.00  0.00    +0.000 NA
ATOM      7  C   UNL     1       6.395   3.621  12.208  0.00  0.00    +0.000 A 
ATOM      8  C   UNL     1       7.442   4.405  11.792  0.00  0.00    +0.000 A 
ATOM      9  C   UNL     1       7.974   5.229  12.752  0.00  0.00    +0.000 A 
ATOM     10  N   UNL     1       7.523   5.270  14.017  0.00  0.00    +0.000 NA
ATOM     11  H   UNL     1       5.224   3.749  15.680  0.00  0.00    +0.000 HD
ENDBRANCH   1   3
BRANCH   1  12
ATOM     12  S   UNL     1       4.065   5.348  17.803  0.00  0.00    +0.000 S 
ATOM     13  O   UNL     1       4.133   6.581  17.035  0.00  0.00    +0.000 OA
ATOM     14  O   UNL     1       3.246   4.244  17.345  0.00  0.00    +0.000 OA
BRANCH  12  15
ATOM     15  C   UNL     1       3.597   5.784  19.481  0.00  0.00    +0.000 C 
BRANCH  15  16
ATOM     16  C   UNL     1       2.788   4.668  20.085  0.00  0.00    +0.000 A 
ATOM     17  C   UNL     1       3.430   3.634  20.781  0.00  0.00    +0.000 A 
ATOM     18  C   UNL     1       2.693   2.585  21.329  0.00  0.00    +0.000 A 
ATOM     19  C   UNL     1       1.308   2.557  21.187  0.00  0.00    +0.000 A 
ATOM     20  C   UNL     1       0.658   3.577  20.495  0.00  0.00    +0.000 A 
ATOM     21  C   UNL     1       1.393   4.630  19.946  0.00  0.00    +0.000 A 
ENDBRANCH  15  16
ENDBRANCH  12  15
ENDBRANCH   1  12
TORSDOF 4
ENDMDL
MODEL 7
REMARK VINA RESULT:      -7.3      2.509      7.360
REMARK  Name = 
REMARK  4 active torsions:
REMARK  status: ('A' for Active; 'I' for Inactive)
REMARK    1  A    between atoms: C_2  and  C_3
REMARK    2  A    between atoms: C_3  and  S_4
REMARK    3  A    between atoms: S_4  and  C_7
REMARK    4  A    between atoms: C_7  and  C_8
REMARK                            x       y       z     vdW  Elec       q    Type
REMARK                         _______ _______ _______ _____ _____    ______ ____
ROOT
ATOM      1  C   UNL     1       5.890   6.028  17.993  0.00  0.00    +0.000 C 
ENDROOT
BRANCH   1   3
ATOM      2  O   UNL     1       5.956   4.273  19.582  0.00  0.00    +0.000 OA
ATOM      3  C   UNL     1       5.260   5.042  18.927  0.00  0.00    +0.000 C 
ATOM      4  N   UNL     1       3.889   5.148  19.001  0.00  0.00    +0.000 N 
ATOM      5  C   UNL     1       3.063   4.350  19.785  0.00  0.00    +0.000 A 
ATOM      6  N   UNL     1       1.786   4.758  19.814  0.00  0.00    +0.000 NA
ATOM      7  C   UNL     1       0.946   4.039  20.585  0.00  0.00    +0.000 A 
ATOM      8  C   UNL     1       1.330   2.932  21.301  0.00  0.00    +0.000 A 
ATOM      9  C   UNL     1       2.652   2.586  21.179  0.00  0.00    +0.000 A 
ATOM     10  N   UNL     1       3.527   3.277  20.430  0.00  0.00    +0.000 NA
ATOM     11  H   UNL     1       3.380   5.908  18.578  0.00  0.00    +0.000 HD
ENDBRANCH   1   3
BRANCH   1  12
ATOM     12  S   UNL     1       5.543   5.634  16.302  0.00  0.00    +0.000 S 
ATOM     13  O   UNL     1       4.544   4.578  16.344  0.00  0.00    +0.000 OA
ATOM     14  O   UNL     1       5.287   6.857  15.568  0.00  0.00    +0.000 OA
BRANCH  12  15
ATOM     15  C   UNL     1       7.078   4.902  15.727  0.00  0.00    +0.000 C 
BRANCH  15  16
ATOM     16  C   UNL     1       6.984   4.628  14.251  0.00  0.00    +0.000 A 
ATOM     17  C   UNL     1       6.118   3.632  13.777  0.00  0.00    +0.000 A 
ATOM     18  C   UNL     1       6.036   3.356  12.413  0.00  0.00    +0.000 A 
ATOM     19  C   UNL     1       6.817   4.070  11.508  0.00  0.00    +0.000 A 
ATOM     20  C   UNL     1       7.683   5.061  11.967  0.00  0.00    +0.000 A 
ATOM     21  C   UNL     1       7.767   5.340  13.332  0.00  0.00    +0.000 A 
ENDBRANCH  15  16
ENDBRANCH  12  15
ENDBRANCH   1  12
TORSDOF 4
ENDMDL
MODEL 8
REMARK VINA RESULT:      -7.2      1.025      1.623
REMARK  Name = 
REMARK  4 active torsions:
REMARK  status: ('A' for Active; 'I' for Inactive)
REMARK    1  A    between atoms: C_2  and  C_3
REMARK    2  A    between atoms: C_3  and  S_4
REMARK    3  A    between atoms: S_4  and  C_7
REMARK    4  A    between atoms: C_7  and  C_8
REMARK                            x       y       z     vdW  Elec       q    Type
REMARK                         _______ _______ _______ _____ _____    ______ ____
ROOT
ATOM      1  C   UNL     1       5.063   6.288  17.522  0.00  0.00    +0.000 C 
ENDROOT
BRANCH   1   3
ATOM      2  O   UNL     1       7.069   6.659  16.319  0.00  0.00    +0.000 OA
ATOM      3  C   UNL     1       5.983   6.093  16.356  0.00  0.00    +0.000 C 
ATOM      4  N   UNL     1       5.509   5.199  15.422  0.00  0.00    +0.000 N 
ATOM      5  C   UNL     1       6.162   4.846  14.246  0.00  0.00    +0.000 A 
ATOM      6  N   UNL     1       5.579   3.833  13.587  0.00  0.00    +0.000 NA
ATOM      7  C   UNL     1       6.189   3.427  12.455  0.00  0.00    +0.000 A 
ATOM      8  C   UNL     1       7.332   4.003  11.957  0.00  0.00    +0.000 A 
ATOM      9  C   UNL     1       7.830   5.047  12.695  0.00  0.00    +0.000 A 
ATOM     10  N   UNL     1       7.261   5.481  13.833  0.00  0.00    +0.000 NA
ATOM     11  H   UNL     1       4.694   4.629  15.581  0.00  0.00    +0.000 HD
ENDBRANCH   1   3
BRANCH   1  12
ATOM     12  S   UNL     1       5.172   4.942  18.667  0.00  0.00    +0.000 S 
ATOM     13  O   UNL     1       6.447   4.298  18.393  0.00  0.00    +0.000 OA
ATOM     14  O   UNL     1       4.866   5.422  20.000  0.00  0.00    +0.000 OA
BRANCH  12  15
ATOM     15  C   UNL     1       3.875   3.829  18.119  0.00  0.00    +0.000 C 
BRANCH  15  16
ATOM     16  C   UNL     1       2.962   3.513  19.272  0.00  0.00    +0.000 A 
ATOM     17  C   UNL     1       3.416   2.707  20.326  0.00  0.00    +0.000 A 
ATOM     18  C   UNL     1       2.573   2.392  21.391  0.00  0.00    +0.000 A 
ATOM     19  C   UNL     1       1.267   2.876  21.414  0.00  0.00    +0.000 A 
ATOM     20  C   UNL     1       0.803   3.676  20.371  0.00  0.00    +0.000 A 
ATOM     21  C   UNL     1       1.645   3.994  19.304  0.00  0.00    +0.000 A 
ENDBRANCH  15  16
ENDBRANCH  12  15
ENDBRANCH   1  12
TORSDOF 4
ENDMDL
MODEL 9
REMARK VINA RESULT:      -7.2      2.379      6.753
REMARK  Name = 
REMARK  4 active torsions:
REMARK  status: ('A' for Active; 'I' for Inactive)
REMARK    1  A    between atoms: C_2  and  C_3
REMARK    2  A    between atoms: C_3  and  S_4
REMARK    3  A    between atoms: S_4  and  C_7
REMARK    4  A    between atoms: C_7  and  C_8
REMARK                            x       y       z     vdW  Elec       q    Type
REMARK                         _______ _______ _______ _____ _____    ______ ____
ROOT
ATOM      1  C   UNL     1       6.292   6.035  18.508  0.00  0.00    +0.000 C 
ENDROOT
BRANCH   1   3
ATOM      2  O   UNL     1       5.834   3.913  19.455  0.00  0.00    +0.000 OA
ATOM      3  C   UNL     1       5.411   4.860  18.801  0.00  0.00    +0.000 C 
ATOM      4  N   UNL     1       4.126   5.001  18.328  0.00  0.00    +0.000 N 
ATOM      5  C   UNL     1       3.114   4.057  18.460  0.00  0.00    +0.000 A 
ATOM      6  N   UNL     1       1.909   4.497  18.066  0.00  0.00    +0.000 NA
ATOM      7  C   UNL     1       0.884   3.632  18.201  0.00  0.00    +0.000 A 
ATOM      8  C   UNL     1       1.023   2.356  18.690  0.00  0.00    +0.000 A 
ATOM      9  C   UNL     1       2.302   1.999  19.038  0.00  0.00    +0.000 A 
ATOM     10  N   UNL     1       3.352   2.830  18.928  0.00  0.00    +0.000 NA
ATOM     11  H   UNL     1       3.778   5.869  17.951  0.00  0.00    +0.000 HD
ENDBRANCH   1   3
BRANCH   1  12
ATOM     12  S   UNL     1       6.577   6.215  16.770  0.00  0.00    +0.000 S 
ATOM     13  O   UNL     1       5.278   6.514  16.189  0.00  0.00    +0.000 OA
ATOM     14  O   UNL     1       7.698   7.108  16.558  0.00  0.00    +0.000 OA
BRANCH  12  15
ATOM     15  C   UNL     1       7.029   4.556  16.254  0.00  0.00    +0.000 C 
BRANCH  15  16
ATOM     16  C   UNL     1       6.943   4.452  14.756  0.00  0.00    +0.000 A 
ATOM     17  C   UNL     1       7.812   5.202  13.950  0.00  0.00    +0.000 A 
ATOM     18  C   UNL     1       7.729   5.129  12.560  0.00  0.00    +0.000 A 
ATOM     19  C   UNL     1       6.778   4.307  11.960  0.00  0.00    +0.000 A 
ATOM     20  C   UNL     1       5.908   3.559  12.749  0.00  0.00    +0.000 A 
ATOM     21  C   UNL     1       5.988   3.629  14.141  0.00  0.00    +0.000 A 
ENDBRANCH  15  16
ENDBRANCH  12  15
ENDBRANCH   1  12
TORSDOF 4
ENDMDL
