MODEL 1
REMARK VINA RESULT:      -7.8      0.000      0.000
REMARK  Name = 
REMARK  6 active torsions:
REMARK  status: ('A' for Active; 'I' for Inactive)
REMARK    1  A    between atoms: C_1  and  C_2
REMARK    2  A    between atoms: C_5  and  C_6
REMARK    3  A    between atoms: C_9  and  C_10
REMARK    4  A    between atoms: C_11  and  N_12
REMARK    5  A    between atoms: C_14  and  C_15
REMARK    6  A    between atoms: C_17  and  C_18
REMARK                            x       y       z     vdW  Elec       q    Type
REMARK                         _______ _______ _______ _____ _____    ______ ____
ROOT
ATOM      1  C   UNL     1       2.272   6.433  20.029  0.00  0.00    +0.000 A 
ATOM      2  N   UNL     1       1.811   5.363  20.717  0.00  0.00    +0.000 NA
ATOM      3  N   UNL     1       2.431   4.175  20.605  0.00  0.00    +0.000 NA
ATOM      4  C   UNL     1       3.523   4.093  19.820  0.00  0.00    +0.000 A 
ATOM      5  C   UNL     1       4.095   2.709  19.709  0.00  0.00    +0.000 C 
ATOM      6  C   UNL     1       4.002   5.205  19.114  0.00  0.00    +0.000 A 
ATOM      7  N   UNL     1       3.350   6.388  19.215  0.00  0.00    +0.000 NA
ENDROOT
BRANCH   6   8
ATOM      8  N   UNL     1       5.111   5.162  18.291  0.00  0.00    +0.000 N 
ATOM      9  C   UNL     1       5.101   4.438  17.017  0.00  0.00    +0.000 C 
ATOM     10  C   UNL     1       5.451   5.393  15.855  0.00  0.00    +0.000 C 
ATOM     11  C   UNL     1       5.610   4.626  14.552  0.00  0.00    +0.000 C 
ATOM     12  O   UNL     1       6.697   6.072  16.101  0.00  0.00    +0.000 OA
ATOM     13  C   UNL     1       6.611   6.871  17.280  0.00  0.00    +0.000 C 
ATOM     14  C   UNL     1       7.943   7.581  17.502  0.00  0.00    +0.000 C 
ATOM     15  C   UNL     1       6.283   6.011  18.507  0.00  0.00    +0.000 C 
ENDBRANCH   6   8
BRANCH   1  20
ATOM     16  C   UNL     1      -0.725  11.375  20.783  0.00  0.00    +0.000 C 
ATOM     17  C   UNL     1       0.054  10.106  20.592  0.00  0.00    +0.000 A 
ATOM     18  C   UNL     1       0.062   9.123  21.581  0.00  0.00    +0.000 A 
ATOM     19  C   UNL     1       0.791   7.942  21.392  0.00  0.00    +0.000 A 
ATOM     20  C   UNL     1       1.529   7.698  20.212  0.00  0.00    +0.000 A 
ATOM     21  C   UNL     1       1.510   8.703  19.234  0.00  0.00    +0.000 A 
ATOM     22  C   UNL     1       0.775   9.891  19.416  0.00  0.00    +0.000 A 
ENDBRANCH   1  20
TORSDOF 2
ENDMDL
MODEL 2
REMARK VINA RESULT:      -7.8      0.062      1.026
REMARK  Name = 
REMARK  6 active torsions:
REMARK  status: ('A' for Active; 'I' for Inactive)
REMARK    1  A    between atoms: C_1  and  C_2
REMARK    2  A    between atoms: C_5  and  C_6
REMARK    3  A    between atoms: C_9  and  C_10
REMARK    4  A    between atoms: C_11  and  N_12
REMARK    5  A    between atoms: C_14  and  C_15
REMARK    6  A    between atoms: C_17  and  C_18
REMARK                            x       y       z     vdW  Elec       q    Type
REMARK                         _______ _______ _______ _____ _____    ______ ____
ROOT
ATOM      1  C   UNL     1       2.277   6.426  20.032  0.00  0.00    +0.000 A 
ATOM      2  N   UNL     1       1.812   5.354  20.713  0.00  0.00    +0.000 NA
ATOM      3  N   UNL     1       2.427   4.164  20.593  0.00  0.00    +0.000 NA
ATOM      4  C   UNL     1       3.519   4.082  19.808  0.00  0.00    +0.000 A 
ATOM      5  C   UNL     1       4.085   2.697  19.689  0.00  0.00    +0.000 C 
ATOM      6  C   UNL     1       4.003   5.197  19.109  0.00  0.00    +0.000 A 
ATOM      7  N   UNL     1       3.356   6.381  19.218  0.00  0.00    +0.000 NA
ENDROOT
BRANCH   6   8
ATOM      8  N   UNL     1       5.112   5.154  18.287  0.00  0.00    +0.000 N 
ATOM      9  C   UNL     1       5.103   4.429  17.014  0.00  0.00    +0.000 C 
ATOM     10  C   UNL     1       5.452   5.383  15.851  0.00  0.00    +0.000 C 
ATOM     11  C   UNL     1       5.612   4.616  14.548  0.00  0.00    +0.000 C 
ATOM     12  O   UNL     1       6.698   6.064  16.096  0.00  0.00    +0.000 OA
ATOM     13  C   UNL     1       6.610   6.863  17.274  0.00  0.00    +0.000 C 
ATOM     14  C   UNL     1       7.941   7.575  17.496  0.00  0.00    +0.000 C 
ATOM     15  C   UNL     1       6.283   6.004  18.502  0.00  0.00    +0.000 C 
ENDBRANCH   6   8
BRANCH   1  20
ATOM     16  C   UNL     1      -0.557  11.468  20.749  0.00  0.00    +0.000 C 
ATOM     17  C   UNL     1       0.165  10.166  20.561  0.00  0.00    +0.000 A 
ATOM     18  C   UNL     1       0.869   9.908  19.386  0.00  0.00    +0.000 A 
ATOM     19  C   UNL     1       1.541   8.690  19.221  0.00  0.00    +0.000 A 
ATOM     20  C   UNL     1       1.540   7.693  20.222  0.00  0.00    +0.000 A 
ATOM     21  C   UNL     1       0.822   7.973  21.394  0.00  0.00    +0.000 A 
ATOM     22  C   UNL     1       0.147   9.198  21.567  0.00  0.00    +0.000 A 
ENDBRANCH   1  20
TORSDOF 2
ENDMDL
MODEL 3
REMARK VINA RESULT:      -7.6      2.983      7.313
REMARK  Name = 
REMARK  6 active torsions:
REMARK  status: ('A' for Active; 'I' for Inactive)
REMARK    1  A    between atoms: C_1  and  C_2
REMARK    2  A    between atoms: C_5  and  C_6
REMARK    3  A    between atoms: C_9  and  C_10
REMARK    4  A    between atoms: C_11  and  N_12
REMARK    5  A    between atoms: C_14  and  C_15
REMARK    6  A    between atoms: C_17  and  C_18
REMARK                            x       y       z     vdW  Elec       q    Type
REMARK                         _______ _______ _______ _____ _____    ______ ____
ROOT
ATOM      1  C   UNL     1       2.655   7.188  18.671  0.00  0.00    +0.000 A 
ATOM      2  N   UNL     1       2.446   6.732  19.927  0.00  0.00    +0.000 NA
ATOM      3  N   UNL     1       1.686   7.441  20.780  0.00  0.00    +0.000 NA
ATOM      4  C   UNL     1       1.127   8.586  20.343  0.00  0.00    +0.000 A 
ATOM      5  C   UNL     1       0.358   9.333  21.394  0.00  0.00    +0.000 C 
ATOM      6  C   UNL     1       1.340   9.052  19.038  0.00  0.00    +0.000 A 
ATOM      7  N   UNL     1       2.131   8.342  18.199  0.00  0.00    +0.000 NA
ENDROOT
BRANCH   6   8
ATOM      8  N   UNL     1       0.795  10.225  18.553  0.00  0.00    +0.000 N 
ATOM      9  C   UNL     1      -0.586  10.294  18.068  0.00  0.00    +0.000 C 
ATOM     10  C   UNL     1      -1.379  11.361  18.854  0.00  0.00    +0.000 C 
ATOM     11  C   UNL     1      -2.760  11.563  18.254  0.00  0.00    +0.000 C 
ATOM     12  O   UNL     1      -0.710  12.636  18.814  0.00  0.00    +0.000 OA
ATOM     13  C   UNL     1       0.578  12.548  19.421  0.00  0.00    +0.000 C 
ATOM     14  C   UNL     1       1.251  13.916  19.369  0.00  0.00    +0.000 C 
ATOM     15  C   UNL     1       1.460  11.521  18.699  0.00  0.00    +0.000 C 
ENDBRANCH   6   8
BRANCH   1  20
ATOM     16  C   UNL     1       5.985   3.925  15.173  0.00  0.00    +0.000 C 
ATOM     17  C   UNL     1       5.134   4.764  16.081  0.00  0.00    +0.000 A 
ATOM     18  C   UNL     1       5.284   6.150  16.114  0.00  0.00    +0.000 A 
ATOM     19  C   UNL     1       4.482   6.924  16.962  0.00  0.00    +0.000 A 
ATOM     20  C   UNL     1       3.503   6.346  17.801  0.00  0.00    +0.000 A 
ATOM     21  C   UNL     1       3.373   4.950  17.754  0.00  0.00    +0.000 A 
ATOM     22  C   UNL     1       4.173   4.166  16.899  0.00  0.00    +0.000 A 
ENDBRANCH   1  20
TORSDOF 2
ENDMDL
MODEL 4
REMARK VINA RESULT:      -7.6      3.042      7.312
REMARK  Name = 
REMARK  6 active torsions:
REMARK  status: ('A' for Active; 'I' for Inactive)
REMARK    1  A    between atoms: C_1  and  C_2
REMARK    2  A    between atoms: C_5  and  C_6
REMARK    3  A    between atoms: C_9  and  C_10
REMARK    4  A    between atoms: C_11  and  N_12
REMARK    5  A    between atoms: C_14  and  C_15
REMARK    6  A    between atoms: C_17  and  C_18
REMARK                            x       y       z     vdW  Elec       q    Type
REMARK                         _______ _______ _______ _____ _____    ______ ____
ROOT
ATOM      1  C   UNL     1       2.570   7.281  18.730  0.00  0.00    +0.000 A 
ATOM      2  N   UNL     1       2.386   6.847  19.998  0.00  0.00    +0.000 NA
ATOM      3  N   UNL     1       1.629   7.562  20.848  0.00  0.00    +0.000 NA
ATOM      4  C   UNL     1       1.049   8.691  20.397  0.00  0.00    +0.000 A 
ATOM      5  C   UNL     1       0.286   9.449  21.445  0.00  0.00    +0.000 C 
ATOM      6  C   UNL     1       1.237   9.135  19.081  0.00  0.00    +0.000 A 
ATOM      7  N   UNL     1       2.025   8.419  18.244  0.00  0.00    +0.000 NA
ENDROOT
BRANCH   6   8
ATOM      8  N   UNL     1       0.669  10.291  18.581  0.00  0.00    +0.000 N 
ATOM      9  C   UNL     1      -0.709  10.324  18.085  0.00  0.00    +0.000 C 
ATOM     10  C   UNL     1      -1.532  11.379  18.855  0.00  0.00    +0.000 C 
ATOM     11  C   UNL     1      -2.913  11.544  18.242  0.00  0.00    +0.000 C 
ATOM     12  O   UNL     1      -0.893  12.669  18.810  0.00  0.00    +0.000 OA
ATOM     13  C   UNL     1       0.392  12.615  19.428  0.00  0.00    +0.000 C 
ATOM     14  C   UNL     1       1.034  13.998  19.370  0.00  0.00    +0.000 C 
ATOM     15  C   UNL     1       1.303  11.603  18.722  0.00  0.00    +0.000 C 
ENDBRANCH   6   8
BRANCH   1  20
ATOM     16  C   UNL     1       5.910   3.874  15.381  0.00  0.00    +0.000 C 
ATOM     17  C   UNL     1       5.045   4.753  16.236  0.00  0.00    +0.000 A 
ATOM     18  C   UNL     1       3.992   4.212  16.973  0.00  0.00    +0.000 A 
ATOM     19  C   UNL     1       3.192   5.041  17.769  0.00  0.00    +0.000 A 
ATOM     20  C   UNL     1       3.416   6.433  17.864  0.00  0.00    +0.000 A 
ATOM     21  C   UNL     1       4.478   6.955  17.111  0.00  0.00    +0.000 A 
ATOM     22  C   UNL     1       5.289   6.126  16.311  0.00  0.00    +0.000 A 
ENDBRANCH   1  20
TORSDOF 2
ENDMDL
MODEL 5
REMARK VINA RESULT:      -7.2      0.983      1.055
REMARK  Name = 
REMARK  6 active torsions:
REMARK  status: ('A' for Active; 'I' for Inactive)
REMARK    1  A    between atoms: C_1  and  C_2
REMARK    2  A    between atoms: C_5  and  C_6
REMARK    3  A    between atoms: C_9  and  C_10
REMARK    4  A    between atoms: C_11  and  N_12
REMARK    5  A    between atoms: C_14  and  C_15
REMARK    6  A    between atoms: C_17  and  C_18
REMARK                            x       y       z     vdW  Elec       q    Type
REMARK                         _______ _______ _______ _____ _____    ______ ____
ROOT
ATOM      1  C   UNL     1       1.856   6.924  20.093  0.00  0.00    +0.000 A 
ATOM      2  N   UNL     1       1.182   6.033  20.855  0.00  0.00    +0.000 NA
ATOM      3  N   UNL     1       1.591   4.753  20.911  0.00  0.00    +0.000 NA
ATOM      4  C   UNL     1       2.689   4.399  20.216  0.00  0.00    +0.000 A 
ATOM      5  C   UNL     1       3.016   2.936  20.290  0.00  0.00    +0.000 C 
ATOM      6  C   UNL     1       3.389   5.327  19.432  0.00  0.00    +0.000 A 
ATOM      7  N   UNL     1       2.949   6.606  19.363  0.00  0.00    +0.000 NA
ENDROOT
BRANCH   6   8
ATOM      8  N   UNL     1       4.513   5.004  18.697  0.00  0.00    +0.000 N 
ATOM      9  C   UNL     1       4.458   4.803  17.247  0.00  0.00    +0.000 C 
ATOM     10  C   UNL     1       5.428   5.770  16.533  0.00  0.00    +0.000 C 
ATOM     11  C   UNL     1       5.507   5.460  15.047  0.00  0.00    +0.000 C 
ATOM     12  O   UNL     1       6.762   5.648  17.061  0.00  0.00    +0.000 OA
ATOM     13  C   UNL     1       6.787   5.986  18.447  0.00  0.00    +0.000 C 
ATOM     14  C   UNL     1       8.214   5.856  18.970  0.00  0.00    +0.000 C 
ATOM     15  C   UNL     1       5.864   5.067  19.257  0.00  0.00    +0.000 C 
ENDBRANCH   6   8
BRANCH   1  20
ATOM     16  C   UNL     1      -0.259  12.355  20.135  0.00  0.00    +0.000 C 
ATOM     17  C   UNL     1       0.294  10.960  20.126  0.00  0.00    +0.000 A 
ATOM     18  C   UNL     1       0.320  10.199  21.294  0.00  0.00    +0.000 A 
ATOM     19  C   UNL     1       0.837   8.897  21.273  0.00  0.00    +0.000 A 
ATOM     20  C   UNL     1       1.337   8.308  20.090  0.00  0.00    +0.000 A 
ATOM     21  C   UNL     1       1.304   9.094  18.929  0.00  0.00    +0.000 A 
ATOM     22  C   UNL     1       0.782  10.403  18.942  0.00  0.00    +0.000 A 
ENDBRANCH   1  20
TORSDOF 2
ENDMDL
MODEL 6
REMARK VINA RESULT:      -7.2      2.351      4.302
REMARK  Name = 
REMARK  6 active torsions:
REMARK  status: ('A' for Active; 'I' for Inactive)
REMARK    1  A    between atoms: C_1  and  C_2
REMARK    2  A    between atoms: C_5  and  C_6
REMARK    3  A    between atoms: C_9  and  C_10
REMARK    4  A    between atoms: C_11  and  N_12
REMARK    5  A    between atoms: C_14  and  C_15
REMARK    6  A    between atoms: C_17  and  C_18
REMARK                            x       y       z     vdW  Elec       q    Type
REMARK                         _______ _______ _______ _____ _____    ______ ____
ROOT
ATOM      1  C   UNL     1       1.644   8.386  19.790  0.00  0.00    +0.000 A 
ATOM      2  N   UNL     1       2.095   8.939  18.641  0.00  0.00    +0.000 NA
ATOM      3  N   UNL     1       2.876   8.224  17.813  0.00  0.00    +0.000 NA
ATOM      4  C   UNL     1       3.168   6.951  18.145  0.00  0.00    +0.000 A 
ATOM      5  C   UNL     1       4.103   6.267  17.190  0.00  0.00    +0.000 C 
ATOM      6  C   UNL     1       2.693   6.378  19.334  0.00  0.00    +0.000 A 
ATOM      7  N   UNL     1       1.931   7.121  20.171  0.00  0.00    +0.000 NA
ENDROOT
BRANCH   6   8
ATOM      8  N   UNL     1       2.977   5.082  19.717  0.00  0.00    +0.000 N 
ATOM      9  C   UNL     1       2.478   4.521  20.975  0.00  0.00    +0.000 C 
ATOM     10  C   UNL     1       1.641   3.252  20.702  0.00  0.00    +0.000 C 
ATOM     11  C   UNL     1       1.258   2.564  22.003  0.00  0.00    +0.000 C 
ATOM     12  O   UNL     1       2.386   2.297  19.923  0.00  0.00    +0.000 OA
ATOM     13  C   UNL     1       2.731   2.846  18.652  0.00  0.00    +0.000 C 
ATOM     14  C   UNL     1       3.509   1.806  17.852  0.00  0.00    +0.000 C 
ATOM     15  C   UNL     1       3.586   4.109  18.809  0.00  0.00    +0.000 C 
ENDBRANCH   6   8
BRANCH   1  20
ATOM     16  C   UNL     1      -1.755  11.694  23.176  0.00  0.00    +0.000 C 
ATOM     17  C   UNL     1      -0.873  10.848  22.306  0.00  0.00    +0.000 A 
ATOM     18  C   UNL     1      -0.217   9.735  22.830  0.00  0.00    +0.000 A 
ATOM     19  C   UNL     1       0.602   8.950  22.008  0.00  0.00    +0.000 A 
ATOM     20  C   UNL     1       0.791   9.243  20.639  0.00  0.00    +0.000 A 
ATOM     21  C   UNL     1       0.125  10.371  20.136  0.00  0.00    +0.000 A 
ATOM     22  C   UNL     1      -0.704  11.161  20.956  0.00  0.00    +0.000 A 
ENDBRANCH   1  20
TORSDOF 2
ENDMDL
MODEL 7
REMARK VINA RESULT:      -7.1      2.435      4.294
REMARK  Name = 
REMARK  6 active torsions:
REMARK  status: ('A' for Active; 'I' for Inactive)
REMARK    1  A    between atoms: C_1  and  C_2
REMARK    2  A    between atoms: C_5  and  C_6
REMARK    3  A    between atoms: C_9  and  C_10
REMARK    4  A    between atoms: C_11  and  N_12
REMARK    5  A    between atoms: C_14  and  C_15
REMARK    6  A    between atoms: C_17  and  C_18
REMARK                            x       y       z     vdW  Elec       q    Type
REMARK                         _______ _______ _______ _____ _____    ______ ____
ROOT
ATOM      1  C   UNL     1       0.971   9.359  19.983  0.00  0.00    +0.000 A 
ATOM      2  N   UNL     1       1.253   9.904  18.777  0.00  0.00    +0.000 NA
ATOM      3  N   UNL     1       2.051   9.249  17.916  0.00  0.00    +0.000 NA
ATOM      4  C   UNL     1       2.531   8.043  18.275  0.00  0.00    +0.000 A 
ATOM      5  C   UNL     1       3.466   7.432  17.272  0.00  0.00    +0.000 C 
ATOM      6  C   UNL     1       2.232   7.478  19.523  0.00  0.00    +0.000 A 
ATOM      7  N   UNL     1       1.449   8.162  20.391  0.00  0.00    +0.000 NA
ENDROOT
BRANCH   6   8
ATOM      8  N   UNL     1       2.710   6.249  19.934  0.00  0.00    +0.000 N 
ATOM      9  C   UNL     1       1.881   5.312  20.695  0.00  0.00    +0.000 C 
ATOM     10  C   UNL     1       1.777   3.962  19.952  0.00  0.00    +0.000 C 
ATOM     11  C   UNL     1       1.063   2.926  20.805  0.00  0.00    +0.000 C 
ATOM     12  O   UNL     1       3.083   3.434  19.651  0.00  0.00    +0.000 OA
ATOM     13  C   UNL     1       3.800   4.323  18.796  0.00  0.00    +0.000 C 
ATOM     14  C   UNL     1       5.171   3.728  18.492  0.00  0.00    +0.000 C 
ATOM     15  C   UNL     1       3.977   5.698  19.452  0.00  0.00    +0.000 C 
ENDBRANCH   6   8
BRANCH   1  20
ATOM     16  C   UNL     1      -2.554  12.388  23.501  0.00  0.00    +0.000 C 
ATOM     17  C   UNL     1      -1.639  11.614  22.597  0.00  0.00    +0.000 A 
ATOM     18  C   UNL     1      -0.937  10.509  23.076  0.00  0.00    +0.000 A 
ATOM     19  C   UNL     1      -0.088   9.792  22.223  0.00  0.00    +0.000 A 
ATOM     20  C   UNL     1       0.086  10.147  20.867  0.00  0.00    +0.000 A 
ATOM     21  C   UNL     1      -0.628  11.265  20.409  0.00  0.00    +0.000 A 
ATOM     22  C   UNL     1      -1.487  11.987  21.260  0.00  0.00    +0.000 A 
ENDBRANCH   1  20
TORSDOF 2
ENDMDL
MODEL 8
REMARK VINA RESULT:      -7.1      2.435      4.395
REMARK  Name = 
REMARK  6 active torsions:
REMARK  status: ('A' for Active; 'I' for Inactive)
REMARK    1  A    between atoms: C_1  and  C_2
REMARK    2  A    between atoms: C_5  and  C_6
REMARK    3  A    between atoms: C_9  and  C_10
REMARK    4  A    between atoms: C_11  and  N_12
REMARK    5  A    between atoms: C_14  and  C_15
REMARK    6  A    between atoms: C_17  and  C_18
REMARK                            x       y       z     vdW  Elec       q    Type
REMARK                         _______ _______ _______ _____ _____    ______ ____
ROOT
ATOM      1  C   UNL     1       0.939   9.320  20.031  0.00  0.00    +0.000 A 
ATOM      2  N   UNL     1       1.211   9.873  18.827  0.00  0.00    +0.000 NA
ATOM      3  N   UNL     1       2.013   9.230  17.960  0.00  0.00    +0.000 NA
ATOM      4  C   UNL     1       2.507   8.028  18.312  0.00  0.00    +0.000 A 
ATOM      5  C   UNL     1       3.445   7.431  17.303  0.00  0.00    +0.000 C 
ATOM      6  C   UNL     1       2.217   7.454  19.558  0.00  0.00    +0.000 A 
ATOM      7  N   UNL     1       1.431   8.126  20.432  0.00  0.00    +0.000 NA
ENDROOT
BRANCH   6   8
ATOM      8  N   UNL     1       2.710   6.229  19.962  0.00  0.00    +0.000 N 
ATOM      9  C   UNL     1       1.898   5.285  20.734  0.00  0.00    +0.000 C 
ATOM     10  C   UNL     1       1.793   3.935  19.991  0.00  0.00    +0.000 C 
ATOM     11  C   UNL     1       1.098   2.894  20.853  0.00  0.00    +0.000 C 
ATOM     12  O   UNL     1       3.098   3.416  19.674  0.00  0.00    +0.000 OA
ATOM     13  C   UNL     1       3.798   4.310  18.809  0.00  0.00    +0.000 C 
ATOM     14  C   UNL     1       5.169   3.725  18.487  0.00  0.00    +0.000 C 
ATOM     15  C   UNL     1       3.974   5.686  19.463  0.00  0.00    +0.000 C 
ENDBRANCH   6   8
BRANCH   1  20
ATOM     16  C   UNL     1      -2.537  12.452  23.506  0.00  0.00    +0.000 C 
ATOM     17  C   UNL     1      -1.649  11.640  22.610  0.00  0.00    +0.000 A 
ATOM     18  C   UNL     1      -1.481  11.991  21.271  0.00  0.00    +0.000 A 
ATOM     19  C   UNL     1      -0.648  11.228  20.443  0.00  0.00    +0.000 A 
ATOM     20  C   UNL     1       0.049  10.095  20.921  0.00  0.00    +0.000 A 
ATOM     21  C   UNL     1      -0.139   9.759  22.270  0.00  0.00    +0.000 A 
ATOM     22  C   UNL     1      -0.972  10.526  23.109  0.00  0.00    +0.000 A 
ENDBRANCH   1  20
TORSDOF 2
ENDMDL
MODEL 9
REMARK VINA RESULT:      -6.8      1.063      1.989
REMARK  Name = 
REMARK  6 active torsions:
REMARK  status: ('A' for Active; 'I' for Inactive)
REMARK    1  A    between atoms: C_1  and  C_2
REMARK    2  A    between atoms: C_5  and  C_6
REMARK    3  A    between atoms: C_9  and  C_10
REMARK    4  A    between atoms: C_11  and  N_12
REMARK    5  A    between atoms: C_14  and  C_15
REMARK    6  A    between atoms: C_17  and  C_18
REMARK                            x       y       z     vdW  Elec       q    Type
REMARK                         _______ _______ _______ _____ _____    ______ ____
ROOT
ATOM      1  C   UNL     1       1.996   7.017  20.192  0.00  0.00    +0.000 A 
ATOM      2  N   UNL     1       1.516   5.893  20.772  0.00  0.00    +0.000 NA
ATOM      3  N   UNL     1       2.067   4.701  20.481  0.00  0.00    +0.000 NA
ATOM      4  C   UNL     1       3.111   4.666  19.630  0.00  0.00    +0.000 A 
ATOM      5  C   UNL     1       3.603   3.282  19.321  0.00  0.00    +0.000 C 
ATOM      6  C   UNL     1       3.610   5.834  19.037  0.00  0.00    +0.000 A 
ATOM      7  N   UNL     1       3.027   7.023  19.317  0.00  0.00    +0.000 NA
ENDROOT
BRANCH   6   8
ATOM      8  N   UNL     1       4.671   5.841  18.153  0.00  0.00    +0.000 N 
ATOM      9  C   UNL     1       6.062   5.819  18.613  0.00  0.00    +0.000 C 
ATOM     10  C   UNL     1       6.804   4.601  18.020  0.00  0.00    +0.000 C 
ATOM     11  C   UNL     1       8.287   4.655  18.350  0.00  0.00    +0.000 C 
ATOM     12  O   UNL     1       6.692   4.576  16.584  0.00  0.00    +0.000 OA
ATOM     13  C   UNL     1       5.326   4.460  16.189  0.00  0.00    +0.000 C 
ATOM     14  C   UNL     1       5.247   4.426  14.665  0.00  0.00    +0.000 C 
ATOM     15  C   UNL     1       4.497   5.639  16.714  0.00  0.00    +0.000 C 
ENDBRANCH   6   8
BRANCH   1  20
ATOM     16  C   UNL     1      -0.682  11.960  21.729  0.00  0.00    +0.000 C 
ATOM     17  C   UNL     1       0.016  10.692  21.334  0.00  0.00    +0.000 A 
ATOM     18  C   UNL     1       0.303   9.714  22.286  0.00  0.00    +0.000 A 
ATOM     19  C   UNL     1       0.952   8.533  21.907  0.00  0.00    +0.000 A 
ATOM     20  C   UNL     1       1.332   8.282  20.569  0.00  0.00    +0.000 A 
ATOM     21  C   UNL     1       1.037   9.282  19.630  0.00  0.00    +0.000 A 
ATOM     22  C   UNL     1       0.380  10.471  20.004  0.00  0.00    +0.000 A 
ENDBRANCH   1  20
TORSDOF 2
ENDMDL
