MODEL 1
REMARK VINA RESULT:      -8.6      0.000      0.000
REMARK  Name = 
REMARK  3 active torsions:
REMARK  status: ('A' for Active; 'I' for Inactive)
REMARK    1  A    between atoms: C_1  and  N_2
REMARK    2  A    between atoms: C_8  and  C_9
REMARK    3  A    between atoms: N_14  and  C_15
REMARK                            x       y       z     vdW  Elec       q    Type
REMARK                         _______ _______ _______ _____ _____    ______ ____
ROOT
ATOM      1  C   UNL     1       2.786   5.443  18.097  0.00  0.00    +0.000 A 
ATOM      2  C   UNL     1       1.970   4.468  17.718  0.00  0.00    +0.000 A 
ATOM      3  O   UNL     1       2.598   3.402  17.095  0.00  0.00    +0.000 OA
ATOM      4  C   UNL     1       3.935   3.812  17.107  0.00  0.00    +0.000 A 
ATOM      5  O   UNL     1       4.811   3.097  16.644  0.00  0.00    +0.000 OA
ATOM      6  N   UNL     1       4.053   5.069  17.729  0.00  0.00    +0.000 N 
ENDROOT
BRANCH   1  14
ATOM      7  C   UNL     1       0.801  11.495  20.080  0.00  0.00    +0.000 C 
ATOM      8  N   UNL     1       1.056  10.146  20.494  0.00  0.00    +0.000 N 
ATOM      9  C   UNL     1       0.946   9.651  21.778  0.00  0.00    +0.000 A 
ATOM     10  O   UNL     1       0.609  10.283  22.771  0.00  0.00    +0.000 OA
ATOM     11  O   UNL     1       1.284   8.290  21.821  0.00  0.00    +0.000 OA
ATOM     12  C   UNL     1       1.617   8.022  20.504  0.00  0.00    +0.000 A 
ATOM     13  C   UNL     1       2.038   6.802  20.019  0.00  0.00    +0.000 A 
ATOM     14  C   UNL     1       2.352   6.717  18.653  0.00  0.00    +0.000 A 
ATOM     15  C   UNL     1       2.240   7.863  17.826  0.00  0.00    +0.000 A 
ATOM     16  C   UNL     1       1.783   9.083  18.339  0.00  0.00    +0.000 A 
ATOM     17  C   UNL     1       1.490   9.126  19.684  0.00  0.00    +0.000 A 
ENDBRANCH   1  14
BRANCH   6  18
ATOM     18  C   UNL     1       5.303   5.722  17.959  0.00  0.00    +0.000 A 
ATOM     19  C   UNL     1       5.740   6.776  17.143  0.00  0.00    +0.000 A 
ATOM     20  C   UNL     1       6.992   7.376  17.335  0.00  0.00    +0.000 A 
ATOM     21  C   UNL     1       7.832   6.940  18.352  0.00  0.00    +0.000 A 
ATOM     22  C   UNL     1       7.415   5.911  19.186  0.00  0.00    +0.000 A 
ATOM     23  C   UNL     1       6.165   5.316  18.989  0.00  0.00    +0.000 A 
ENDBRANCH   6  18
TORSDOF 2
ENDMDL
MODEL 2
REMARK VINA RESULT:      -8.3      0.179      1.014
REMARK  Name = 
REMARK  3 active torsions:
REMARK  status: ('A' for Active; 'I' for Inactive)
REMARK    1  A    between atoms: C_1  and  N_2
REMARK    2  A    between atoms: C_8  and  C_9
REMARK    3  A    between atoms: N_14  and  C_15
REMARK                            x       y       z     vdW  Elec       q    Type
REMARK                         _______ _______ _______ _____ _____    ______ ____
ROOT
ATOM      1  C   UNL     1       2.860   5.280  18.084  0.00  0.00    +0.000 A 
ATOM      2  C   UNL     1       2.053   4.279  17.759  0.00  0.00    +0.000 A 
ATOM      3  O   UNL     1       2.686   3.198  17.167  0.00  0.00    +0.000 OA
ATOM      4  C   UNL     1       4.016   3.628  17.138  0.00  0.00    +0.000 A 
ATOM      5  O   UNL     1       4.895   2.908  16.686  0.00  0.00    +0.000 OA
ATOM      6  N   UNL     1       4.126   4.911  17.707  0.00  0.00    +0.000 N 
ENDROOT
BRANCH   1  14
ATOM      7  C   UNL     1       0.833  11.381  19.864  0.00  0.00    +0.000 C 
ATOM      8  N   UNL     1       1.094  10.048  20.322  0.00  0.00    +0.000 N 
ATOM      9  C   UNL     1       0.983   9.593  21.621  0.00  0.00    +0.000 A 
ATOM     10  O   UNL     1       0.638  10.256  22.591  0.00  0.00    +0.000 OA
ATOM     11  O   UNL     1       1.328   8.237  21.709  0.00  0.00    +0.000 OA
ATOM     12  C   UNL     1       1.668   7.929  20.402  0.00  0.00    +0.000 A 
ATOM     13  C   UNL     1       2.098   6.696  19.958  0.00  0.00    +0.000 A 
ATOM     14  C   UNL     1       2.417   6.569  18.597  0.00  0.00    +0.000 A 
ATOM     15  C   UNL     1       2.302   7.687  17.733  0.00  0.00    +0.000 A 
ATOM     16  C   UNL     1       1.835   8.920  18.205  0.00  0.00    +0.000 A 
ATOM     17  C   UNL     1       1.537   9.004  19.547  0.00  0.00    +0.000 A 
ENDBRANCH   1  14
BRANCH   6  18
ATOM     18  C   UNL     1       5.370   5.591  17.887  0.00  0.00    +0.000 A 
ATOM     19  C   UNL     1       6.284   5.196  18.875  0.00  0.00    +0.000 A 
ATOM     20  C   UNL     1       7.477   5.900  19.087  0.00  0.00    +0.000 A 
ATOM     21  C   UNL     1       7.785   7.011  18.312  0.00  0.00    +0.000 A 
ATOM     22  C   UNL     1       6.906   7.412  17.314  0.00  0.00    +0.000 A 
ATOM     23  C   UNL     1       5.717   6.705  17.108  0.00  0.00    +0.000 A 
ENDBRANCH   6  18
TORSDOF 2
ENDMDL
MODEL 3
REMARK VINA RESULT:      -8.3      1.721      3.462
REMARK  Name = 
REMARK  3 active torsions:
REMARK  status: ('A' for Active; 'I' for Inactive)
REMARK    1  A    between atoms: C_1  and  N_2
REMARK    2  A    between atoms: C_8  and  C_9
REMARK    3  A    between atoms: N_14  and  C_15
REMARK                            x       y       z     vdW  Elec       q    Type
REMARK                         _______ _______ _______ _____ _____    ______ ____
ROOT
ATOM      1  C   UNL     1       3.278   6.720  18.000  0.00  0.00    +0.000 A 
ATOM      2  C   UNL     1       4.220   6.993  17.107  0.00  0.00    +0.000 A 
ATOM      3  O   UNL     1       5.020   5.914  16.767  0.00  0.00    +0.000 OA
ATOM      4  C   UNL     1       4.483   4.899  17.565  0.00  0.00    +0.000 A 
ATOM      5  O   UNL     1       4.937   3.765  17.520  0.00  0.00    +0.000 OA
ATOM      6  N   UNL     1       3.406   5.393  18.323  0.00  0.00    +0.000 N 
ENDROOT
BRANCH   1  14
ATOM      7  C   UNL     1      -0.830  11.479  20.232  0.00  0.00    +0.000 C 
ATOM      8  N   UNL     1      -0.070  10.317  20.591  0.00  0.00    +0.000 N 
ATOM      9  C   UNL     1       0.043   9.774  21.854  0.00  0.00    +0.000 A 
ATOM     10  O   UNL     1      -0.490  10.194  22.873  0.00  0.00    +0.000 OA
ATOM     11  O   UNL     1       0.877   8.645  21.842  0.00  0.00    +0.000 OA
ATOM     12  C   UNL     1       1.261   8.571  20.513  0.00  0.00    +0.000 A 
ATOM     13  C   UNL     1       2.106   7.623  19.978  0.00  0.00    +0.000 A 
ATOM     14  C   UNL     1       2.401   7.711  18.608  0.00  0.00    +0.000 A 
ATOM     15  C   UNL     1       1.843   8.755  17.828  0.00  0.00    +0.000 A 
ATOM     16  C   UNL     1       0.965   9.688  18.392  0.00  0.00    +0.000 A 
ATOM     17  C   UNL     1       0.704   9.569  19.739  0.00  0.00    +0.000 A 
ENDBRANCH   1  14
BRANCH   6  18
ATOM     18  C   UNL     1       2.605   4.579  19.182  0.00  0.00    +0.000 A 
ATOM     19  C   UNL     1       2.920   4.415  20.539  0.00  0.00    +0.000 A 
ATOM     20  C   UNL     1       2.167   3.571  21.366  0.00  0.00    +0.000 A 
ATOM     21  C   UNL     1       1.078   2.876  20.855  0.00  0.00    +0.000 A 
ATOM     22  C   UNL     1       0.733   3.035  19.519  0.00  0.00    +0.000 A 
ATOM     23  C   UNL     1       1.489   3.879  18.699  0.00  0.00    +0.000 A 
ENDBRANCH   6  18
TORSDOF 2
ENDMDL
MODEL 4
REMARK VINA RESULT:      -8.3      1.692      3.337
REMARK  Name = 
REMARK  3 active torsions:
REMARK  status: ('A' for Active; 'I' for Inactive)
REMARK    1  A    between atoms: C_1  and  N_2
REMARK    2  A    between atoms: C_8  and  C_9
REMARK    3  A    between atoms: N_14  and  C_15
REMARK                            x       y       z     vdW  Elec       q    Type
REMARK                         _______ _______ _______ _____ _____    ______ ____
ROOT
ATOM      1  C   UNL     1       3.305   6.692  17.882  0.00  0.00    +0.000 A 
ATOM      2  C   UNL     1       4.225   7.006  16.980  0.00  0.00    +0.000 A 
ATOM      3  O   UNL     1       5.019   5.946  16.576  0.00  0.00    +0.000 OA
ATOM      4  C   UNL     1       4.504   4.895  17.342  0.00  0.00    +0.000 A 
ATOM      5  O   UNL     1       4.960   3.766  17.238  0.00  0.00    +0.000 OA
ATOM      6  N   UNL     1       3.444   5.353  18.145  0.00  0.00    +0.000 N 
ENDROOT
BRANCH   1  14
ATOM      7  C   UNL     1      -0.776  11.325  20.408  0.00  0.00    +0.000 C 
ATOM      8  N   UNL     1       0.018  10.169  20.705  0.00  0.00    +0.000 N 
ATOM      9  C   UNL     1       0.198   9.598  21.949  0.00  0.00    +0.000 A 
ATOM     10  O   UNL     1      -0.296   9.986  23.001  0.00  0.00    +0.000 OA
ATOM     11  O   UNL     1       1.048   8.486  21.872  0.00  0.00    +0.000 OA
ATOM     12  C   UNL     1       1.373   8.449  20.526  0.00  0.00    +0.000 A 
ATOM     13  C   UNL     1       2.209   7.528  19.932  0.00  0.00    +0.000 A 
ATOM     14  C   UNL     1       2.440   7.654  18.552  0.00  0.00    +0.000 A 
ATOM     15  C   UNL     1       1.830   8.705  17.823  0.00  0.00    +0.000 A 
ATOM     16  C   UNL     1       0.963   9.609  18.448  0.00  0.00    +0.000 A 
ATOM     17  C   UNL     1       0.766   9.454  19.802  0.00  0.00    +0.000 A 
ENDBRANCH   1  14
BRANCH   6  18
ATOM     18  C   UNL     1       2.666   4.500  18.988  0.00  0.00    +0.000 A 
ATOM     19  C   UNL     1       1.504   3.869  18.518  0.00  0.00    +0.000 A 
ATOM     20  C   UNL     1       0.712   3.080  19.362  0.00  0.00    +0.000 A 
ATOM     21  C   UNL     1       1.067   2.899  20.693  0.00  0.00    +0.000 A 
ATOM     22  C   UNL     1       2.222   3.498  21.179  0.00  0.00    +0.000 A 
ATOM     23  C   UNL     1       3.008   4.285  20.331  0.00  0.00    +0.000 A 
ENDBRANCH   6  18
TORSDOF 2
ENDMDL
MODEL 5
REMARK VINA RESULT:      -8.1      1.355      1.803
REMARK  Name = 
REMARK  3 active torsions:
REMARK  status: ('A' for Active; 'I' for Inactive)
REMARK    1  A    between atoms: C_1  and  N_2
REMARK    2  A    between atoms: C_8  and  C_9
REMARK    3  A    between atoms: N_14  and  C_15
REMARK                            x       y       z     vdW  Elec       q    Type
REMARK                         _______ _______ _______ _____ _____    ______ ____
ROOT
ATOM      1  C   UNL     1       2.902   5.286  18.091  0.00  0.00    +0.000 A 
ATOM      2  C   UNL     1       2.129   4.286  17.689  0.00  0.00    +0.000 A 
ATOM      3  O   UNL     1       2.800   3.270  17.029  0.00  0.00    +0.000 OA
ATOM      4  C   UNL     1       4.117   3.742  17.042  0.00  0.00    +0.000 A 
ATOM      5  O   UNL     1       5.020   3.084  16.550  0.00  0.00    +0.000 OA
ATOM      6  N   UNL     1       4.181   4.984  17.701  0.00  0.00    +0.000 N 
ENDROOT
BRANCH   1  14
ATOM      7  C   UNL     1       0.679  10.659  21.361  0.00  0.00    +0.000 C 
ATOM      8  N   UNL     1       1.123  10.152  20.095  0.00  0.00    +0.000 N 
ATOM      9  C   UNL     1       1.182  10.855  18.909  0.00  0.00    +0.000 A 
ATOM     10  O   UNL     1       0.869  12.028  18.747  0.00  0.00    +0.000 OA
ATOM     11  O   UNL     1       1.654  10.042  17.867  0.00  0.00    +0.000 OA
ATOM     12  C   UNL     1       1.845   8.825  18.500  0.00  0.00    +0.000 A 
ATOM     13  C   UNL     1       2.297   7.673  17.894  0.00  0.00    +0.000 A 
ATOM     14  C   UNL     1       2.414   6.521  18.689  0.00  0.00    +0.000 A 
ATOM     15  C   UNL     1       2.065   6.568  20.062  0.00  0.00    +0.000 A 
ATOM     16  C   UNL     1       1.636   7.760  20.658  0.00  0.00    +0.000 A 
ATOM     17  C   UNL     1       1.530   8.865  19.844  0.00  0.00    +0.000 A 
ENDBRANCH   1  14
BRANCH   6  18
ATOM     18  C   UNL     1       5.402   5.688  17.941  0.00  0.00    +0.000 A 
ATOM     19  C   UNL     1       5.792   6.770  17.139  0.00  0.00    +0.000 A 
ATOM     20  C   UNL     1       7.016   7.422  17.340  0.00  0.00    +0.000 A 
ATOM     21  C   UNL     1       7.875   7.010  18.351  0.00  0.00    +0.000 A 
ATOM     22  C   UNL     1       7.504   5.952  19.171  0.00  0.00    +0.000 A 
ATOM     23  C   UNL     1       6.281   5.305  18.965  0.00  0.00    +0.000 A 
ENDBRANCH   6  18
TORSDOF 2
ENDMDL
MODEL 6
REMARK VINA RESULT:      -8.1      4.176      4.827
REMARK  Name = 
REMARK  3 active torsions:
REMARK  status: ('A' for Active; 'I' for Inactive)
REMARK    1  A    between atoms: C_1  and  N_2
REMARK    2  A    between atoms: C_8  and  C_9
REMARK    3  A    between atoms: N_14  and  C_15
REMARK                            x       y       z     vdW  Elec       q    Type
REMARK                         _______ _______ _______ _____ _____    ______ ____
ROOT
ATOM      1  C   UNL     1       5.517   4.159  15.911  0.00  0.00    +0.000 A 
ATOM      2  C   UNL     1       5.450   3.556  14.731  0.00  0.00    +0.000 A 
ATOM      3  O   UNL     1       6.412   3.965  13.822  0.00  0.00    +0.000 OA
ATOM      4  C   UNL     1       7.114   4.923  14.560  0.00  0.00    +0.000 A 
ATOM      5  O   UNL     1       8.073   5.505  14.075  0.00  0.00    +0.000 OA
ATOM      6  N   UNL     1       6.565   5.041  15.851  0.00  0.00    +0.000 N 
ENDROOT
BRANCH   1  14
ATOM      7  C   UNL     1       0.646   3.637  20.438  0.00  0.00    +0.000 C 
ATOM      8  N   UNL     1       2.016   3.337  20.145  0.00  0.00    +0.000 N 
ATOM      9  C   UNL     1       2.915   2.715  20.989  0.00  0.00    +0.000 A 
ATOM     10  O   UNL     1       2.685   2.316  22.124  0.00  0.00    +0.000 OA
ATOM     11  O   UNL     1       4.173   2.593  20.380  0.00  0.00    +0.000 OA
ATOM     12  C   UNL     1       3.969   3.194  19.149  0.00  0.00    +0.000 A 
ATOM     13  C   UNL     1       4.923   3.342  18.165  0.00  0.00    +0.000 A 
ATOM     14  C   UNL     1       4.543   3.995  16.982  0.00  0.00    +0.000 A 
ATOM     15  C   UNL     1       3.221   4.482  16.833  0.00  0.00    +0.000 A 
ATOM     16  C   UNL     1       2.263   4.293  17.837  0.00  0.00    +0.000 A 
ATOM     17  C   UNL     1       2.677   3.652  18.984  0.00  0.00    +0.000 A 
ENDBRANCH   1  14
BRANCH   6  18
ATOM     18  C   UNL     1       7.109   5.888  16.865  0.00  0.00    +0.000 A 
ATOM     19  C   UNL     1       7.192   7.278  16.692  0.00  0.00    +0.000 A 
ATOM     20  C   UNL     1       7.778   8.100  17.665  0.00  0.00    +0.000 A 
ATOM     21  C   UNL     1       8.288   7.551  18.834  0.00  0.00    +0.000 A 
ATOM     22  C   UNL     1       8.202   6.180  19.038  0.00  0.00    +0.000 A 
ATOM     23  C   UNL     1       7.617   5.365  18.064  0.00  0.00    +0.000 A 
ENDBRANCH   6  18
TORSDOF 2
ENDMDL
MODEL 7
REMARK VINA RESULT:      -8.1      4.107      4.890
REMARK  Name = 
REMARK  3 active torsions:
REMARK  status: ('A' for Active; 'I' for Inactive)
REMARK    1  A    between atoms: C_1  and  N_2
REMARK    2  A    between atoms: C_8  and  C_9
REMARK    3  A    between atoms: N_14  and  C_15
REMARK                            x       y       z     vdW  Elec       q    Type
REMARK                         _______ _______ _______ _____ _____    ______ ____
ROOT
ATOM      1  C   UNL     1       5.484   4.197  15.898  0.00  0.00    +0.000 A 
ATOM      2  C   UNL     1       5.363   3.628  14.706  0.00  0.00    +0.000 A 
ATOM      3  O   UNL     1       6.321   4.015  13.784  0.00  0.00    +0.000 OA
ATOM      4  C   UNL     1       7.083   4.922  14.527  0.00  0.00    +0.000 A 
ATOM      5  O   UNL     1       8.055   5.472  14.033  0.00  0.00    +0.000 OA
ATOM      6  N   UNL     1       6.570   5.033  15.833  0.00  0.00    +0.000 N 
ENDROOT
BRANCH   1  14
ATOM      7  C   UNL     1       0.702   3.790  20.530  0.00  0.00    +0.000 C 
ATOM      8  N   UNL     1       2.047   3.427  20.193  0.00  0.00    +0.000 N 
ATOM      9  C   UNL     1       2.931   2.732  20.994  0.00  0.00    +0.000 A 
ATOM     10  O   UNL     1       2.707   2.310  22.122  0.00  0.00    +0.000 OA
ATOM     11  O   UNL     1       4.165   2.563  20.350  0.00  0.00    +0.000 OA
ATOM     12  C   UNL     1       3.964   3.213  19.143  0.00  0.00    +0.000 A 
ATOM     13  C   UNL     1       4.902   3.341  18.140  0.00  0.00    +0.000 A 
ATOM     14  C   UNL     1       4.529   4.051  16.987  0.00  0.00    +0.000 A 
ATOM     15  C   UNL     1       3.231   4.613  16.888  0.00  0.00    +0.000 A 
ATOM     16  C   UNL     1       2.290   4.442  17.910  0.00  0.00    +0.000 A 
ATOM     17  C   UNL     1       2.696   3.743  19.025  0.00  0.00    +0.000 A 
ENDBRANCH   1  14
BRANCH   6  18
ATOM     18  C   UNL     1       7.175   5.829  16.854  0.00  0.00    +0.000 A 
ATOM     19  C   UNL     1       7.626   5.261  18.055  0.00  0.00    +0.000 A 
ATOM     20  C   UNL     1       8.166   6.053  19.078  0.00  0.00    +0.000 A 
ATOM     21  C   UNL     1       8.273   7.429  18.920  0.00  0.00    +0.000 A 
ATOM     22  C   UNL     1       7.851   8.014  17.733  0.00  0.00    +0.000 A 
ATOM     23  C   UNL     1       7.312   7.219  16.716  0.00  0.00    +0.000 A 
ENDBRANCH   6  18
TORSDOF 2
ENDMDL
MODEL 8
REMARK VINA RESULT:      -8.1      1.607      1.883
REMARK  Name = 
REMARK  3 active torsions:
REMARK  status: ('A' for Active; 'I' for Inactive)
REMARK    1  A    between atoms: C_1  and  N_2
REMARK    2  A    between atoms: C_8  and  C_9
REMARK    3  A    between atoms: N_14  and  C_15
REMARK                            x       y       z     vdW  Elec       q    Type
REMARK                         _______ _______ _______ _____ _____    ______ ____
ROOT
ATOM      1  C   UNL     1       2.460   4.269  19.345  0.00  0.00    +0.000 A 
ATOM      2  C   UNL     1       1.635   3.367  19.861  0.00  0.00    +0.000 A 
ATOM      3  O   UNL     1       2.004   2.052  19.627  0.00  0.00    +0.000 OA
ATOM      4  C   UNL     1       3.175   2.211  18.881  0.00  0.00    +0.000 A 
ATOM      5  O   UNL     1       3.809   1.239  18.498  0.00  0.00    +0.000 OA
ATOM      6  N   UNL     1       3.460   3.579  18.709  0.00  0.00    +0.000 N 
ENDROOT
BRANCH   1  14
ATOM      7  C   UNL     1       1.449  10.836  18.752  0.00  0.00    +0.000 C 
ATOM      8  N   UNL     1       1.422   9.718  19.649  0.00  0.00    +0.000 N 
ATOM      9  C   UNL     1       1.123   9.758  20.996  0.00  0.00    +0.000 A 
ATOM     10  O   UNL     1       0.828  10.755  21.642  0.00  0.00    +0.000 OA
ATOM     11  O   UNL     1       1.205   8.479  21.566  0.00  0.00    +0.000 OA
ATOM     12  C   UNL     1       1.589   7.695  20.490  0.00  0.00    +0.000 A 
ATOM     13  C   UNL     1       1.819   6.337  20.534  0.00  0.00    +0.000 A 
ATOM     14  C   UNL     1       2.220   5.706  19.346  0.00  0.00    +0.000 A 
ATOM     15  C   UNL     1       2.384   6.463  18.159  0.00  0.00    +0.000 A 
ATOM     16  C   UNL     1       2.115   7.837  18.137  0.00  0.00    +0.000 A 
ATOM     17  C   UNL     1       1.728   8.419  19.323  0.00  0.00    +0.000 A 
ENDBRANCH   1  14
BRANCH   6  18
ATOM     18  C   UNL     1       4.631   4.065  18.051  0.00  0.00    +0.000 A 
ATOM     19  C   UNL     1       4.756   4.026  16.654  0.00  0.00    +0.000 A 
ATOM     20  C   UNL     1       5.928   4.450  16.014  0.00  0.00    +0.000 A 
ATOM     21  C   UNL     1       7.001   4.929  16.757  0.00  0.00    +0.000 A 
ATOM     22  C   UNL     1       6.896   4.995  18.140  0.00  0.00    +0.000 A 
ATOM     23  C   UNL     1       5.724   4.570  18.773  0.00  0.00    +0.000 A 
ENDBRANCH   6  18
TORSDOF 2
ENDMDL
MODEL 9
REMARK VINA RESULT:      -8.0      1.588      2.024
REMARK  Name = 
REMARK  3 active torsions:
REMARK  status: ('A' for Active; 'I' for Inactive)
REMARK    1  A    between atoms: C_1  and  N_2
REMARK    2  A    between atoms: C_8  and  C_9
REMARK    3  A    between atoms: N_14  and  C_15
REMARK                            x       y       z     vdW  Elec       q    Type
REMARK                         _______ _______ _______ _____ _____    ______ ____
ROOT
ATOM      1  C   UNL     1       2.434   4.284  19.371  0.00  0.00    +0.000 A 
ATOM      2  C   UNL     1       1.612   3.382  19.892  0.00  0.00    +0.000 A 
ATOM      3  O   UNL     1       1.977   2.067  19.653  0.00  0.00    +0.000 OA
ATOM      4  C   UNL     1       3.143   2.227  18.897  0.00  0.00    +0.000 A 
ATOM      5  O   UNL     1       3.773   1.255  18.508  0.00  0.00    +0.000 OA
ATOM      6  N   UNL     1       3.428   3.594  18.727  0.00  0.00    +0.000 N 
ENDROOT
BRANCH   1  14
ATOM      7  C   UNL     1       1.442  10.856  18.801  0.00  0.00    +0.000 C 
ATOM      8  N   UNL     1       1.398   9.733  19.690  0.00  0.00    +0.000 N 
ATOM      9  C   UNL     1       1.074   9.765  21.032  0.00  0.00    +0.000 A 
ATOM     10  O   UNL     1       0.769  10.758  21.679  0.00  0.00    +0.000 OA
ATOM     11  O   UNL     1       1.144   8.482  21.595  0.00  0.00    +0.000 OA
ATOM     12  C   UNL     1       1.546   7.704  20.522  0.00  0.00    +0.000 A 
ATOM     13  C   UNL     1       1.774   6.345  20.562  0.00  0.00    +0.000 A 
ATOM     14  C   UNL     1       2.196   5.721  19.377  0.00  0.00    +0.000 A 
ATOM     15  C   UNL     1       2.382   6.486  18.198  0.00  0.00    +0.000 A 
ATOM     16  C   UNL     1       2.115   7.860  18.179  0.00  0.00    +0.000 A 
ATOM     17  C   UNL     1       1.708   8.435  19.362  0.00  0.00    +0.000 A 
ENDBRANCH   1  14
BRANCH   6  18
ATOM     18  C   UNL     1       4.595   4.080  18.060  0.00  0.00    +0.000 A 
ATOM     19  C   UNL     1       5.674   4.622  18.774  0.00  0.00    +0.000 A 
ATOM     20  C   UNL     1       6.793   5.150  18.115  0.00  0.00    +0.000 A 
ATOM     21  C   UNL     1       6.859   5.143  16.727  0.00  0.00    +0.000 A 
ATOM     22  C   UNL     1       5.812   4.596  15.997  0.00  0.00    +0.000 A 
ATOM     23  C   UNL     1       4.699   4.071  16.661  0.00  0.00    +0.000 A 
ENDBRANCH   6  18
TORSDOF 2
ENDMDL
