MODEL 1
REMARK VINA RESULT:      -7.0      0.000      0.000
REMARK  Name = 
REMARK  10 active torsions:
REMARK  status: ('A' for Active; 'I' for Inactive)
REMARK    1  A    between atoms: C_1  and  O_2
REMARK    2  A    between atoms: O_2  and  C_3
REMARK    3  A    between atoms: C_9  and  C_10
REMARK    4  A    between atoms: C_10  and  C_11
REMARK    5  A    between atoms: C_11  and  O_12
REMARK    6  A    between atoms: O_12  and  C_13
REMARK    7  A    between atoms: N_16  and  S_17
REMARK    8  A    between atoms: S_17  and  C_20
REMARK    9  A    between atoms: C_21  and  C_22
REMARK   10  A    between atoms: C_25  and  C_26
REMARK                            x       y       z     vdW  Elec       q    Type
REMARK                         _______ _______ _______ _____ _____    ______ ____
ROOT
ATOM      1  C   UNL     1       6.470   6.159  16.778  0.00  0.00    +0.000 C 
ATOM      2  C   UNL     1       6.825   4.781  17.333  0.00  0.00    +0.000 C 
ATOM      3  C   UNL     1       5.647   3.836  17.403  0.00  0.00    +0.000 C 
ATOM      4  N   UNL     1       4.355   4.496  17.677  0.00  0.00    +0.000 NA
ATOM      5  C   UNL     1       4.275   5.932  18.073  0.00  0.00    +0.000 C 
ATOM      6  C   UNL     1       5.535   6.773  17.826  0.00  0.00    +0.000 C 
ENDROOT
BRANCH   4   7
ATOM      7  S   UNL     1       3.054   3.467  18.056  0.00  0.00    +0.000 S 
ATOM      8  O   UNL     1       1.826   4.066  17.575  0.00  0.00    +0.000 OA
ATOM      9  O   UNL     1       3.425   2.119  17.685  0.00  0.00    +0.000 OA
BRANCH   7  10
ATOM     10  C   UNL     1       2.799   3.312  19.779  0.00  0.00    +0.000 A 
ATOM     11  C   UNL     1       3.544   2.456  20.641  0.00  0.00    +0.000 A 
ATOM     12  C   UNL     1       4.740   1.624  20.377  0.00  0.00    +0.000 C 
ATOM     13  N   UNL     1       3.027   2.420  21.876  0.00  0.00    +0.000 NA
ATOM     14  N   UNL     1       1.954   3.211  21.803  0.00  0.00    +0.000 N 
ATOM     15  C   UNL     1       1.782   3.817  20.591  0.00  0.00    +0.000 A 
ATOM     16  C   UNL     1       0.622   4.722  20.409  0.00  0.00    +0.000 C 
ATOM     17  H   UNL     1       1.361   3.281  22.626  0.00  0.00    +0.000 HD
ENDBRANCH   7  10
ENDBRANCH   4   7
BRANCH   1  18
ATOM     18  O   UNL     1       7.660   6.982  16.629  0.00  0.00    +0.000 OA
ATOM     19  C   UNL     1       7.875   8.036  17.558  0.00  0.00    +0.000 C 
ENDBRANCH   1  18
BRANCH   1  20
ATOM     20  C   UNL     1       5.663   6.154  15.397  0.00  0.00    +0.000 C 
BRANCH  20  27
ATOM     21  C   UNL     1       7.115   4.905  13.628  0.00  0.00    +0.000 A 
ATOM     22  C   UNL     1       7.154   3.967  12.587  0.00  0.00    +0.000 A 
ATOM     23  C   UNL     1       6.088   3.099  12.375  0.00  0.00    +0.000 A 
ATOM     24 CL   UNL     1       6.142   1.989  11.059  0.00  0.00    +0.000 Cl
ATOM     25  C   UNL     1       4.980   3.131  13.206  0.00  0.00    +0.000 A 
ATOM     26  C   UNL     1       4.888   4.123  14.176  0.00  0.00    +0.000 A 
ATOM     27  C   UNL     1       5.907   5.075  14.356  0.00  0.00    +0.000 A 
BRANCH  21  29
ATOM     28  C   UNL     1       9.092   6.003  12.829  0.00  0.00    +0.000 C 
ATOM     29  O   UNL     1       8.203   5.697  13.920  0.00  0.00    +0.000 OA
ENDBRANCH  21  29
ENDBRANCH  20  27
ENDBRANCH   1  20
TORSDOF 6
ENDMDL
MODEL 2
REMARK VINA RESULT:      -6.8      8.621     11.321
REMARK  Name = 
REMARK  10 active torsions:
REMARK  status: ('A' for Active; 'I' for Inactive)
REMARK    1  A    between atoms: C_1  and  O_2
REMARK    2  A    between atoms: O_2  and  C_3
REMARK    3  A    between atoms: C_9  and  C_10
REMARK    4  A    between atoms: C_10  and  C_11
REMARK    5  A    between atoms: C_11  and  O_12
REMARK    6  A    between atoms: O_12  and  C_13
REMARK    7  A    between atoms: N_16  and  S_17
REMARK    8  A    between atoms: S_17  and  C_20
REMARK    9  A    between atoms: C_21  and  C_22
REMARK   10  A    between atoms: C_25  and  C_26
REMARK                            x       y       z     vdW  Elec       q    Type
REMARK                         _______ _______ _______ _____ _____    ______ ____
ROOT
ATOM      1  C   UNL     1      -0.808  11.362  19.147  0.00  0.00    +0.000 C 
ATOM      2  C   UNL     1      -1.219  12.454  18.161  0.00  0.00    +0.000 C 
ATOM      3  C   UNL     1      -0.448  13.743  18.332  0.00  0.00    +0.000 C 
ATOM      4  N   UNL     1      -0.054  14.036  19.724  0.00  0.00    +0.000 NA
ATOM      5  C   UNL     1      -0.577  13.239  20.872  0.00  0.00    +0.000 C 
ATOM      6  C   UNL     1      -1.233  11.895  20.520  0.00  0.00    +0.000 C 
ENDROOT
BRANCH   4   7
ATOM      7  S   UNL     1       0.550  15.599  20.020  0.00  0.00    +0.000 S 
ATOM      8  O   UNL     1      -0.518  16.558  19.833  0.00  0.00    +0.000 OA
ATOM      9  O   UNL     1       1.315  15.559  21.247  0.00  0.00    +0.000 OA
BRANCH   7  10
ATOM     10  C   UNL     1       1.759  16.084  18.854  0.00  0.00    +0.000 A 
ATOM     11  C   UNL     1       1.771  17.329  18.161  0.00  0.00    +0.000 A 
ATOM     12  C   UNL     1       0.916  18.528  18.313  0.00  0.00    +0.000 C 
ATOM     13  N   UNL     1       2.719  17.362  17.214  0.00  0.00    +0.000 NA
ATOM     14  N   UNL     1       3.285  16.155  17.276  0.00  0.00    +0.000 N 
ATOM     15  C   UNL     1       2.792  15.353  18.266  0.00  0.00    +0.000 A 
ATOM     16  C   UNL     1       3.360  13.992  18.423  0.00  0.00    +0.000 C 
ATOM     17  H   UNL     1       4.000  15.932  16.589  0.00  0.00    +0.000 HD
ENDBRANCH   7  10
ENDBRANCH   4   7
BRANCH   1  18
ATOM     18  O   UNL     1      -1.500  10.116  18.861  0.00  0.00    +0.000 OA
ATOM     19  C   UNL     1      -2.085   9.945  17.576  0.00  0.00    +0.000 C 
ENDBRANCH   1  18
BRANCH   1  20
ATOM     20  C   UNL     1       0.763  11.077  19.238  0.00  0.00    +0.000 C 
BRANCH  20  27
ATOM     21  C   UNL     1       1.353   8.752  20.260  0.00  0.00    +0.000 A 
ATOM     22  C   UNL     1       2.017   7.529  20.097  0.00  0.00    +0.000 A 
ATOM     23  C   UNL     1       2.476   7.133  18.845  0.00  0.00    +0.000 A 
ATOM     24 CL   UNL     1       3.331   5.646  18.681  0.00  0.00    +0.000 Cl
ATOM     25  C   UNL     1       2.261   7.931  17.733  0.00  0.00    +0.000 A 
ATOM     26  C   UNL     1       1.694   9.190  17.901  0.00  0.00    +0.000 A 
ATOM     27  C   UNL     1       1.303   9.660  19.168  0.00  0.00    +0.000 A 
BRANCH  21  29
ATOM     28  C   UNL     1      -0.450   8.481  21.818  0.00  0.00    +0.000 C 
ATOM     29  O   UNL     1       0.797   9.111  21.468  0.00  0.00    +0.000 OA
ENDBRANCH  21  29
ENDBRANCH  20  27
ENDBRANCH   1  20
TORSDOF 6
ENDMDL
MODEL 3
REMARK VINA RESULT:      -6.7      0.248      1.562
REMARK  Name = 
REMARK  10 active torsions:
REMARK  status: ('A' for Active; 'I' for Inactive)
REMARK    1  A    between atoms: C_1  and  O_2
REMARK    2  A    between atoms: O_2  and  C_3
REMARK    3  A    between atoms: C_9  and  C_10
REMARK    4  A    between atoms: C_10  and  C_11
REMARK    5  A    between atoms: C_11  and  O_12
REMARK    6  A    between atoms: O_12  and  C_13
REMARK    7  A    between atoms: N_16  and  S_17
REMARK    8  A    between atoms: S_17  and  C_20
REMARK    9  A    between atoms: C_21  and  C_22
REMARK   10  A    between atoms: C_25  and  C_26
REMARK                            x       y       z     vdW  Elec       q    Type
REMARK                         _______ _______ _______ _____ _____    ______ ____
ROOT
ATOM      1  C   UNL     1       6.297   6.040  16.685  0.00  0.00    +0.000 C 
ATOM      2  C   UNL     1       6.591   4.673  17.301  0.00  0.00    +0.000 C 
ATOM      3  C   UNL     1       5.383   3.766  17.363  0.00  0.00    +0.000 C 
ATOM      4  N   UNL     1       4.103   4.473  17.566  0.00  0.00    +0.000 NA
ATOM      5  C   UNL     1       4.053   5.923  17.908  0.00  0.00    +0.000 C 
ATOM      6  C   UNL     1       5.346   6.719  17.676  0.00  0.00    +0.000 C 
ENDROOT
BRANCH   4   7
ATOM      7  S   UNL     1       2.759   3.496  17.935  0.00  0.00    +0.000 S 
ATOM      8  O   UNL     1       1.548   4.243  17.664  0.00  0.00    +0.000 OA
ATOM      9  O   UNL     1       2.980   2.190  17.354  0.00  0.00    +0.000 OA
BRANCH   7  10
ATOM     10  C   UNL     1       2.648   3.121  19.639  0.00  0.00    +0.000 A 
ATOM     11  C   UNL     1       1.725   3.716  20.548  0.00  0.00    +0.000 A 
ATOM     12  C   UNL     1       0.596   4.643  20.309  0.00  0.00    +0.000 C 
ATOM     13  N   UNL     1       1.974   3.359  21.815  0.00  0.00    +0.000 NA
ATOM     14  N   UNL     1       3.052   2.577  21.728  0.00  0.00    +0.000 N 
ATOM     15  C   UNL     1       3.482   2.352  20.451  0.00  0.00    +0.000 A 
ATOM     16  C   UNL     1       4.670   1.488  20.246  0.00  0.00    +0.000 C 
ATOM     17  H   UNL     1       3.462   2.239  22.595  0.00  0.00    +0.000 HD
ENDBRANCH   7  10
ENDBRANCH   4   7
BRANCH   1  18
ATOM     18  O   UNL     1       7.516   6.822  16.549  0.00  0.00    +0.000 OA
ATOM     19  C   UNL     1       7.757   7.868  17.481  0.00  0.00    +0.000 C 
ENDBRANCH   1  18
BRANCH   1  20
ATOM     20  C   UNL     1       5.539   6.007  15.278  0.00  0.00    +0.000 C 
BRANCH  20  27
ATOM     21  C   UNL     1       7.133   4.851  13.568  0.00  0.00    +0.000 A 
ATOM     22  C   UNL     1       7.265   3.937  12.514  0.00  0.00    +0.000 A 
ATOM     23  C   UNL     1       6.247   3.034  12.226  0.00  0.00    +0.000 A 
ATOM     24 CL   UNL     1       6.416   1.955  10.895  0.00  0.00    +0.000 Cl
ATOM     25  C   UNL     1       5.095   3.007  12.995  0.00  0.00    +0.000 A 
ATOM     26  C   UNL     1       4.911   3.975  13.977  0.00  0.00    +0.000 A 
ATOM     27  C   UNL     1       5.881   4.961  14.231  0.00  0.00    +0.000 A 
BRANCH  21  29
ATOM     28  C   UNL     1       9.061   6.103  12.886  0.00  0.00    +0.000 C 
ATOM     29  O   UNL     1       8.172   5.677  13.936  0.00  0.00    +0.000 OA
ENDBRANCH  21  29
ENDBRANCH  20  27
ENDBRANCH   1  20
TORSDOF 6
ENDMDL
MODEL 4
REMARK VINA RESULT:      -6.7      8.574     11.204
REMARK  Name = 
REMARK  10 active torsions:
REMARK  status: ('A' for Active; 'I' for Inactive)
REMARK    1  A    between atoms: C_1  and  O_2
REMARK    2  A    between atoms: O_2  and  C_3
REMARK    3  A    between atoms: C_9  and  C_10
REMARK    4  A    between atoms: C_10  and  C_11
REMARK    5  A    between atoms: C_11  and  O_12
REMARK    6  A    between atoms: O_12  and  C_13
REMARK    7  A    between atoms: N_16  and  S_17
REMARK    8  A    between atoms: S_17  and  C_20
REMARK    9  A    between atoms: C_21  and  C_22
REMARK   10  A    between atoms: C_25  and  C_26
REMARK                            x       y       z     vdW  Elec       q    Type
REMARK                         _______ _______ _______ _____ _____    ______ ____
ROOT
ATOM      1  C   UNL     1      -0.857  11.288  19.216  0.00  0.00    +0.000 C 
ATOM      2  C   UNL     1      -1.183  12.305  18.124  0.00  0.00    +0.000 C 
ATOM      3  C   UNL     1      -0.411  13.598  18.253  0.00  0.00    +0.000 C 
ATOM      4  N   UNL     1      -0.114  13.992  19.644  0.00  0.00    +0.000 NA
ATOM      5  C   UNL     1      -0.726  13.288  20.807  0.00  0.00    +0.000 C 
ATOM      6  C   UNL     1      -1.372  11.926  20.511  0.00  0.00    +0.000 C 
ENDROOT
BRANCH   4   7
ATOM      7  S   UNL     1       0.487  15.568  19.864  0.00  0.00    +0.000 S 
ATOM      8  O   UNL     1      -0.608  16.509  19.748  0.00  0.00    +0.000 OA
ATOM      9  O   UNL     1       1.348  15.562  21.027  0.00  0.00    +0.000 OA
BRANCH   7  10
ATOM     10  C   UNL     1       1.592  16.051  18.598  0.00  0.00    +0.000 A 
ATOM     11  C   UNL     1       2.762  15.331  18.218  0.00  0.00    +0.000 A 
ATOM     12  C   UNL     1       3.266  14.008  18.651  0.00  0.00    +0.000 C 
ATOM     13  N   UNL     1       3.501  16.015  17.335  0.00  0.00    +0.000 NA
ATOM     14  N   UNL     1       2.839  17.162  17.172  0.00  0.00    +0.000 N 
ATOM     15  C   UNL     1       1.661  17.234  17.862  0.00  0.00    +0.000 A 
ATOM     16  C   UNL     1       0.845  18.467  17.743  0.00  0.00    +0.000 C 
ATOM     17  H   UNL     1       3.262  17.873  16.582  0.00  0.00    +0.000 HD
ENDBRANCH   7  10
ENDBRANCH   4   7
BRANCH   1  18
ATOM     18  O   UNL     1      -1.542  10.028  18.975  0.00  0.00    +0.000 OA
ATOM     19  C   UNL     1      -2.350   9.907  17.811  0.00  0.00    +0.000 C 
ENDBRANCH   1  18
BRANCH   1  20
ATOM     20  C   UNL     1       0.700  11.000  19.440  0.00  0.00    +0.000 C 
BRANCH  20  27
ATOM     21  C   UNL     1       1.391   8.641  20.311  0.00  0.00    +0.000 A 
ATOM     22  C   UNL     1       2.071   7.444  20.053  0.00  0.00    +0.000 A 
ATOM     23  C   UNL     1       2.474   7.122  18.761  0.00  0.00    +0.000 A 
ATOM     24 CL   UNL     1       3.352   5.666  18.479  0.00  0.00    +0.000 Cl
ATOM     25  C   UNL     1       2.186   7.969  17.704  0.00  0.00    +0.000 A 
ATOM     26  C   UNL     1       1.601   9.204  17.964  0.00  0.00    +0.000 A 
ATOM     27  C   UNL     1       1.266   9.601  19.271  0.00  0.00    +0.000 A 
BRANCH  21  29
ATOM     28  C   UNL     1      -0.453   8.484  21.837  0.00  0.00    +0.000 C 
ATOM     29  O   UNL     1       0.890   8.926  21.563  0.00  0.00    +0.000 OA
ENDBRANCH  21  29
ENDBRANCH  20  27
ENDBRANCH   1  20
TORSDOF 6
ENDMDL
MODEL 5
REMARK VINA RESULT:      -6.7      0.884      1.031
REMARK  Name = 
REMARK  10 active torsions:
REMARK  status: ('A' for Active; 'I' for Inactive)
REMARK    1  A    between atoms: C_1  and  O_2
REMARK    2  A    between atoms: O_2  and  C_3
REMARK    3  A    between atoms: C_9  and  C_10
REMARK    4  A    between atoms: C_10  and  C_11
REMARK    5  A    between atoms: C_11  and  O_12
REMARK    6  A    between atoms: O_12  and  C_13
REMARK    7  A    between atoms: N_16  and  S_17
REMARK    8  A    between atoms: S_17  and  C_20
REMARK    9  A    between atoms: C_21  and  C_22
REMARK   10  A    between atoms: C_25  and  C_26
REMARK                            x       y       z     vdW  Elec       q    Type
REMARK                         _______ _______ _______ _____ _____    ______ ____
ROOT
ATOM      1  C   UNL     1       6.900   6.163  17.232  0.00  0.00    +0.000 C 
ATOM      2  C   UNL     1       6.481   6.048  18.696  0.00  0.00    +0.000 C 
ATOM      3  C   UNL     1       5.441   4.980  18.945  0.00  0.00    +0.000 C 
ATOM      4  N   UNL     1       4.496   4.781  17.829  0.00  0.00    +0.000 NA
ATOM      5  C   UNL     1       4.444   5.715  16.667  0.00  0.00    +0.000 C 
ATOM      6  C   UNL     1       5.645   6.659  16.505  0.00  0.00    +0.000 C 
ENDROOT
BRANCH   4   7
ATOM      7  S   UNL     1       3.138   3.811  18.161  0.00  0.00    +0.000 S 
ATOM      8  O   UNL     1       1.943   4.522  17.755  0.00  0.00    +0.000 OA
ATOM      9  O   UNL     1       3.413   2.474  17.682  0.00  0.00    +0.000 OA
BRANCH   7  10
ATOM     10  C   UNL     1       2.905   3.542  19.872  0.00  0.00    +0.000 A 
ATOM     11  C   UNL     1       3.545   2.520  20.632  0.00  0.00    +0.000 A 
ATOM     12  C   UNL     1       4.607   1.559  20.258  0.00  0.00    +0.000 C 
ATOM     13  N   UNL     1       3.057   2.447  21.878  0.00  0.00    +0.000 NA
ATOM     14  N   UNL     1       2.104   3.381  21.911  0.00  0.00    +0.000 N 
ATOM     15  C   UNL     1       1.989   4.108  20.760  0.00  0.00    +0.000 A 
ATOM     16  C   UNL     1       0.962   5.176  20.696  0.00  0.00    +0.000 C 
ATOM     17  H   UNL     1       1.546   3.458  22.757  0.00  0.00    +0.000 HD
ENDBRANCH   7  10
ENDBRANCH   4   7
BRANCH   1  18
ATOM     18  O   UNL     1       7.980   7.125  17.074  0.00  0.00    +0.000 OA
ATOM     19  C   UNL     1       7.857   8.392  17.707  0.00  0.00    +0.000 C 
ENDBRANCH   1  18
BRANCH   1  20
ATOM     20  C   UNL     1       7.319   4.789  16.530  0.00  0.00    +0.000 C 
BRANCH  20  27
ATOM     21  C   UNL     1       7.268   4.924  13.926  0.00  0.00    +0.000 A 
ATOM     22  C   UNL     1       6.579   4.617  12.745  0.00  0.00    +0.000 A 
ATOM     23  C   UNL     1       5.533   3.700  12.751  0.00  0.00    +0.000 A 
ATOM     24 CL   UNL     1       4.672   3.378  11.295  0.00  0.00    +0.000 Cl
ATOM     25  C   UNL     1       5.172   3.055  13.923  0.00  0.00    +0.000 A 
ATOM     26  C   UNL     1       5.781   3.426  15.118  0.00  0.00    +0.000 A 
ATOM     27  C   UNL     1       6.778   4.417  15.160  0.00  0.00    +0.000 A 
BRANCH  21  29
ATOM     28  C   UNL     1       8.932   6.066  12.631  0.00  0.00    +0.000 C 
ATOM     29  O   UNL     1       8.374   5.745  13.919  0.00  0.00    +0.000 OA
ENDBRANCH  21  29
ENDBRANCH  20  27
ENDBRANCH   1  20
TORSDOF 6
ENDMDL
MODEL 6
REMARK VINA RESULT:      -6.6      9.070     12.195
REMARK  Name = 
REMARK  10 active torsions:
REMARK  status: ('A' for Active; 'I' for Inactive)
REMARK    1  A    between atoms: C_1  and  O_2
REMARK    2  A    between atoms: O_2  and  C_3
REMARK    3  A    between atoms: C_9  and  C_10
REMARK    4  A    between atoms: C_10  and  C_11
REMARK    5  A    between atoms: C_11  and  O_12
REMARK    6  A    between atoms: O_12  and  C_13
REMARK    7  A    between atoms: N_16  and  S_17
REMARK    8  A    between atoms: S_17  and  C_20
REMARK    9  A    between atoms: C_21  and  C_22
REMARK   10  A    between atoms: C_25  and  C_26
REMARK                            x       y       z     vdW  Elec       q    Type
REMARK                         _______ _______ _______ _____ _____    ______ ____
ROOT
ATOM      1  C   UNL     1      -1.107  13.552  21.054  0.00  0.00    +0.000 C 
ATOM      2  C   UNL     1      -1.180  13.670  19.533  0.00  0.00    +0.000 C 
ATOM      3  C   UNL     1      -0.829  12.389  18.811  0.00  0.00    +0.000 C 
ATOM      4  N   UNL     1       0.184  11.563  19.498  0.00  0.00    +0.000 NA
ATOM      5  C   UNL     1       0.946  12.072  20.675  0.00  0.00    +0.000 C 
ATOM      6  C   UNL     1       0.378  13.325  21.357  0.00  0.00    +0.000 C 
ENDROOT
BRANCH   4   7
ATOM      7  S   UNL     1       0.831  10.270  18.600  0.00  0.00    +0.000 S 
ATOM      8  O   UNL     1      -0.209   9.719  17.756  0.00  0.00    +0.000 OA
ATOM      9  O   UNL     1       2.097  10.698  18.046  0.00  0.00    +0.000 OA
BRANCH   7  10
ATOM     10  C   UNL     1       1.311   8.925  19.608  0.00  0.00    +0.000 A 
ATOM     11  C   UNL     1       2.160   7.857  19.194  0.00  0.00    +0.000 A 
ATOM     12  C   UNL     1       2.928   7.663  17.943  0.00  0.00    +0.000 C 
ATOM     13  N   UNL     1       2.225   6.888  20.116  0.00  0.00    +0.000 NA
ATOM     14  N   UNL     1       1.413   7.307  21.089  0.00  0.00    +0.000 N 
ATOM     15  C   UNL     1       0.868   8.541  20.874  0.00  0.00    +0.000 A 
ATOM     16  C   UNL     1      -0.044   9.101  21.900  0.00  0.00    +0.000 C 
ATOM     17  H   UNL     1       1.258   6.683  21.876  0.00  0.00    +0.000 HD
ENDBRANCH   7  10
ENDBRANCH   4   7
BRANCH   1  18
ATOM     18  O   UNL     1      -1.564  14.776  21.693  0.00  0.00    +0.000 OA
ATOM     19  C   UNL     1      -1.615  15.967  20.917  0.00  0.00    +0.000 C 
ENDBRANCH   1  18
BRANCH   1  20
ATOM     20  C   UNL     1      -1.894  12.311  21.684  0.00  0.00    +0.000 C 
BRANCH  20  27
ATOM     21  C   UNL     1      -4.477  12.629  21.526  0.00  0.00    +0.000 A 
ATOM     22  C   UNL     1      -5.668  12.938  22.197  0.00  0.00    +0.000 A 
ATOM     23  C   UNL     1      -5.718  12.943  23.587  0.00  0.00    +0.000 A 
ATOM     24 CL   UNL     1      -7.183  13.375  24.386  0.00  0.00    +0.000 Cl
ATOM     25  C   UNL     1      -4.597  12.617  24.331  0.00  0.00    +0.000 A 
ATOM     26  C   UNL     1      -3.386  12.408  23.679  0.00  0.00    +0.000 A 
ATOM     27  C   UNL     1      -3.280  12.487  22.278  0.00  0.00    +0.000 A 
BRANCH  21  29
ATOM     28  C   UNL     1      -5.520  13.115  19.422  0.00  0.00    +0.000 C 
ATOM     29  O   UNL     1      -4.436  12.512  20.154  0.00  0.00    +0.000 OA
ENDBRANCH  21  29
ENDBRANCH  20  27
ENDBRANCH   1  20
TORSDOF 6
ENDMDL
MODEL 7
REMARK VINA RESULT:      -6.6      9.790     12.066
REMARK  Name = 
REMARK  10 active torsions:
REMARK  status: ('A' for Active; 'I' for Inactive)
REMARK    1  A    between atoms: C_1  and  O_2
REMARK    2  A    between atoms: O_2  and  C_3
REMARK    3  A    between atoms: C_9  and  C_10
REMARK    4  A    between atoms: C_10  and  C_11
REMARK    5  A    between atoms: C_11  and  O_12
REMARK    6  A    between atoms: O_12  and  C_13
REMARK    7  A    between atoms: N_16  and  S_17
REMARK    8  A    between atoms: S_17  and  C_20
REMARK    9  A    between atoms: C_21  and  C_22
REMARK   10  A    between atoms: C_25  and  C_26
REMARK                            x       y       z     vdW  Elec       q    Type
REMARK                         _______ _______ _______ _____ _____    ______ ____
ROOT
ATOM      1  C   UNL     1      -0.379  12.943  20.592  0.00  0.00    +0.000 C 
ATOM      2  C   UNL     1      -0.276  12.965  22.116  0.00  0.00    +0.000 C 
ATOM      3  C   UNL     1      -1.552  12.552  22.813  0.00  0.00    +0.000 C 
ATOM      4  N   UNL     1      -2.786  12.926  22.093  0.00  0.00    +0.000 NA
ATOM      5  C   UNL     1      -2.759  13.829  20.906  0.00  0.00    +0.000 C 
ATOM      6  C   UNL     1      -1.387  14.047  20.253  0.00  0.00    +0.000 C 
ENDROOT
BRANCH   4   7
ATOM      7  S   UNL     1      -4.241  12.754  22.959  0.00  0.00    +0.000 S 
ATOM      8  O   UNL     1      -5.266  12.262  22.062  0.00  0.00    +0.000 OA
ATOM      9  O   UNL     1      -3.945  12.075  24.202  0.00  0.00    +0.000 OA
BRANCH   7  10
ATOM     10  C   UNL     1      -4.873  14.283  23.522  0.00  0.00    +0.000 A 
ATOM     11  C   UNL     1      -4.099  15.312  24.133  0.00  0.00    +0.000 A 
ATOM     12  C   UNL     1      -2.636  15.434  24.325  0.00  0.00    +0.000 C 
ATOM     13  N   UNL     1      -4.869  16.298  24.610  0.00  0.00    +0.000 NA
ATOM     14  N   UNL     1      -6.114  15.900  24.340  0.00  0.00    +0.000 N 
ATOM     15  C   UNL     1      -6.191  14.724  23.648  0.00  0.00    +0.000 A 
ATOM     16  C   UNL     1      -7.531  14.198  23.293  0.00  0.00    +0.000 C 
ATOM     17  H   UNL     1      -6.879  16.477  24.679  0.00  0.00    +0.000 HD
ENDBRANCH   7  10
ENDBRANCH   4   7
BRANCH   1  18
ATOM     18  O   UNL     1       0.907  13.238  19.980  0.00  0.00    +0.000 OA
ATOM     19  C   UNL     1       0.940  14.121  18.866  0.00  0.00    +0.000 C 
ENDBRANCH   1  18
BRANCH   1  20
ATOM     20  C   UNL     1      -0.958  11.592  19.964  0.00  0.00    +0.000 C 
BRANCH  20  27
ATOM     21  C   UNL     1       0.287   9.383  20.573  0.00  0.00    +0.000 A 
ATOM     22  C   UNL     1       1.264   8.445  20.214  0.00  0.00    +0.000 A 
ATOM     23  C   UNL     1       1.786   8.423  18.924  0.00  0.00    +0.000 A 
ATOM     24 CL   UNL     1       3.021   7.291  18.524  0.00  0.00    +0.000 Cl
ATOM     25  C   UNL     1       1.328   9.313  17.967  0.00  0.00    +0.000 A 
ATOM     26  C   UNL     1       0.434  10.312  18.340  0.00  0.00    +0.000 A 
ATOM     27  C   UNL     1      -0.042  10.419  19.658  0.00  0.00    +0.000 A 
BRANCH  21  29
ATOM     28  C   UNL     1       0.551   9.419  22.957  0.00  0.00    +0.000 C 
ATOM     29  O   UNL     1      -0.319   9.351  21.810  0.00  0.00    +0.000 OA
ENDBRANCH  21  29
ENDBRANCH  20  27
ENDBRANCH   1  20
TORSDOF 6
ENDMDL
MODEL 8
REMARK VINA RESULT:      -6.5      3.560      5.753
REMARK  Name = 
REMARK  10 active torsions:
REMARK  status: ('A' for Active; 'I' for Inactive)
REMARK    1  A    between atoms: C_1  and  O_2
REMARK    2  A    between atoms: O_2  and  C_3
REMARK    3  A    between atoms: C_9  and  C_10
REMARK    4  A    between atoms: C_10  and  C_11
REMARK    5  A    between atoms: C_11  and  O_12
REMARK    6  A    between atoms: O_12  and  C_13
REMARK    7  A    between atoms: N_16  and  S_17
REMARK    8  A    between atoms: S_17  and  C_20
REMARK    9  A    between atoms: C_21  and  C_22
REMARK   10  A    between atoms: C_25  and  C_26
REMARK                            x       y       z     vdW  Elec       q    Type
REMARK                         _______ _______ _______ _____ _____    ______ ____
ROOT
ATOM      1  C   UNL     1       3.140   3.785  19.207  0.00  0.00    +0.000 C 
ATOM      2  C   UNL     1       1.833   4.245  18.566  0.00  0.00    +0.000 C 
ATOM      3  C   UNL     1       1.466   5.672  18.900  0.00  0.00    +0.000 C 
ATOM      4  N   UNL     1       1.890   6.109  20.245  0.00  0.00    +0.000 NA
ATOM      5  C   UNL     1       2.423   5.146  21.251  0.00  0.00    +0.000 C 
ATOM      6  C   UNL     1       2.855   3.774  20.712  0.00  0.00    +0.000 C 
ENDROOT
BRANCH   4   7
ATOM      7  S   UNL     1       1.254   7.592  20.787  0.00  0.00    +0.000 S 
ATOM      8  O   UNL     1      -0.165   7.433  21.029  0.00  0.00    +0.000 OA
ATOM      9  O   UNL     1       2.135   8.111  21.810  0.00  0.00    +0.000 OA
BRANCH   7  10
ATOM     10  C   UNL     1       1.335   8.844  19.570  0.00  0.00    +0.000 A 
ATOM     11  C   UNL     1       0.498   9.996  19.527  0.00  0.00    +0.000 A 
ATOM     12  C   UNL     1      -0.505  10.499  20.494  0.00  0.00    +0.000 C 
ATOM     13  N   UNL     1       0.673  10.697  18.399  0.00  0.00    +0.000 NA
ATOM     14  N   UNL     1       1.580   9.995  17.716  0.00  0.00    +0.000 N 
ATOM     15  C   UNL     1       2.056   8.898  18.376  0.00  0.00    +0.000 A 
ATOM     16  C   UNL     1       3.074   8.054  17.705  0.00  0.00    +0.000 C 
ATOM     17  H   UNL     1       1.819  10.315  16.781  0.00  0.00    +0.000 HD
ENDBRANCH   7  10
ENDBRANCH   4   7
BRANCH   1  18
ATOM     18  O   UNL     1       3.497   2.448  18.758  0.00  0.00    +0.000 OA
ATOM     19  C   UNL     1       2.616   1.774  17.869  0.00  0.00    +0.000 C 
ENDBRANCH   1  18
BRANCH   1  20
ATOM     20  C   UNL     1       4.390   4.758  18.989  0.00  0.00    +0.000 C 
BRANCH  20  27
ATOM     21  C   UNL     1       6.626   4.654  17.652  0.00  0.00    +0.000 A 
ATOM     22  C   UNL     1       7.260   4.761  16.407  0.00  0.00    +0.000 A 
ATOM     23  C   UNL     1       6.517   4.747  15.231  0.00  0.00    +0.000 A 
ATOM     24 CL   UNL     1       7.317   4.929  13.716  0.00  0.00    +0.000 Cl
ATOM     25  C   UNL     1       5.140   4.603  15.271  0.00  0.00    +0.000 A 
ATOM     26  C   UNL     1       4.494   4.598  16.503  0.00  0.00    +0.000 A 
ATOM     27  C   UNL     1       5.208   4.703  17.710  0.00  0.00    +0.000 A 
BRANCH  21  29
ATOM     28  C   UNL     1       7.877   5.784  19.358  0.00  0.00    +0.000 C 
ATOM     29  O   UNL     1       7.352   4.556  18.820  0.00  0.00    +0.000 OA
ENDBRANCH  21  29
ENDBRANCH  20  27
ENDBRANCH   1  20
TORSDOF 6
ENDMDL
MODEL 9
REMARK VINA RESULT:      -6.4      9.038     11.852
REMARK  Name = 
REMARK  10 active torsions:
REMARK  status: ('A' for Active; 'I' for Inactive)
REMARK    1  A    between atoms: C_1  and  O_2
REMARK    2  A    between atoms: O_2  and  C_3
REMARK    3  A    between atoms: C_9  and  C_10
REMARK    4  A    between atoms: C_10  and  C_11
REMARK    5  A    between atoms: C_11  and  O_12
REMARK    6  A    between atoms: O_12  and  C_13
REMARK    7  A    between atoms: N_16  and  S_17
REMARK    8  A    between atoms: S_17  and  C_20
REMARK    9  A    between atoms: C_21  and  C_22
REMARK   10  A    between atoms: C_25  and  C_26
REMARK                            x       y       z     vdW  Elec       q    Type
REMARK                         _______ _______ _______ _____ _____    ______ ____
ROOT
ATOM      1  C   UNL     1      -0.021  13.988  20.506  0.00  0.00    +0.000 C 
ATOM      2  C   UNL     1      -0.622  13.783  19.117  0.00  0.00    +0.000 C 
ATOM      3  C   UNL     1      -0.511  12.362  18.615  0.00  0.00    +0.000 C 
ATOM      4  N   UNL     1       0.697  11.648  19.072  0.00  0.00    +0.000 NA
ATOM      5  C   UNL     1       1.808  12.355  19.773  0.00  0.00    +0.000 C 
ATOM      6  C   UNL     1       1.482  13.752  20.320  0.00  0.00    +0.000 C 
ENDROOT
BRANCH   4   7
ATOM      7  S   UNL     1       1.024  10.162  18.310  0.00  0.00    +0.000 S 
ATOM      8  O   UNL     1      -0.194   9.671  17.698  0.00  0.00    +0.000 OA
ATOM      9  O   UNL     1       2.241  10.309  17.543  0.00  0.00    +0.000 OA
BRANCH   7  10
ATOM     10  C   UNL     1       1.459   8.905  19.445  0.00  0.00    +0.000 A 
ATOM     11  C   UNL     1       2.235   7.752  19.128  0.00  0.00    +0.000 A 
ATOM     12  C   UNL     1       2.954   7.383  17.888  0.00  0.00    +0.000 C 
ATOM     13  N   UNL     1       2.274   6.884  20.147  0.00  0.00    +0.000 NA
ATOM     14  N   UNL     1       1.516   7.449  21.088  0.00  0.00    +0.000 N 
ATOM     15  C   UNL     1       1.033   8.683  20.755  0.00  0.00    +0.000 A 
ATOM     16  C   UNL     1       0.183   9.400  21.736  0.00  0.00    +0.000 C 
ATOM     17  H   UNL     1       1.349   6.923  21.941  0.00  0.00    +0.000 HD
ENDBRANCH   7  10
ENDBRANCH   4   7
BRANCH   1  18
ATOM     18  O   UNL     1      -0.258  15.342  20.981  0.00  0.00    +0.000 OA
ATOM     19  C   UNL     1       0.799  16.020  21.648  0.00  0.00    +0.000 C 
ENDBRANCH   1  18
BRANCH   1  20
ATOM     20  C   UNL     1      -0.508  12.951  21.623  0.00  0.00    +0.000 C 
BRANCH  20  27
ATOM     21  C   UNL     1      -2.084  13.728  23.549  0.00  0.00    +0.000 A 
ATOM     22  C   UNL     1      -3.361  13.666  24.122  0.00  0.00    +0.000 A 
ATOM     23  C   UNL     1      -4.436  13.153  23.405  0.00  0.00    +0.000 A 
ATOM     24 CL   UNL     1      -5.985  13.043  24.150  0.00  0.00    +0.000 Cl
ATOM     25  C   UNL     1      -4.266  12.716  22.101  0.00  0.00    +0.000 A 
ATOM     26  C   UNL     1      -2.985  12.679  21.559  0.00  0.00    +0.000 A 
ATOM     27  C   UNL     1      -1.862  13.105  22.291  0.00  0.00    +0.000 A 
BRANCH  21  29
ATOM     28  C   UNL     1      -1.355  15.457  25.043  0.00  0.00    +0.000 C 
ATOM     29  O   UNL     1      -1.032  14.332  24.203  0.00  0.00    +0.000 OA
ENDBRANCH  21  29
ENDBRANCH  20  27
ENDBRANCH   1  20
TORSDOF 6
ENDMDL
