MODEL 1
REMARK VINA RESULT:      -7.9      0.000      0.000
REMARK  Name = 
REMARK  8 active torsions:
REMARK  status: ('A' for Active; 'I' for Inactive)
REMARK    1  A    between atoms: C_1  and  S_2
REMARK    2  A    between atoms: S_2  and  N_5
REMARK    3  A    between atoms: C_6  and  C_8
REMARK    4  A    between atoms: C_10  and  C_11
REMARK    5  A    between atoms: C_14  and  O_15
REMARK    6  A    between atoms: O_15  and  C_16
REMARK    7  A    between atoms: C_16  and  C_17
REMARK    8  A    between atoms: C_17  and  C_18
REMARK                            x       y       z     vdW  Elec       q    Type
REMARK                         _______ _______ _______ _____ _____    ______ ____
ROOT
ATOM      1  C   UNL     1       1.382   8.289  19.823  0.00  0.00    +0.000 A 
ATOM      2  C   UNL     1       1.653   7.022  20.370  0.00  0.00    +0.000 A 
ATOM      3  C   UNL     1       2.433   6.059  19.700  0.00  0.00    +0.000 A 
ATOM      4  C   UNL     1       2.994   6.439  18.451  0.00  0.00    +0.000 A 
ATOM      5  C   UNL     1       2.697   7.690  17.887  0.00  0.00    +0.000 A 
ATOM      6  C   UNL     1       1.883   8.596  18.568  0.00  0.00    +0.000 A 
ATOM      7  F   UNL     1       1.623   9.780  17.989  0.00  0.00    +0.000 F 
ENDROOT
BRANCH   1   9
ATOM      8  N   UNL     1       0.982  10.586  20.675  0.00  0.00    +0.000 N 
ATOM      9  C   UNL     1       0.605   9.236  20.653  0.00  0.00    +0.000 C 
ATOM     10  O   UNL     1      -0.294   8.804  21.356  0.00  0.00    +0.000 OA
ATOM     11  H   UNL     1       1.792  10.942  20.170  0.00  0.00    +0.000 HD
BRANCH   8  13
ATOM     12  C   UNL     1      -1.371  11.881  20.634  0.00  0.00    +0.000 C 
ATOM     13  S   UNL     1       0.144  11.735  21.568  0.00  0.00    +0.000 S 
ATOM     14  O   UNL     1       0.862  12.986  21.503  0.00  0.00    +0.000 OA
ATOM     15  O   UNL     1      -0.170  11.113  22.835  0.00  0.00    +0.000 OA
ENDBRANCH   8  13
ENDBRANCH   1   9
BRANCH   3  16
ATOM     16  C   UNL     1       2.685   4.712  20.374  0.00  0.00    +0.000 C 
ATOM     17  C   UNL     1       1.584   3.949  21.091  0.00  0.00    +0.000 C 
ATOM     18  C   UNL     1       2.103   3.451  19.778  0.00  0.00    +0.000 C 
ENDBRANCH   3  16
BRANCH   4  19
ATOM     19  O   UNL     1       3.833   5.519  17.878  0.00  0.00    +0.000 OA
BRANCH  19  20
ATOM     20  C   UNL     1       4.557   5.866  16.689  0.00  0.00    +0.000 C 
BRANCH  20  21
ATOM     21  C   UNL     1       6.080   5.928  16.999  0.00  0.00    +0.000 C 
ATOM     22  C   UNL     1       6.457   7.397  17.311  0.00  0.00    +0.000 C 
ATOM     23  C   UNL     1       7.886   7.576  17.823  0.00  0.00    +0.000 C 
ATOM     24  C   UNL     1       8.186   6.665  19.007  0.00  0.00    +0.000 C 
ATOM     25  C   UNL     1       7.890   5.207  18.679  0.00  0.00    +0.000 C 
ATOM     26  C   UNL     1       6.442   5.027  18.206  0.00  0.00    +0.000 C 
BRANCH  21  27
ATOM     27  C   UNL     1       6.809   5.464  15.793  0.00  0.00    +0.000 C 
ATOM     28  N   UNL     1       7.375   5.089  14.844  0.00  0.00    +0.000 NA
ENDBRANCH  21  27
ENDBRANCH  20  21
ENDBRANCH  19  20
ENDBRANCH   4  19
TORSDOF 7
ENDMDL
MODEL 2
REMARK VINA RESULT:      -7.8      0.909      1.067
REMARK  Name = 
REMARK  8 active torsions:
REMARK  status: ('A' for Active; 'I' for Inactive)
REMARK    1  A    between atoms: C_1  and  S_2
REMARK    2  A    between atoms: S_2  and  N_5
REMARK    3  A    between atoms: C_6  and  C_8
REMARK    4  A    between atoms: C_10  and  C_11
REMARK    5  A    between atoms: C_14  and  O_15
REMARK    6  A    between atoms: O_15  and  C_16
REMARK    7  A    between atoms: C_16  and  C_17
REMARK    8  A    between atoms: C_17  and  C_18
REMARK                            x       y       z     vdW  Elec       q    Type
REMARK                         _______ _______ _______ _____ _____    ______ ____
ROOT
ATOM      1  C   UNL     1       1.658   8.172  19.824  0.00  0.00    +0.000 A 
ATOM      2  C   UNL     1       1.870   6.886  20.353  0.00  0.00    +0.000 A 
ATOM      3  C   UNL     1       2.532   5.872  19.636  0.00  0.00    +0.000 A 
ATOM      4  C   UNL     1       3.038   6.214  18.353  0.00  0.00    +0.000 A 
ATOM      5  C   UNL     1       2.799   7.485  17.807  0.00  0.00    +0.000 A 
ATOM      6  C   UNL     1       2.099   8.446  18.539  0.00  0.00    +0.000 A 
ATOM      7  F   UNL     1       1.890   9.648  17.976  0.00  0.00    +0.000 F 
ENDROOT
BRANCH   1   9
ATOM      8  N   UNL     1       0.090  10.070  20.142  0.00  0.00    +0.000 N 
ATOM      9  C   UNL     1       1.009   9.171  20.701  0.00  0.00    +0.000 C 
ATOM     10  O   UNL     1       1.348   9.236  21.872  0.00  0.00    +0.000 OA
ATOM     11  H   UNL     1      -0.128  10.091  19.147  0.00  0.00    +0.000 HD
BRANCH   8  13
ATOM     12  C   UNL     1       0.523  12.502  21.197  0.00  0.00    +0.000 C 
ATOM     13  S   UNL     1      -0.713  11.220  21.067  0.00  0.00    +0.000 S 
ATOM     14  O   UNL     1      -0.962  10.668  22.377  0.00  0.00    +0.000 OA
ATOM     15  O   UNL     1      -1.792  11.720  20.244  0.00  0.00    +0.000 OA
ENDBRANCH   8  13
ENDBRANCH   1   9
BRANCH   3  16
ATOM     16  C   UNL     1       2.727   4.508  20.293  0.00  0.00    +0.000 C 
ATOM     17  C   UNL     1       1.633   3.839  21.108  0.00  0.00    +0.000 C 
ATOM     18  C   UNL     1       1.991   3.301  19.758  0.00  0.00    +0.000 C 
ENDBRANCH   3  16
BRANCH   4  19
ATOM     19  O   UNL     1       3.768   5.237  17.727  0.00  0.00    +0.000 OA
BRANCH  19  20
ATOM     20  C   UNL     1       4.501   5.555  16.535  0.00  0.00    +0.000 C 
BRANCH  20  21
ATOM     21  C   UNL     1       6.015   5.687  16.868  0.00  0.00    +0.000 C 
ATOM     22  C   UNL     1       6.305   7.158  17.256  0.00  0.00    +0.000 C 
ATOM     23  C   UNL     1       7.716   7.392  17.795  0.00  0.00    +0.000 C 
ATOM     24  C   UNL     1       8.056   6.442  18.936  0.00  0.00    +0.000 C 
ATOM     25  C   UNL     1       7.846   4.988  18.534  0.00  0.00    +0.000 C 
ATOM     26  C   UNL     1       6.416   4.750  18.034  0.00  0.00    +0.000 C 
BRANCH  21  27
ATOM     27  C   UNL     1       6.782   5.325  15.651  0.00  0.00    +0.000 C 
ATOM     28  N   UNL     1       7.390   5.031  14.700  0.00  0.00    +0.000 NA
ENDBRANCH  21  27
ENDBRANCH  20  21
ENDBRANCH  19  20
ENDBRANCH   4  19
TORSDOF 7
ENDMDL
MODEL 3
REMARK VINA RESULT:      -7.7      1.163      1.224
REMARK  Name = 
REMARK  8 active torsions:
REMARK  status: ('A' for Active; 'I' for Inactive)
REMARK    1  A    between atoms: C_1  and  S_2
REMARK    2  A    between atoms: S_2  and  N_5
REMARK    3  A    between atoms: C_6  and  C_8
REMARK    4  A    between atoms: C_10  and  C_11
REMARK    5  A    between atoms: C_14  and  O_15
REMARK    6  A    between atoms: O_15  and  C_16
REMARK    7  A    between atoms: C_16  and  C_17
REMARK    8  A    between atoms: C_17  and  C_18
REMARK                            x       y       z     vdW  Elec       q    Type
REMARK                         _______ _______ _______ _____ _____    ______ ____
ROOT
ATOM      1  C   UNL     1       1.506   8.394  20.367  0.00  0.00    +0.000 A 
ATOM      2  C   UNL     1       1.587   7.114  20.946  0.00  0.00    +0.000 A 
ATOM      3  C   UNL     1       2.135   6.010  20.267  0.00  0.00    +0.000 A 
ATOM      4  C   UNL     1       2.666   6.247  18.971  0.00  0.00    +0.000 A 
ATOM      5  C   UNL     1       2.558   7.514  18.377  0.00  0.00    +0.000 A 
ATOM      6  C   UNL     1       1.966   8.570  19.071  0.00  0.00    +0.000 A 
ATOM      7  F   UNL     1       1.880   9.765  18.463  0.00  0.00    +0.000 F 
ENDROOT
BRANCH   1   9
ATOM      8  N   UNL     1      -0.085  10.269  20.710  0.00  0.00    +0.000 N 
ATOM      9  C   UNL     1       0.970   9.488  21.206  0.00  0.00    +0.000 C 
ATOM     10  O   UNL     1       1.509   9.732  22.273  0.00  0.00    +0.000 OA
ATOM     11  H   UNL     1      -0.478  10.140  19.779  0.00  0.00    +0.000 HD
BRANCH   8  13
ATOM     12  C   UNL     1      -1.212  10.672  23.115  0.00  0.00    +0.000 C 
ATOM     13  S   UNL     1      -0.772  11.515  21.603  0.00  0.00    +0.000 S 
ATOM     14  O   UNL     1      -1.976  11.950  20.937  0.00  0.00    +0.000 OA
ATOM     15  O   UNL     1       0.299  12.438  21.900  0.00  0.00    +0.000 OA
ENDBRANCH   8  13
ENDBRANCH   1   9
BRANCH   3  16
ATOM     16  C   UNL     1       2.191   4.659  20.977  0.00  0.00    +0.000 C 
ATOM     17  C   UNL     1       1.138   3.586  20.757  0.00  0.00    +0.000 C 
ATOM     18  C   UNL     1       2.512   3.407  20.192  0.00  0.00    +0.000 C 
ENDBRANCH   3  16
BRANCH   4  19
ATOM     19  O   UNL     1       3.287   5.175  18.383  0.00  0.00    +0.000 OA
BRANCH  19  20
ATOM     20  C   UNL     1       3.849   5.317  17.071  0.00  0.00    +0.000 C 
BRANCH  20  21
ATOM     21  C   UNL     1       5.402   5.360  17.165  0.00  0.00    +0.000 C 
ATOM     22  C   UNL     1       5.860   6.833  17.021  0.00  0.00    +0.000 C 
ATOM     23  C   UNL     1       7.350   7.048  17.288  0.00  0.00    +0.000 C 
ATOM     24  C   UNL     1       7.779   6.464  18.628  0.00  0.00    +0.000 C 
ATOM     25  C   UNL     1       7.399   4.994  18.744  0.00  0.00    +0.000 C 
ATOM     26  C   UNL     1       5.897   4.788  18.517  0.00  0.00    +0.000 C 
BRANCH  21  27
ATOM     27  C   UNL     1       5.948   4.549  16.050  0.00  0.00    +0.000 C 
ATOM     28  N   UNL     1       6.382   3.921  15.168  0.00  0.00    +0.000 NA
ENDBRANCH  21  27
ENDBRANCH  20  21
ENDBRANCH  19  20
ENDBRANCH   4  19
TORSDOF 7
ENDMDL
MODEL 4
REMARK VINA RESULT:      -7.5      1.326      2.173
REMARK  Name = 
REMARK  8 active torsions:
REMARK  status: ('A' for Active; 'I' for Inactive)
REMARK    1  A    between atoms: C_1  and  S_2
REMARK    2  A    between atoms: S_2  and  N_5
REMARK    3  A    between atoms: C_6  and  C_8
REMARK    4  A    between atoms: C_10  and  C_11
REMARK    5  A    between atoms: C_14  and  O_15
REMARK    6  A    between atoms: O_15  and  C_16
REMARK    7  A    between atoms: C_16  and  C_17
REMARK    8  A    between atoms: C_17  and  C_18
REMARK                            x       y       z     vdW  Elec       q    Type
REMARK                         _______ _______ _______ _____ _____    ______ ____
ROOT
ATOM      1  C   UNL     1       1.224   8.063  20.308  0.00  0.00    +0.000 A 
ATOM      2  C   UNL     1       1.393   6.796  20.895  0.00  0.00    +0.000 A 
ATOM      3  C   UNL     1       2.257   5.822  20.360  0.00  0.00    +0.000 A 
ATOM      4  C   UNL     1       3.011   6.190  19.214  0.00  0.00    +0.000 A 
ATOM      5  C   UNL     1       2.821   7.440  18.605  0.00  0.00    +0.000 A 
ATOM      6  C   UNL     1       1.920   8.358  19.146  0.00  0.00    +0.000 A 
ATOM      7  F   UNL     1       1.766   9.541  18.529  0.00  0.00    +0.000 F 
ENDROOT
BRANCH   1   9
ATOM      8  N   UNL     1       0.618  10.393  20.913  0.00  0.00    +0.000 N 
ATOM      9  C   UNL     1       0.337   9.022  21.002  0.00  0.00    +0.000 C 
ATOM     10  O   UNL     1      -0.569   8.591  21.697  0.00  0.00    +0.000 OA
ATOM     11  H   UNL     1       1.429  10.760  20.419  0.00  0.00    +0.000 HD
BRANCH   8  13
ATOM     12  C   UNL     1       0.567  13.050  21.308  0.00  0.00    +0.000 C 
ATOM     13  S   UNL     1      -0.348  11.554  21.648  0.00  0.00    +0.000 S 
ATOM     14  O   UNL     1      -0.354  11.317  23.072  0.00  0.00    +0.000 OA
ATOM     15  O   UNL     1      -1.577  11.599  20.888  0.00  0.00    +0.000 OA
ENDBRANCH   8  13
ENDBRANCH   1   9
BRANCH   3  16
ATOM     16  C   UNL     1       2.386   4.477  21.070  0.00  0.00    +0.000 C 
ATOM     17  C   UNL     1       1.267   3.450  21.065  0.00  0.00    +0.000 C 
ATOM     18  C   UNL     1       2.505   3.205  20.261  0.00  0.00    +0.000 C 
ENDBRANCH   3  16
BRANCH   4  19
ATOM     19  O   UNL     1       3.920   5.258  18.783  0.00  0.00    +0.000 OA
BRANCH  19  20
ATOM     20  C   UNL     1       5.323   5.546  18.869  0.00  0.00    +0.000 C 
BRANCH  20  21
ATOM     21  C   UNL     1       5.924   5.668  17.439  0.00  0.00    +0.000 C 
ATOM     22  C   UNL     1       6.865   4.461  17.198  0.00  0.00    +0.000 C 
ATOM     23  C   UNL     1       7.375   4.349  15.762  0.00  0.00    +0.000 C 
ATOM     24  C   UNL     1       6.238   4.374  14.748  0.00  0.00    +0.000 C 
ATOM     25  C   UNL     1       5.354   5.601  14.932  0.00  0.00    +0.000 C 
ATOM     26  C   UNL     1       4.810   5.686  16.363  0.00  0.00    +0.000 C 
BRANCH  21  27
ATOM     27  C   UNL     1       6.698   6.932  17.377  0.00  0.00    +0.000 C 
ATOM     28  N   UNL     1       7.317   7.920  17.324  0.00  0.00    +0.000 NA
ENDBRANCH  21  27
ENDBRANCH  20  21
ENDBRANCH  19  20
ENDBRANCH   4  19
TORSDOF 7
ENDMDL
MODEL 5
REMARK VINA RESULT:      -7.4      1.047      1.157
REMARK  Name = 
REMARK  8 active torsions:
REMARK  status: ('A' for Active; 'I' for Inactive)
REMARK    1  A    between atoms: C_1  and  S_2
REMARK    2  A    between atoms: S_2  and  N_5
REMARK    3  A    between atoms: C_6  and  C_8
REMARK    4  A    between atoms: C_10  and  C_11
REMARK    5  A    between atoms: C_14  and  O_15
REMARK    6  A    between atoms: O_15  and  C_16
REMARK    7  A    between atoms: C_16  and  C_17
REMARK    8  A    between atoms: C_17  and  C_18
REMARK                            x       y       z     vdW  Elec       q    Type
REMARK                         _______ _______ _______ _____ _____    ______ ____
ROOT
ATOM      1  C   UNL     1       1.777   7.556  20.081  0.00  0.00    +0.000 A 
ATOM      2  C   UNL     1       1.679   6.204  20.459  0.00  0.00    +0.000 A 
ATOM      3  C   UNL     1       2.210   5.159  19.680  0.00  0.00    +0.000 A 
ATOM      4  C   UNL     1       2.912   5.526  18.501  0.00  0.00    +0.000 A 
ATOM      5  C   UNL     1       2.984   6.870  18.102  0.00  0.00    +0.000 A 
ATOM      6  C   UNL     1       2.403   7.870  18.885  0.00  0.00    +0.000 A 
ATOM      7  F   UNL     1       2.493   9.142  18.463  0.00  0.00    +0.000 F 
ENDROOT
BRANCH   1   9
ATOM      8  N   UNL     1       0.427   9.593  20.513  0.00  0.00    +0.000 N 
ATOM      9  C   UNL     1       1.237   8.566  21.017  0.00  0.00    +0.000 C 
ATOM     10  O   UNL     1       1.574   8.523  22.190  0.00  0.00    +0.000 OA
ATOM     11  H   UNL     1       0.220   9.699  19.522  0.00  0.00    +0.000 HD
BRANCH   8  13
ATOM     12  C   UNL     1      -1.426  11.536  20.403  0.00  0.00    +0.000 C 
ATOM     13  S   UNL     1      -0.249  10.768  21.506  0.00  0.00    +0.000 S 
ATOM     14  O   UNL     1       0.773  11.727  21.849  0.00  0.00    +0.000 OA
ATOM     15  O   UNL     1      -0.988  10.059  22.526  0.00  0.00    +0.000 OA
ENDBRANCH   8  13
ENDBRANCH   1   9
BRANCH   3  16
ATOM     16  C   UNL     1       2.065   3.721  20.173  0.00  0.00    +0.000 C 
ATOM     17  C   UNL     1       2.959   3.146  21.259  0.00  0.00    +0.000 C 
ATOM     18  C   UNL     1       1.525   3.450  21.559  0.00  0.00    +0.000 C 
ENDBRANCH   3  16
BRANCH   4  19
ATOM     19  O   UNL     1       3.507   4.493  17.823  0.00  0.00    +0.000 OA
BRANCH  19  20
ATOM     20  C   UNL     1       4.073   4.732  16.526  0.00  0.00    +0.000 C 
BRANCH  20  21
ATOM     21  C   UNL     1       5.591   5.044  16.664  0.00  0.00    +0.000 C 
ATOM     22  C   UNL     1       5.768   6.581  16.753  0.00  0.00    +0.000 C 
ATOM     23  C   UNL     1       7.193   7.023  17.085  0.00  0.00    +0.000 C 
ATOM     24  C   UNL     1       7.728   6.332  18.333  0.00  0.00    +0.000 C 
ATOM     25  C   UNL     1       7.627   4.817  18.219  0.00  0.00    +0.000 C 
ATOM     26  C   UNL     1       6.188   4.376  17.928  0.00  0.00    +0.000 C 
BRANCH  21  27
ATOM     27  C   UNL     1       6.274   4.526  15.455  0.00  0.00    +0.000 C 
ATOM     28  N   UNL     1       6.823   4.123  14.507  0.00  0.00    +0.000 NA
ENDBRANCH  21  27
ENDBRANCH  20  21
ENDBRANCH  19  20
ENDBRANCH   4  19
TORSDOF 7
ENDMDL
MODEL 6
REMARK VINA RESULT:      -7.4      3.138      4.953
REMARK  Name = 
REMARK  8 active torsions:
REMARK  status: ('A' for Active; 'I' for Inactive)
REMARK    1  A    between atoms: C_1  and  S_2
REMARK    2  A    between atoms: S_2  and  N_5
REMARK    3  A    between atoms: C_6  and  C_8
REMARK    4  A    between atoms: C_10  and  C_11
REMARK    5  A    between atoms: C_14  and  O_15
REMARK    6  A    between atoms: O_15  and  C_16
REMARK    7  A    between atoms: C_16  and  C_17
REMARK    8  A    between atoms: C_17  and  C_18
REMARK                            x       y       z     vdW  Elec       q    Type
REMARK                         _______ _______ _______ _____ _____    ______ ____
ROOT
ATOM      1  C   UNL     1      -0.130  10.512  21.847  0.00  0.00    +0.000 A 
ATOM      2  C   UNL     1       0.147  10.467  20.469  0.00  0.00    +0.000 A 
ATOM      3  C   UNL     1       0.861   9.410  19.874  0.00  0.00    +0.000 A 
ATOM      4  C   UNL     1       1.253   8.339  20.722  0.00  0.00    +0.000 A 
ATOM      5  C   UNL     1       1.008   8.396  22.103  0.00  0.00    +0.000 A 
ATOM      6  C   UNL     1       0.335   9.486  22.655  0.00  0.00    +0.000 A 
ATOM      7  F   UNL     1       0.125   9.501  23.983  0.00  0.00    +0.000 F 
ENDROOT
BRANCH   1   9
ATOM      8  N   UNL     1      -2.261  11.785  21.877  0.00  0.00    +0.000 N 
ATOM      9  C   UNL     1      -0.946  11.643  22.341  0.00  0.00    +0.000 C 
ATOM     10  O   UNL     1      -0.427  12.466  23.079  0.00  0.00    +0.000 OA
ATOM     11  H   UNL     1      -2.674  11.162  21.185  0.00  0.00    +0.000 HD
BRANCH   8  13
ATOM     12  C   UNL     1      -4.756  12.696  21.473  0.00  0.00    +0.000 C 
ATOM     13  S   UNL     1      -3.267  13.024  22.403  0.00  0.00    +0.000 S 
ATOM     14  O   UNL     1      -2.710  14.284  21.974  0.00  0.00    +0.000 OA
ATOM     15  O   UNL     1      -3.542  12.758  23.796  0.00  0.00    +0.000 OA
ENDBRANCH   8  13
ENDBRANCH   1   9
BRANCH   3  16
ATOM     16  C   UNL     1       1.107   9.439  18.368  0.00  0.00    +0.000 C 
ATOM     17  C   UNL     1       2.207  10.281  17.745  0.00  0.00    +0.000 C 
ATOM     18  C   UNL     1       2.347   8.792  17.794  0.00  0.00    +0.000 C 
ENDBRANCH   3  16
BRANCH   4  19
ATOM     19  O   UNL     1       1.851   7.278  20.092  0.00  0.00    +0.000 OA
BRANCH  19  20
ATOM     20  C   UNL     1       1.781   5.973  20.685  0.00  0.00    +0.000 C 
BRANCH  20  21
ATOM     21  C   UNL     1       2.417   4.925  19.727  0.00  0.00    +0.000 C 
ATOM     22  C   UNL     1       2.292   3.526  20.380  0.00  0.00    +0.000 C 
ATOM     23  C   UNL     1       2.703   2.374  19.463  0.00  0.00    +0.000 C 
ATOM     24  C   UNL     1       1.980   2.426  18.123  0.00  0.00    +0.000 C 
ATOM     25  C   UNL     1       2.164   3.775  17.441  0.00  0.00    +0.000 C 
ATOM     26  C   UNL     1       1.710   4.924  18.349  0.00  0.00    +0.000 C 
BRANCH  21  27
ATOM     27  C   UNL     1       3.848   5.276  19.554  0.00  0.00    +0.000 C 
ATOM     28  N   UNL     1       4.976   5.541  19.420  0.00  0.00    +0.000 NA
ENDBRANCH  21  27
ENDBRANCH  20  21
ENDBRANCH  19  20
ENDBRANCH   4  19
TORSDOF 7
ENDMDL
MODEL 7
REMARK VINA RESULT:      -7.3      1.218      2.149
REMARK  Name = 
REMARK  8 active torsions:
REMARK  status: ('A' for Active; 'I' for Inactive)
REMARK    1  A    between atoms: C_1  and  S_2
REMARK    2  A    between atoms: S_2  and  N_5
REMARK    3  A    between atoms: C_6  and  C_8
REMARK    4  A    between atoms: C_10  and  C_11
REMARK    5  A    between atoms: C_14  and  O_15
REMARK    6  A    between atoms: O_15  and  C_16
REMARK    7  A    between atoms: C_16  and  C_17
REMARK    8  A    between atoms: C_17  and  C_18
REMARK                            x       y       z     vdW  Elec       q    Type
REMARK                         _______ _______ _______ _____ _____    ______ ____
ROOT
ATOM      1  C   UNL     1       1.233   8.347  20.179  0.00  0.00    +0.000 A 
ATOM      2  C   UNL     1       1.454   7.066  20.716  0.00  0.00    +0.000 A 
ATOM      3  C   UNL     1       2.217   6.088  20.050  0.00  0.00    +0.000 A 
ATOM      4  C   UNL     1       2.814   6.464  18.817  0.00  0.00    +0.000 A 
ATOM      5  C   UNL     1       2.567   7.729  18.262  0.00  0.00    +0.000 A 
ATOM      6  C   UNL     1       1.768   8.652  18.937  0.00  0.00    +0.000 A 
ATOM      7  F   UNL     1       1.556   9.850  18.367  0.00  0.00    +0.000 F 
ENDROOT
BRANCH   1   9
ATOM      8  N   UNL     1       0.784  10.673  20.923  0.00  0.00    +0.000 N 
ATOM      9  C   UNL     1       0.470   9.309  21.005  0.00  0.00    +0.000 C 
ATOM     10  O   UNL     1      -0.360   8.882  21.792  0.00  0.00    +0.000 OA
ATOM     11  H   UNL     1       1.541  11.032  20.344  0.00  0.00    +0.000 HD
BRANCH   8  13
ATOM     12  C   UNL     1      -1.524  12.044  20.824  0.00  0.00    +0.000 C 
ATOM     13  S   UNL     1      -0.046  11.837  21.805  0.00  0.00    +0.000 S 
ATOM     14  O   UNL     1       0.713  13.064  21.781  0.00  0.00    +0.000 OA
ATOM     15  O   UNL     1      -0.422  11.209  23.051  0.00  0.00    +0.000 OA
ENDBRANCH   8  13
ENDBRANCH   1   9
BRANCH   3  16
ATOM     16  C   UNL     1       2.414   4.726  20.713  0.00  0.00    +0.000 C 
ATOM     17  C   UNL     1       1.264   3.757  20.925  0.00  0.00    +0.000 C 
ATOM     18  C   UNL     1       2.304   3.464  19.889  0.00  0.00    +0.000 C 
ENDBRANCH   3  16
BRANCH   4  19
ATOM     19  O   UNL     1       3.635   5.524  18.249  0.00  0.00    +0.000 OA
BRANCH  19  20
ATOM     20  C   UNL     1       5.050   5.590  18.480  0.00  0.00    +0.000 C 
BRANCH  20  21
ATOM     21  C   UNL     1       5.811   5.036  17.242  0.00  0.00    +0.000 C 
ATOM     22  C   UNL     1       5.058   3.786  16.723  0.00  0.00    +0.000 C 
ATOM     23  C   UNL     1       5.587   3.251  15.392  0.00  0.00    +0.000 C 
ATOM     24  C   UNL     1       5.654   4.338  14.326  0.00  0.00    +0.000 C 
ATOM     25  C   UNL     1       6.460   5.539  14.804  0.00  0.00    +0.000 C 
ATOM     26  C   UNL     1       5.900   6.098  16.117  0.00  0.00    +0.000 C 
BRANCH  21  27
ATOM     27  C   UNL     1       7.177   4.657  17.679  0.00  0.00    +0.000 C 
ATOM     28  N   UNL     1       8.255   4.358  18.011  0.00  0.00    +0.000 NA
ENDBRANCH  21  27
ENDBRANCH  20  21
ENDBRANCH  19  20
ENDBRANCH   4  19
TORSDOF 7
ENDMDL
MODEL 8
REMARK VINA RESULT:      -7.3      1.593      2.167
REMARK  Name = 
REMARK  8 active torsions:
REMARK  status: ('A' for Active; 'I' for Inactive)
REMARK    1  A    between atoms: C_1  and  S_2
REMARK    2  A    between atoms: S_2  and  N_5
REMARK    3  A    between atoms: C_6  and  C_8
REMARK    4  A    between atoms: C_10  and  C_11
REMARK    5  A    between atoms: C_14  and  O_15
REMARK    6  A    between atoms: O_15  and  C_16
REMARK    7  A    between atoms: C_16  and  C_17
REMARK    8  A    between atoms: C_17  and  C_18
REMARK                            x       y       z     vdW  Elec       q    Type
REMARK                         _______ _______ _______ _____ _____    ______ ____
ROOT
ATOM      1  C   UNL     1       1.053   9.483  20.332  0.00  0.00    +0.000 A 
ATOM      2  C   UNL     1       1.420   8.145  20.557  0.00  0.00    +0.000 A 
ATOM      3  C   UNL     1       2.003   7.341  19.559  0.00  0.00    +0.000 A 
ATOM      4  C   UNL     1       2.263   7.958  18.305  0.00  0.00    +0.000 A 
ATOM      5  C   UNL     1       1.868   9.283  18.066  0.00  0.00    +0.000 A 
ATOM      6  C   UNL     1       1.253  10.028  19.073  0.00  0.00    +0.000 A 
ATOM      7  F   UNL     1       0.887  11.291  18.799  0.00  0.00    +0.000 F 
ENDROOT
BRANCH   1   9
ATOM      8  N   UNL     1      -0.550  11.135  21.264  0.00  0.00    +0.000 N 
ATOM      9  C   UNL     1       0.510  10.242  21.480  0.00  0.00    +0.000 C 
ATOM     10  O   UNL     1       1.050  10.131  22.569  0.00  0.00    +0.000 OA
ATOM     11  H   UNL     1      -0.944  11.312  20.342  0.00  0.00    +0.000 HD
BRANCH   8  13
ATOM     12  C   UNL     1      -2.553  12.882  21.656  0.00  0.00    +0.000 C 
ATOM     13  S   UNL     1      -1.244  12.019  22.512  0.00  0.00    +0.000 S 
ATOM     14  O   UNL     1      -0.279  12.979  22.991  0.00  0.00    +0.000 OA
ATOM     15  O   UNL     1      -1.851  11.055  23.402  0.00  0.00    +0.000 OA
ENDBRANCH   8  13
ENDBRANCH   1   9
BRANCH   3  16
ATOM     16  C   UNL     1       2.380   5.900  19.895  0.00  0.00    +0.000 C 
ATOM     17  C   UNL     1       1.509   5.022  20.777  0.00  0.00    +0.000 C 
ATOM     18  C   UNL     1       1.586   4.756  19.306  0.00  0.00    +0.000 C 
ENDBRANCH   3  16
BRANCH   4  19
ATOM     19  O   UNL     1       2.927   7.179  17.392  0.00  0.00    +0.000 OA
BRANCH  19  20
ATOM     20  C   UNL     1       4.349   7.314  17.249  0.00  0.00    +0.000 C 
BRANCH  20  21
ATOM     21  C   UNL     1       5.026   5.920  17.383  0.00  0.00    +0.000 C 
ATOM     22  C   UNL     1       5.328   5.665  18.881  0.00  0.00    +0.000 C 
ATOM     23  C   UNL     1       5.819   4.249  19.183  0.00  0.00    +0.000 C 
ATOM     24  C   UNL     1       4.882   3.188  18.620  0.00  0.00    +0.000 C 
ATOM     25  C   UNL     1       4.642   3.389  17.130  0.00  0.00    +0.000 C 
ATOM     26  C   UNL     1       4.109   4.797  16.837  0.00  0.00    +0.000 C 
BRANCH  21  27
ATOM     27  C   UNL     1       6.291   5.952  16.610  0.00  0.00    +0.000 C 
ATOM     28  N   UNL     1       7.282   5.969  15.994  0.00  0.00    +0.000 NA
ENDBRANCH  21  27
ENDBRANCH  20  21
ENDBRANCH  19  20
ENDBRANCH   4  19
TORSDOF 7
ENDMDL
MODEL 9
REMARK VINA RESULT:      -7.2      3.081      4.883
REMARK  Name = 
REMARK  8 active torsions:
REMARK  status: ('A' for Active; 'I' for Inactive)
REMARK    1  A    between atoms: C_1  and  S_2
REMARK    2  A    between atoms: S_2  and  N_5
REMARK    3  A    between atoms: C_6  and  C_8
REMARK    4  A    between atoms: C_10  and  C_11
REMARK    5  A    between atoms: C_14  and  O_15
REMARK    6  A    between atoms: O_15  and  C_16
REMARK    7  A    between atoms: C_16  and  C_17
REMARK    8  A    between atoms: C_17  and  C_18
REMARK                            x       y       z     vdW  Elec       q    Type
REMARK                         _______ _______ _______ _____ _____    ______ ____
ROOT
ATOM      1  C   UNL     1       0.861   9.822  19.479  0.00  0.00    +0.000 A 
ATOM      2  C   UNL     1       1.609   9.232  18.444  0.00  0.00    +0.000 A 
ATOM      3  C   UNL     1       2.282   8.006  18.600  0.00  0.00    +0.000 A 
ATOM      4  C   UNL     1       2.134   7.343  19.849  0.00  0.00    +0.000 A 
ATOM      5  C   UNL     1       1.418   7.944  20.895  0.00  0.00    +0.000 A 
ATOM      6  C   UNL     1       0.802   9.183  20.707  0.00  0.00    +0.000 A 
ATOM      7  F   UNL     1       0.130   9.723  21.738  0.00  0.00    +0.000 F 
ENDROOT
BRANCH   1   9
ATOM      8  N   UNL     1       0.717  12.299  19.558  0.00  0.00    +0.000 N 
ATOM      9  C   UNL     1       0.145  11.079  19.170  0.00  0.00    +0.000 C 
ATOM     10  O   UNL     1      -0.960  11.017  18.656  0.00  0.00    +0.000 OA
ATOM     11  H   UNL     1       1.591  12.360  20.077  0.00  0.00    +0.000 HD
BRANCH   8  13
ATOM     12  C   UNL     1       1.366  14.900  19.381  0.00  0.00    +0.000 C 
ATOM     13  S   UNL     1      -0.013  13.776  19.227  0.00  0.00    +0.000 S 
ATOM     14  O   UNL     1      -0.973  14.059  20.266  0.00  0.00    +0.000 OA
ATOM     15  O   UNL     1      -0.401  13.732  17.835  0.00  0.00    +0.000 OA
ENDBRANCH   8  13
ENDBRANCH   1   9
BRANCH   3  16
ATOM     16  C   UNL     1       3.062   7.434  17.419  0.00  0.00    +0.000 C 
ATOM     17  C   UNL     1       4.561   7.196  17.479  0.00  0.00    +0.000 C 
ATOM     18  C   UNL     1       3.622   6.031  17.493  0.00  0.00    +0.000 C 
ENDBRANCH   3  16
BRANCH   4  19
ATOM     19  O   UNL     1       2.715   6.103  19.930  0.00  0.00    +0.000 OA
BRANCH  19  20
ATOM     20  C   UNL     1       2.287   5.189  20.950  0.00  0.00    +0.000 C 
BRANCH  20  21
ATOM     21  C   UNL     1       2.224   3.747  20.370  0.00  0.00    +0.000 C 
ATOM     22  C   UNL     1       1.190   3.727  19.217  0.00  0.00    +0.000 C 
ATOM     23  C   UNL     1       1.164   2.419  18.427  0.00  0.00    +0.000 C 
ATOM     24  C   UNL     1       2.550   2.024  17.933  0.00  0.00    +0.000 C 
ATOM     25  C   UNL     1       3.555   1.966  19.076  0.00  0.00    +0.000 C 
ATOM     26  C   UNL     1       3.608   3.295  19.839  0.00  0.00    +0.000 C 
BRANCH  21  27
ATOM     27  C   UNL     1       1.786   2.837  21.457  0.00  0.00    +0.000 C 
ATOM     28  N   UNL     1       1.435   2.132  22.317  0.00  0.00    +0.000 NA
ENDBRANCH  21  27
ENDBRANCH  20  21
ENDBRANCH  19  20
ENDBRANCH   4  19
TORSDOF 7
ENDMDL
