MODEL 1
REMARK VINA RESULT:      -8.4      0.000      0.000
REMARK  Name = 
REMARK  6 active torsions:
REMARK  status: ('A' for Active; 'I' for Inactive)
REMARK    1  A    between atoms: C_2  and  C_3
REMARK    2  A    between atoms: C_3  and  S_4
REMARK    3  A    between atoms: S_4  and  C_5
REMARK    4  A    between atoms: C_8  and  C_9
REMARK    5  A    between atoms: C_9  and  O_10
REMARK    6  A    between atoms: O_10  and  C_11
REMARK                            x       y       z     vdW  Elec       q    Type
REMARK                         _______ _______ _______ _____ _____    ______ ____
ROOT
ATOM      1  C   UNL     1       7.653   7.548  17.655  0.00  0.00    +0.000 A 
ATOM      2  N   UNL     1       7.977   6.757  18.660  0.00  0.00    +0.000 NA
ATOM      3  N   UNL     1       7.656   5.475  18.270  0.00  0.00    +0.000 NA
ATOM      4  C   UNL     1       7.152   5.571  17.055  0.00  0.00    +0.000 A 
ATOM      5  O   UNL     1       7.088   6.866  16.613  0.00  0.00    +0.000 OA
ENDROOT
BRANCH   1   6
ATOM      6  S   UNL     1       7.956   9.252  17.615  0.00  0.00    +0.000 S 
BRANCH   6   7
ATOM      7  C   UNL     1       9.060   9.423  19.042  0.00  0.00    +0.000 C 
BRANCH   7   9
ATOM      8  O   UNL     1       9.242  11.377  20.400  0.00  0.00    +0.000 OA
ATOM      9  C   UNL     1       9.442  10.885  19.290  0.00  0.00    +0.000 C 
ATOM     10  N   UNL     1      10.033  11.493  18.209  0.00  0.00    +0.000 N 
ATOM     11  C   UNL     1      10.443  12.796  18.252  0.00  0.00    +0.000 A 
ATOM     12  N   UNL     1      10.208  13.707  19.163  0.00  0.00    +0.000 NA
ATOM     13  C   UNL     1      10.824  14.887  18.798  0.00  0.00    +0.000 A 
ATOM     14  C   UNL     1      11.545  14.844  17.623  0.00  0.00    +0.000 A 
ATOM     15  S   UNL     1      11.410  13.279  16.929  0.00  0.00    +0.000 S 
ATOM     16  H   UNL     1      10.152  11.011  17.324  0.00  0.00    +0.000 HD
ENDBRANCH   7   9
ENDBRANCH   6   7
ENDBRANCH   1   6
BRANCH   4  17
ATOM     17  C   UNL     1       6.566   4.525  16.184  0.00  0.00    +0.000 C 
BRANCH  17  18
ATOM     18  O   UNL     1       5.174   4.804  15.994  0.00  0.00    +0.000 OA
BRANCH  18  19
ATOM     19  C   UNL     1       4.335   4.288  16.952  0.00  0.00    +0.000 A 
ATOM     20  C   UNL     1       4.161   2.903  16.937  0.00  0.00    +0.000 A 
ATOM     21  C   UNL     1       3.323   2.282  17.874  0.00  0.00    +0.000 A 
ATOM     22  C   UNL     1       2.653   3.034  18.847  0.00  0.00    +0.000 A 
ATOM     23  C   UNL     1       2.809   4.429  18.853  0.00  0.00    +0.000 A 
ATOM     24  C   UNL     1       3.657   5.039  17.915  0.00  0.00    +0.000 A 
ATOM     25  C   UNL     1       2.133   5.301  19.884  0.00  0.00    +0.000 C 
ATOM     26  C   UNL     1       0.975   4.610  20.597  0.00  0.00    +0.000 C 
ATOM     27  C   UNL     1       1.383   3.210  21.037  0.00  0.00    +0.000 C 
ATOM     28  C   UNL     1       1.727   2.347  19.822  0.00  0.00    +0.000 C 
ENDBRANCH  18  19
ENDBRANCH  17  18
ENDBRANCH   4  17
TORSDOF 6
ENDMDL
MODEL 2
REMARK VINA RESULT:      -8.1      3.358      9.548
REMARK  Name = 
REMARK  6 active torsions:
REMARK  status: ('A' for Active; 'I' for Inactive)
REMARK    1  A    between atoms: C_2  and  C_3
REMARK    2  A    between atoms: C_3  and  S_4
REMARK    3  A    between atoms: S_4  and  C_5
REMARK    4  A    between atoms: C_8  and  C_9
REMARK    5  A    between atoms: C_9  and  O_10
REMARK    6  A    between atoms: O_10  and  C_11
REMARK                            x       y       z     vdW  Elec       q    Type
REMARK                         _______ _______ _______ _____ _____    ______ ____
ROOT
ATOM      1  C   UNL     1       6.441   5.877  17.107  0.00  0.00    +0.000 A 
ATOM      2  N   UNL     1       7.238   5.412  18.049  0.00  0.00    +0.000 NA
ATOM      3  N   UNL     1       7.954   6.489  18.526  0.00  0.00    +0.000 NA
ATOM      4  C   UNL     1       7.550   7.538  17.836  0.00  0.00    +0.000 A 
ATOM      5  O   UNL     1       6.613   7.217  16.890  0.00  0.00    +0.000 OA
ENDROOT
BRANCH   1   6
ATOM      6  S   UNL     1       5.262   4.927  16.266  0.00  0.00    +0.000 S 
BRANCH   6   7
ATOM      7  C   UNL     1       4.495   4.052  17.656  0.00  0.00    +0.000 C 
BRANCH   7   9
ATOM      8  O   UNL     1       3.825   4.791  19.823  0.00  0.00    +0.000 OA
ATOM      9  C   UNL     1       3.793   5.017  18.614  0.00  0.00    +0.000 C 
ATOM     10  N   UNL     1       3.221   6.099  17.988  0.00  0.00    +0.000 N 
ATOM     11  C   UNL     1       2.556   7.066  18.689  0.00  0.00    +0.000 A 
ATOM     12  N   UNL     1       2.186   7.070  19.945  0.00  0.00    +0.000 NA
ATOM     13  C   UNL     1       1.542   8.258  20.228  0.00  0.00    +0.000 A 
ATOM     14  C   UNL     1       1.460   9.153  19.182  0.00  0.00    +0.000 A 
ATOM     15  S   UNL     1       2.176   8.462  17.782  0.00  0.00    +0.000 S 
ATOM     16  H   UNL     1       3.236   6.202  16.979  0.00  0.00    +0.000 HD
ENDBRANCH   7   9
ENDBRANCH   6   7
ENDBRANCH   1   6
BRANCH   4  17
ATOM     17  C   UNL     1       8.035   8.939  17.865  0.00  0.00    +0.000 C 
BRANCH  17  18
ATOM     18  O   UNL     1       8.996   9.076  18.917  0.00  0.00    +0.000 OA
BRANCH  18  19
ATOM     19  C   UNL     1       9.447  10.356  19.137  0.00  0.00    +0.000 A 
ATOM     20  C   UNL     1       9.566  10.745  20.472  0.00  0.00    +0.000 A 
ATOM     21  C   UNL     1      10.017  12.032  20.799  0.00  0.00    +0.000 A 
ATOM     22  C   UNL     1      10.365  12.947  19.797  0.00  0.00    +0.000 A 
ATOM     23  C   UNL     1      10.227  12.566  18.454  0.00  0.00    +0.000 A 
ATOM     24  C   UNL     1       9.783  11.272  18.138  0.00  0.00    +0.000 A 
ATOM     25  C   UNL     1      10.602  13.493  17.322  0.00  0.00    +0.000 C 
ATOM     26  C   UNL     1      10.709  14.954  17.745  0.00  0.00    +0.000 C 
ATOM     27  C   UNL     1      11.514  15.076  19.032  0.00  0.00    +0.000 C 
ATOM     28  C   UNL     1      10.812  14.339  20.174  0.00  0.00    +0.000 C 
ENDBRANCH  18  19
ENDBRANCH  17  18
ENDBRANCH   4  17
TORSDOF 6
ENDMDL
MODEL 3
REMARK VINA RESULT:      -8.1      5.263      8.475
REMARK  Name = 
REMARK  6 active torsions:
REMARK  status: ('A' for Active; 'I' for Inactive)
REMARK    1  A    between atoms: C_2  and  C_3
REMARK    2  A    between atoms: C_3  and  S_4
REMARK    3  A    between atoms: S_4  and  C_5
REMARK    4  A    between atoms: C_8  and  C_9
REMARK    5  A    between atoms: C_9  and  O_10
REMARK    6  A    between atoms: O_10  and  C_11
REMARK                            x       y       z     vdW  Elec       q    Type
REMARK                         _______ _______ _______ _____ _____    ______ ____
ROOT
ATOM      1  C   UNL     1       1.875   3.679  19.095  0.00  0.00    +0.000 A 
ATOM      2  N   UNL     1       1.353   3.591  20.304  0.00  0.00    +0.000 NA
ATOM      3  N   UNL     1       1.357   4.866  20.828  0.00  0.00    +0.000 NA
ATOM      4  C   UNL     1       1.888   5.644  19.905  0.00  0.00    +0.000 A 
ATOM      5  O   UNL     1       2.273   4.950  18.788  0.00  0.00    +0.000 OA
ENDROOT
BRANCH   1   6
ATOM      6  S   UNL     1       1.997   2.356  17.985  0.00  0.00    +0.000 S 
BRANCH   6   7
ATOM      7  C   UNL     1       3.513   1.563  18.584  0.00  0.00    +0.000 C 
BRANCH   7   9
ATOM      8  O   UNL     1       4.978   2.572  20.174  0.00  0.00    +0.000 OA
ATOM      9  C   UNL     1       4.557   2.596  19.018  0.00  0.00    +0.000 C 
ATOM     10  N   UNL     1       4.954   3.439  18.008  0.00  0.00    +0.000 N 
ATOM     11  C   UNL     1       5.883   4.420  18.215  0.00  0.00    +0.000 A 
ATOM     12  N   UNL     1       6.393   4.853  19.341  0.00  0.00    +0.000 NA
ATOM     13  C   UNL     1       7.303   5.856  19.075  0.00  0.00    +0.000 A 
ATOM     14  C   UNL     1       7.491   6.150  17.741  0.00  0.00    +0.000 A 
ATOM     15  S   UNL     1       6.457   5.163  16.788  0.00  0.00    +0.000 S 
ATOM     16  H   UNL     1       4.545   3.392  17.082  0.00  0.00    +0.000 HD
ENDBRANCH   7   9
ENDBRANCH   6   7
ENDBRANCH   1   6
BRANCH   4  17
ATOM     17  C   UNL     1       2.215   7.090  19.954  0.00  0.00    +0.000 C 
BRANCH  17  18
ATOM     18  O   UNL     1       1.767   7.625  21.204  0.00  0.00    +0.000 OA
BRANCH  18  19
ATOM     19  C   UNL     1       0.982   8.749  21.113  0.00  0.00    +0.000 A 
ATOM     20  C   UNL     1       0.934   9.368  19.863  0.00  0.00    +0.000 A 
ATOM     21  C   UNL     1       0.161  10.522  19.670  0.00  0.00    +0.000 A 
ATOM     22  C   UNL     1      -0.584  11.071  20.722  0.00  0.00    +0.000 A 
ATOM     23  C   UNL     1      -0.522  10.464  21.985  0.00  0.00    +0.000 A 
ATOM     24  C   UNL     1       0.248   9.304  22.165  0.00  0.00    +0.000 A 
ATOM     25  C   UNL     1      -1.313  10.989  23.160  0.00  0.00    +0.000 C 
ATOM     26  C   UNL     1      -1.802  12.421  22.969  0.00  0.00    +0.000 C 
ATOM     27  C   UNL     1      -2.422  12.591  21.588  0.00  0.00    +0.000 C 
ATOM     28  C   UNL     1      -1.378  12.335  20.499  0.00  0.00    +0.000 C 
ENDBRANCH  18  19
ENDBRANCH  17  18
ENDBRANCH   4  17
TORSDOF 6
ENDMDL
MODEL 4
REMARK VINA RESULT:      -8.0      3.538      9.533
REMARK  Name = 
REMARK  6 active torsions:
REMARK  status: ('A' for Active; 'I' for Inactive)
REMARK    1  A    between atoms: C_2  and  C_3
REMARK    2  A    between atoms: C_3  and  S_4
REMARK    3  A    between atoms: S_4  and  C_5
REMARK    4  A    between atoms: C_8  and  C_9
REMARK    5  A    between atoms: C_9  and  O_10
REMARK    6  A    between atoms: O_10  and  C_11
REMARK                            x       y       z     vdW  Elec       q    Type
REMARK                         _______ _______ _______ _____ _____    ______ ____
ROOT
ATOM      1  C   UNL     1       6.445   5.680  17.625  0.00  0.00    +0.000 A 
ATOM      2  N   UNL     1       7.225   5.564  16.568  0.00  0.00    +0.000 NA
ATOM      3  N   UNL     1       7.901   6.759  16.445  0.00  0.00    +0.000 NA
ATOM      4  C   UNL     1       7.481   7.526  17.432  0.00  0.00    +0.000 A 
ATOM      5  O   UNL     1       6.527   6.917  18.204  0.00  0.00    +0.000 OA
ENDROOT
BRANCH   1   6
ATOM      6  S   UNL     1       5.463   4.403  18.261  0.00  0.00    +0.000 S 
BRANCH   6   7
ATOM      7  C   UNL     1       3.822   4.949  17.717  0.00  0.00    +0.000 C 
BRANCH   7   9
ATOM      8  O   UNL     1       3.247   5.639  19.927  0.00  0.00    +0.000 OA
ATOM      9  C   UNL     1       3.181   5.904  18.727  0.00  0.00    +0.000 C 
ATOM     10  N   UNL     1       2.619   7.019  18.154  0.00  0.00    +0.000 N 
ATOM     11  C   UNL     1       2.005   7.982  18.907  0.00  0.00    +0.000 A 
ATOM     12  N   UNL     1       1.678   7.957  20.174  0.00  0.00    +0.000 NA
ATOM     13  C   UNL     1       1.078   9.153  20.515  0.00  0.00    +0.000 A 
ATOM     14  C   UNL     1       0.986  10.082  19.500  0.00  0.00    +0.000 A 
ATOM     15  S   UNL     1       1.634   9.416  18.056  0.00  0.00    +0.000 S 
ATOM     16  H   UNL     1       2.602   7.153  17.149  0.00  0.00    +0.000 HD
ENDBRANCH   7   9
ENDBRANCH   6   7
ENDBRANCH   1   6
BRANCH   4  17
ATOM     17  C   UNL     1       7.804   8.940  17.740  0.00  0.00    +0.000 C 
BRANCH  17  18
ATOM     18  O   UNL     1       8.759   8.977  18.806  0.00  0.00    +0.000 OA
BRANCH  18  19
ATOM     19  C   UNL     1       9.379  10.189  18.998  0.00  0.00    +0.000 A 
ATOM     20  C   UNL     1       9.443  10.646  20.315  0.00  0.00    +0.000 A 
ATOM     21  C   UNL     1      10.056  11.872  20.612  0.00  0.00    +0.000 A 
ATOM     22  C   UNL     1      10.621  12.656  19.599  0.00  0.00    +0.000 A 
ATOM     23  C   UNL     1      10.539  12.211  18.271  0.00  0.00    +0.000 A 
ATOM     24  C   UNL     1       9.932  10.977  17.986  0.00  0.00    +0.000 A 
ATOM     25  C   UNL     1      11.143  12.994  17.130  0.00  0.00    +0.000 C 
ATOM     26  C   UNL     1      11.434  14.449  17.482  0.00  0.00    +0.000 C 
ATOM     27  C   UNL     1      12.139  14.538  18.829  0.00  0.00    +0.000 C 
ATOM     28  C   UNL     1      11.240  13.990  19.940  0.00  0.00    +0.000 C 
ENDBRANCH  18  19
ENDBRANCH  17  18
ENDBRANCH   4  17
TORSDOF 6
ENDMDL
MODEL 5
REMARK VINA RESULT:      -8.0      1.484      2.092
REMARK  Name = 
REMARK  6 active torsions:
REMARK  status: ('A' for Active; 'I' for Inactive)
REMARK    1  A    between atoms: C_2  and  C_3
REMARK    2  A    between atoms: C_3  and  S_4
REMARK    3  A    between atoms: S_4  and  C_5
REMARK    4  A    between atoms: C_8  and  C_9
REMARK    5  A    between atoms: C_9  and  O_10
REMARK    6  A    between atoms: O_10  and  C_11
REMARK                            x       y       z     vdW  Elec       q    Type
REMARK                         _______ _______ _______ _____ _____    ______ ____
ROOT
ATOM      1  C   UNL     1       7.870   8.142  17.758  0.00  0.00    +0.000 A 
ATOM      2  N   UNL     1       8.202   7.266  18.687  0.00  0.00    +0.000 NA
ATOM      3  N   UNL     1       7.749   6.039  18.251  0.00  0.00    +0.000 NA
ATOM      4  C   UNL     1       7.164   6.252  17.089  0.00  0.00    +0.000 A 
ATOM      5  O   UNL     1       7.172   7.573  16.728  0.00  0.00    +0.000 OA
ENDROOT
BRANCH   1   6
ATOM      6  S   UNL     1       8.307   9.817  17.792  0.00  0.00    +0.000 S 
BRANCH   6   7
ATOM      7  C   UNL     1       9.268   9.874  19.328  0.00  0.00    +0.000 C 
BRANCH   7   9
ATOM      8  O   UNL     1      11.217  11.240  19.165  0.00  0.00    +0.000 OA
ATOM      9  C   UNL     1      10.026  11.196  19.471  0.00  0.00    +0.000 C 
ATOM     10  N   UNL     1       9.243  12.239  19.901  0.00  0.00    +0.000 N 
ATOM     11  C   UNL     1       9.753  13.495  20.081  0.00  0.00    +0.000 A 
ATOM     12  N   UNL     1      11.001  13.889  20.076  0.00  0.00    +0.000 NA
ATOM     13  C   UNL     1      11.052  15.251  20.295  0.00  0.00    +0.000 A 
ATOM     14  C   UNL     1       9.831  15.876  20.434  0.00  0.00    +0.000 A 
ATOM     15  S   UNL     1       8.576  14.708  20.331  0.00  0.00    +0.000 S 
ATOM     16  H   UNL     1       8.266  12.110  20.140  0.00  0.00    +0.000 HD
ENDBRANCH   7   9
ENDBRANCH   6   7
ENDBRANCH   1   6
BRANCH   4  17
ATOM     17  C   UNL     1       6.429   5.311  16.209  0.00  0.00    +0.000 C 
BRANCH  17  18
ATOM     18  O   UNL     1       5.088   5.782  16.042  0.00  0.00    +0.000 OA
BRANCH  18  19
ATOM     19  C   UNL     1       4.233   5.502  17.082  0.00  0.00    +0.000 A 
ATOM     20  C   UNL     1       3.752   6.601  17.795  0.00  0.00    +0.000 A 
ATOM     21  C   UNL     1       2.875   6.419  18.874  0.00  0.00    +0.000 A 
ATOM     22  C   UNL     1       2.460   5.136  19.253  0.00  0.00    +0.000 A 
ATOM     23  C   UNL     1       2.958   4.027  18.552  0.00  0.00    +0.000 A 
ATOM     24  C   UNL     1       3.829   4.222  17.467  0.00  0.00    +0.000 A 
ATOM     25  C   UNL     1       2.540   2.617  18.891  0.00  0.00    +0.000 C 
ATOM     26  C   UNL     1       1.913   2.488  20.276  0.00  0.00    +0.000 C 
ATOM     27  C   UNL     1       0.881   3.586  20.495  0.00  0.00    +0.000 C 
ATOM     28  C   UNL     1       1.546   4.963  20.442  0.00  0.00    +0.000 C 
ENDBRANCH  18  19
ENDBRANCH  17  18
ENDBRANCH   4  17
TORSDOF 6
ENDMDL
MODEL 6
REMARK VINA RESULT:      -8.0      1.585      1.733
REMARK  Name = 
REMARK  6 active torsions:
REMARK  status: ('A' for Active; 'I' for Inactive)
REMARK    1  A    between atoms: C_2  and  C_3
REMARK    2  A    between atoms: C_3  and  S_4
REMARK    3  A    between atoms: S_4  and  C_5
REMARK    4  A    between atoms: C_8  and  C_9
REMARK    5  A    between atoms: C_9  and  O_10
REMARK    6  A    between atoms: O_10  and  C_11
REMARK                            x       y       z     vdW  Elec       q    Type
REMARK                         _______ _______ _______ _____ _____    ______ ____
ROOT
ATOM      1  C   UNL     1       7.620   7.369  17.664  0.00  0.00    +0.000 A 
ATOM      2  N   UNL     1       7.912   6.567  18.670  0.00  0.00    +0.000 NA
ATOM      3  N   UNL     1       7.599   5.289  18.258  0.00  0.00    +0.000 NA
ATOM      4  C   UNL     1       7.130   5.400  17.031  0.00  0.00    +0.000 A 
ATOM      5  O   UNL     1       7.082   6.699  16.600  0.00  0.00    +0.000 OA
ENDROOT
BRANCH   1   6
ATOM      6  S   UNL     1       7.929   9.073  17.650  0.00  0.00    +0.000 S 
BRANCH   6   7
ATOM      7  C   UNL     1       9.028   9.218  19.084  0.00  0.00    +0.000 C 
BRANCH   7   9
ATOM      8  O   UNL     1      10.116  11.195  18.309  0.00  0.00    +0.000 OA
ATOM      9  C   UNL     1       9.549  10.648  19.254  0.00  0.00    +0.000 C 
ATOM     10  N   UNL     1       9.270  11.196  20.482  0.00  0.00    +0.000 N 
ATOM     11  C   UNL     1       9.656  12.467  20.807  0.00  0.00    +0.000 A 
ATOM     12  N   UNL     1      10.461  13.276  20.165  0.00  0.00    +0.000 NA
ATOM     13  C   UNL     1      10.562  14.465  20.858  0.00  0.00    +0.000 A 
ATOM     14  C   UNL     1       9.804  14.550  22.007  0.00  0.00    +0.000 A 
ATOM     15  S   UNL     1       8.970  13.068  22.250  0.00  0.00    +0.000 S 
ATOM     16  H   UNL     1       8.802  10.667  21.210  0.00  0.00    +0.000 HD
ENDBRANCH   7   9
ENDBRANCH   6   7
ENDBRANCH   1   6
BRANCH   4  17
ATOM     17  C   UNL     1       6.565   4.364  16.132  0.00  0.00    +0.000 C 
BRANCH  17  18
ATOM     18  O   UNL     1       5.173   4.633  15.931  0.00  0.00    +0.000 OA
BRANCH  18  19
ATOM     19  C   UNL     1       4.335   4.161  16.913  0.00  0.00    +0.000 A 
ATOM     20  C   UNL     1       4.157   2.777  16.957  0.00  0.00    +0.000 A 
ATOM     21  C   UNL     1       3.321   2.199  17.923  0.00  0.00    +0.000 A 
ATOM     22  C   UNL     1       2.656   2.994  18.865  0.00  0.00    +0.000 A 
ATOM     23  C   UNL     1       2.816   4.387  18.811  0.00  0.00    +0.000 A 
ATOM     24  C   UNL     1       3.663   4.955  17.845  0.00  0.00    +0.000 A 
ATOM     25  C   UNL     1       2.146   5.305  19.805  0.00  0.00    +0.000 C 
ATOM     26  C   UNL     1       0.988   4.649  20.550  0.00  0.00    +0.000 C 
ATOM     27  C   UNL     1       1.393   3.268  21.049  0.00  0.00    +0.000 C 
ATOM     28  C   UNL     1       1.731   2.352  19.871  0.00  0.00    +0.000 C 
ENDBRANCH  18  19
ENDBRANCH  17  18
ENDBRANCH   4  17
TORSDOF 6
ENDMDL
MODEL 7
REMARK VINA RESULT:      -7.9      5.207      8.375
REMARK  Name = 
REMARK  6 active torsions:
REMARK  status: ('A' for Active; 'I' for Inactive)
REMARK    1  A    between atoms: C_2  and  C_3
REMARK    2  A    between atoms: C_3  and  S_4
REMARK    3  A    between atoms: S_4  and  C_5
REMARK    4  A    between atoms: C_8  and  C_9
REMARK    5  A    between atoms: C_9  and  O_10
REMARK    6  A    between atoms: O_10  and  C_11
REMARK                            x       y       z     vdW  Elec       q    Type
REMARK                         _______ _______ _______ _____ _____    ______ ____
ROOT
ATOM      1  C   UNL     1       1.883   3.917  18.867  0.00  0.00    +0.000 A 
ATOM      2  N   UNL     1       2.120   4.495  17.706  0.00  0.00    +0.000 NA
ATOM      3  N   UNL     1       2.271   5.841  17.960  0.00  0.00    +0.000 NA
ATOM      4  C   UNL     1       2.108   5.994  19.260  0.00  0.00    +0.000 A 
ATOM      5  O   UNL     1       1.824   4.815  19.897  0.00  0.00    +0.000 OA
ENDROOT
BRANCH   1   6
ATOM      6  S   UNL     1       1.720   2.208  19.094  0.00  0.00    +0.000 S 
BRANCH   6   7
ATOM      7  C   UNL     1       3.348   1.646  18.527  0.00  0.00    +0.000 C 
BRANCH   7   9
ATOM      8  O   UNL     1       4.961   2.404  20.113  0.00  0.00    +0.000 OA
ATOM      9  C   UNL     1       4.465   2.579  19.001  0.00  0.00    +0.000 C 
ATOM     10  N   UNL     1       4.832   3.520  18.069  0.00  0.00    +0.000 N 
ATOM     11  C   UNL     1       5.818   4.434  18.320  0.00  0.00    +0.000 A 
ATOM     12  N   UNL     1       6.421   4.711  19.448  0.00  0.00    +0.000 NA
ATOM     13  C   UNL     1       7.356   5.703  19.235  0.00  0.00    +0.000 A 
ATOM     14  C   UNL     1       7.468   6.145  17.933  0.00  0.00    +0.000 A 
ATOM     15  S   UNL     1       6.328   5.317  16.950  0.00  0.00    +0.000 S 
ATOM     16  H   UNL     1       4.360   3.599  17.175  0.00  0.00    +0.000 HD
ENDBRANCH   7   9
ENDBRANCH   6   7
ENDBRANCH   1   6
BRANCH   4  17
ATOM     17  C   UNL     1       2.081   7.232  20.075  0.00  0.00    +0.000 C 
BRANCH  17  18
ATOM     18  O   UNL     1       2.115   8.365  19.201  0.00  0.00    +0.000 OA
BRANCH  18  19
ATOM     19  C   UNL     1       1.116   9.289  19.397  0.00  0.00    +0.000 A 
ATOM     20  C   UNL     1       0.354   9.617  18.275  0.00  0.00    +0.000 A 
ATOM     21  C   UNL     1      -0.689  10.550  18.374  0.00  0.00    +0.000 A 
ATOM     22  C   UNL     1      -0.991  11.163  19.597  0.00  0.00    +0.000 A 
ATOM     23  C   UNL     1      -0.213  10.851  20.722  0.00  0.00    +0.000 A 
ATOM     24  C   UNL     1       0.823   9.909  20.614  0.00  0.00    +0.000 A 
ATOM     25  C   UNL     1      -0.493  11.458  22.076  0.00  0.00    +0.000 C 
ATOM     26  C   UNL     1      -1.362  12.710  22.011  0.00  0.00    +0.000 C 
ATOM     27  C   UNL     1      -2.558  12.478  21.098  0.00  0.00    +0.000 C 
ATOM     28  C   UNL     1      -2.093  12.193  19.668  0.00  0.00    +0.000 C 
ENDBRANCH  18  19
ENDBRANCH  17  18
ENDBRANCH   4  17
TORSDOF 6
ENDMDL
MODEL 8
REMARK VINA RESULT:      -7.8      3.249     10.022
REMARK  Name = 
REMARK  6 active torsions:
REMARK  status: ('A' for Active; 'I' for Inactive)
REMARK    1  A    between atoms: C_2  and  C_3
REMARK    2  A    between atoms: C_3  and  S_4
REMARK    3  A    between atoms: S_4  and  C_5
REMARK    4  A    between atoms: C_8  and  C_9
REMARK    5  A    between atoms: C_9  and  O_10
REMARK    6  A    between atoms: O_10  and  C_11
REMARK                            x       y       z     vdW  Elec       q    Type
REMARK                         _______ _______ _______ _____ _____    ______ ____
ROOT
ATOM      1  C   UNL     1       7.414   5.330  17.053  0.00  0.00    +0.000 A 
ATOM      2  N   UNL     1       7.583   4.564  18.113  0.00  0.00    +0.000 NA
ATOM      3  N   UNL     1       7.996   5.392  19.135  0.00  0.00    +0.000 NA
ATOM      4  C   UNL     1       8.058   6.607  18.625  0.00  0.00    +0.000 A 
ATOM      5  O   UNL     1       7.733   6.638  17.295  0.00  0.00    +0.000 OA
ENDROOT
BRANCH   1   6
ATOM      6  S   UNL     1       6.800   4.774  15.532  0.00  0.00    +0.000 S 
BRANCH   6   7
ATOM      7  C   UNL     1       5.204   5.632  15.489  0.00  0.00    +0.000 C 
BRANCH   7   9
ATOM      8  O   UNL     1       4.137   6.375  17.489  0.00  0.00    +0.000 OA
ATOM      9  C   UNL     1       4.407   5.409  16.777  0.00  0.00    +0.000 C 
ATOM     10  N   UNL     1       4.029   4.103  16.974  0.00  0.00    +0.000 N 
ATOM     11  C   UNL     1       3.307   3.721  18.071  0.00  0.00    +0.000 A 
ATOM     12  N   UNL     1       3.022   4.403  19.151  0.00  0.00    +0.000 NA
ATOM     13  C   UNL     1       2.263   3.621  19.998  0.00  0.00    +0.000 A 
ATOM     14  C   UNL     1       1.959   2.360  19.530  0.00  0.00    +0.000 A 
ATOM     15  S   UNL     1       2.688   2.132  17.991  0.00  0.00    +0.000 S 
ATOM     16  H   UNL     1       4.305   3.365  16.336  0.00  0.00    +0.000 HD
ENDBRANCH   7   9
ENDBRANCH   6   7
ENDBRANCH   1   6
BRANCH   4  17
ATOM     17  C   UNL     1       8.520   7.874  19.243  0.00  0.00    +0.000 C 
BRANCH  17  18
ATOM     18  O   UNL     1       8.488   8.910  18.255  0.00  0.00    +0.000 OA
BRANCH  18  19
ATOM     19  C   UNL     1       9.131  10.074  18.604  0.00  0.00    +0.000 A 
ATOM     20  C   UNL     1       9.290  10.302  19.972  0.00  0.00    +0.000 A 
ATOM     21  C   UNL     1       9.933  11.462  20.428  0.00  0.00    +0.000 A 
ATOM     22  C   UNL     1      10.434  12.408  19.525  0.00  0.00    +0.000 A 
ATOM     23  C   UNL     1      10.258  12.192  18.150  0.00  0.00    +0.000 A 
ATOM     24  C   UNL     1       9.621  11.022  17.704  0.00  0.00    +0.000 A 
ATOM     25  C   UNL     1      10.790  13.157  17.117  0.00  0.00    +0.000 C 
ATOM     26  C   UNL     1      11.118  14.533  17.688  0.00  0.00    +0.000 C 
ATOM     27  C   UNL     1      11.914  14.395  18.979  0.00  0.00    +0.000 C 
ATOM     28  C   UNL     1      11.089  13.666  20.041  0.00  0.00    +0.000 C 
ENDBRANCH  18  19
ENDBRANCH  17  18
ENDBRANCH   4  17
TORSDOF 6
ENDMDL
MODEL 9
REMARK VINA RESULT:      -7.8      8.102     10.533
REMARK  Name = 
REMARK  6 active torsions:
REMARK  status: ('A' for Active; 'I' for Inactive)
REMARK    1  A    between atoms: C_2  and  C_3
REMARK    2  A    between atoms: C_3  and  S_4
REMARK    3  A    between atoms: S_4  and  C_5
REMARK    4  A    between atoms: C_8  and  C_9
REMARK    5  A    between atoms: C_9  and  O_10
REMARK    6  A    between atoms: O_10  and  C_11
REMARK                            x       y       z     vdW  Elec       q    Type
REMARK                         _______ _______ _______ _____ _____    ______ ____
ROOT
ATOM      1  C   UNL     1      -0.790  11.531  21.878  0.00  0.00    +0.000 A 
ATOM      2  N   UNL     1      -0.937  11.271  23.162  0.00  0.00    +0.000 NA
ATOM      3  N   UNL     1      -0.144  10.177  23.436  0.00  0.00    +0.000 NA
ATOM      4  C   UNL     1       0.427   9.839  22.296  0.00  0.00    +0.000 A 
ATOM      5  O   UNL     1       0.036  10.636  21.254  0.00  0.00    +0.000 OA
ENDROOT
BRANCH   1   6
ATOM      6  S   UNL     1      -1.505  12.882  21.065  0.00  0.00    +0.000 S 
BRANCH   6   7
ATOM      7  C   UNL     1      -1.389  12.327  19.343  0.00  0.00    +0.000 C 
BRANCH   7   9
ATOM      8  O   UNL     1      -2.804  11.018  17.936  0.00  0.00    +0.000 OA
ATOM      9  C   UNL     1      -2.753  11.899  18.794  0.00  0.00    +0.000 C 
ATOM     10  N   UNL     1      -3.813  12.545  19.383  0.00  0.00    +0.000 N 
ATOM     11  C   UNL     1      -5.106  12.283  19.019  0.00  0.00    +0.000 A 
ATOM     12  N   UNL     1      -5.555  11.587  18.006  0.00  0.00    +0.000 NA
ATOM     13  C   UNL     1      -6.935  11.584  18.029  0.00  0.00    +0.000 A 
ATOM     14  C   UNL     1      -7.513  12.260  19.084  0.00  0.00    +0.000 A 
ATOM     15  S   UNL     1      -6.283  12.960  20.056  0.00  0.00    +0.000 S 
ATOM     16  H   UNL     1      -3.678  13.268  20.080  0.00  0.00    +0.000 HD
ENDBRANCH   7   9
ENDBRANCH   6   7
ENDBRANCH   1   6
BRANCH   4  17
ATOM     17  C   UNL     1       1.312   8.691  21.980  0.00  0.00    +0.000 C 
BRANCH  17  18
ATOM     18  O   UNL     1       1.584   8.688  20.574  0.00  0.00    +0.000 OA
BRANCH  18  19
ATOM     19  C   UNL     1       1.826   7.451  20.026  0.00  0.00    +0.000 A 
ATOM     20  C   UNL     1       2.436   7.443  18.771  0.00  0.00    +0.000 A 
ATOM     21  C   UNL     1       2.723   6.229  18.129  0.00  0.00    +0.000 A 
ATOM     22  C   UNL     1       2.413   5.005  18.735  0.00  0.00    +0.000 A 
ATOM     23  C   UNL     1       1.781   5.009  19.987  0.00  0.00    +0.000 A 
ATOM     24  C   UNL     1       1.505   6.230  20.625  0.00  0.00    +0.000 A 
ATOM     25  C   UNL     1       1.435   3.728  20.708  0.00  0.00    +0.000 C 
ATOM     26  C   UNL     1       1.427   2.505  19.799  0.00  0.00    +0.000 C 
ATOM     27  C   UNL     1       2.673   2.488  18.922  0.00  0.00    +0.000 C 
ATOM     28  C   UNL     1       2.698   3.714  18.006  0.00  0.00    +0.000 C 
ENDBRANCH  18  19
ENDBRANCH  17  18
ENDBRANCH   4  17
TORSDOF 6
ENDMDL
