MODEL 1
REMARK VINA RESULT:      -6.4      0.000      0.000
REMARK  Name = 
REMARK  6 active torsions:
REMARK  status: ('A' for Active; 'I' for Inactive)
REMARK    1  A    between atoms: C_1  and  O_2
REMARK    2  A    between atoms: O_2  and  C_3
REMARK    3  A    between atoms: C_3  and  C_4
REMARK    4  A    between atoms: C_4  and  C_5
REMARK    5  A    between atoms: C_5  and  N_6
REMARK    6  A    between atoms: C_20  and  C_21
REMARK                            x       y       z     vdW  Elec       q    Type
REMARK                         _______ _______ _______ _____ _____    ______ ____
ROOT
ATOM      1  N   UNL     1       2.231   4.639  17.436  0.00  0.00    +0.000 N 
ATOM      2  C   UNL     1       3.020   5.491  18.196  0.00  0.00    +0.000 C 
ATOM      3  O   UNL     1       4.074   5.043  18.665  0.00  0.00    +0.000 OA
ATOM      4  N   UNL     1       2.492   6.760  18.656  0.00  0.00    +0.000 N 
ATOM      5  C   UNL     1       2.749   6.803  20.101  0.00  0.00    +0.000 C 
ATOM      6  C   UNL     1       1.502   7.051  20.908  0.00  0.00    +0.000 C 
ATOM      7  C   UNL     1       1.396   8.532  21.204  0.00  0.00    +0.000 C 
ATOM      8  C   UNL     1      -0.056   8.883  21.038  0.00  0.00    +0.000 C 
ATOM      9  C   UNL     1      -0.262  10.360  21.180  0.00  0.00    +0.000 C 
ATOM     10  C   UNL     1      -0.856  10.847  19.870  0.00  0.00    +0.000 C 
ATOM     11  N   UNL     1       0.202  11.589  19.233  0.00  0.00    +0.000 N 
ATOM     12  C   UNL     1       1.404  11.048  18.681  0.00  0.00    +0.000 A 
ATOM     13  N   UNL     1       2.220  12.112  18.668  0.00  0.00    +0.000 NA
ATOM     14  N   UNL     1       1.652  13.217  19.299  0.00  0.00    +0.000 NA
ATOM     15  C   UNL     1       0.429  12.924  19.698  0.00  0.00    +0.000 A 
ATOM     16  C   UNL     1       1.932   9.614  17.953  0.00  0.00    +0.000 C 
ATOM     17  C   UNL     1       1.602   7.938  17.977  0.00  0.00    +0.000 C 
ATOM     18  H   UNL     1       1.710   5.114  16.715  0.00  0.00    +0.000 HD
ENDROOT
BRANCH  15  19
ATOM     19  C   UNL     1      -0.430  13.731  20.658  0.00  0.00    +0.000 A 
ATOM     20  C   UNL     1      -1.675  14.337  20.330  0.00  0.00    +0.000 A 
ATOM     21  C   UNL     1      -2.522  14.938  21.292  0.00  0.00    +0.000 A 
ATOM     22  C   UNL     1      -2.131  15.035  22.620  0.00  0.00    +0.000 A 
ATOM     23  F   UNL     1      -2.944  15.612  23.525  0.00  0.00    +0.000 F 
ATOM     24  C   UNL     1      -0.896  14.511  22.985  0.00  0.00    +0.000 A 
ATOM     25  C   UNL     1      -0.042  13.894  22.024  0.00  0.00    +0.000 A 
ENDBRANCH  15  19
BRANCH   1  26
ATOM     26  C   UNL     1       2.740   3.269  17.018  0.00  0.00    +0.000 C 
BRANCH  26  27
ATOM     27  C   UNL     1       2.826   2.058  18.005  0.00  0.00    +0.000 C 
BRANCH  27  28
ATOM     28  C   UNL     1       1.861   1.957  19.190  0.00  0.00    +0.000 C 
BRANCH  28  30
ATOM     29  C   UNL     1       1.089   3.532  20.782  0.00  0.00    +0.000 C 
ATOM     30  O   UNL     1       2.221   2.812  20.278  0.00  0.00    +0.000 OA
ENDBRANCH  28  30
ENDBRANCH  27  28
ENDBRANCH  26  27
ENDBRANCH   1  26
TORSDOF 5
ENDMDL
MODEL 2
REMARK VINA RESULT:      -6.4      1.805      2.250
REMARK  Name = 
REMARK  6 active torsions:
REMARK  status: ('A' for Active; 'I' for Inactive)
REMARK    1  A    between atoms: C_1  and  O_2
REMARK    2  A    between atoms: O_2  and  C_3
REMARK    3  A    between atoms: C_3  and  C_4
REMARK    4  A    between atoms: C_4  and  C_5
REMARK    5  A    between atoms: C_5  and  N_6
REMARK    6  A    between atoms: C_20  and  C_21
REMARK                            x       y       z     vdW  Elec       q    Type
REMARK                         _______ _______ _______ _____ _____    ______ ____
ROOT
ATOM      1  N   UNL     1       2.032   5.816  18.030  0.00  0.00    +0.000 N 
ATOM      2  C   UNL     1       2.591   6.642  18.995  0.00  0.00    +0.000 C 
ATOM      3  O   UNL     1       3.288   6.121  19.875  0.00  0.00    +0.000 OA
ATOM      4  N   UNL     1       2.142   8.013  19.131  0.00  0.00    +0.000 N 
ATOM      5  C   UNL     1       1.817   8.192  20.552  0.00  0.00    +0.000 C 
ATOM      6  C   UNL     1       0.413   8.691  20.771  0.00  0.00    +0.000 C 
ATOM      7  C   UNL     1       0.445  10.198  20.915  0.00  0.00    +0.000 C 
ATOM      8  C   UNL     1      -0.747  10.711  20.158  0.00  0.00    +0.000 C 
ATOM      9  C   UNL     1      -0.746  12.209  20.122  0.00  0.00    +0.000 C 
ATOM     10  C   UNL     1      -0.692  12.610  18.658  0.00  0.00    +0.000 C 
ATOM     11  N   UNL     1       0.636  13.131  18.462  0.00  0.00    +0.000 N 
ATOM     12  C   UNL     1       1.852  12.379  18.475  0.00  0.00    +0.000 A 
ATOM     13  N   UNL     1       2.772  13.320  18.732  0.00  0.00    +0.000 NA
ATOM     14  N   UNL     1       2.192  14.555  19.017  0.00  0.00    +0.000 NA
ATOM     15  C   UNL     1       0.880  14.471  18.904  0.00  0.00    +0.000 A 
ATOM     16  C   UNL     1       2.379  10.814  18.102  0.00  0.00    +0.000 C 
ATOM     17  C   UNL     1       1.795   9.209  18.085  0.00  0.00    +0.000 C 
ATOM     18  H   UNL     1       1.921   6.266  17.135  0.00  0.00    +0.000 HD
ENDROOT
BRANCH  15  19
ATOM     19  C   UNL     1      -0.140  15.488  19.389  0.00  0.00    +0.000 A 
ATOM     20  C   UNL     1      -0.568  15.637  20.738  0.00  0.00    +0.000 A 
ATOM     21  C   UNL     1      -1.392  16.701  21.178  0.00  0.00    +0.000 A 
ATOM     22  C   UNL     1      -1.898  17.626  20.275  0.00  0.00    +0.000 A 
ATOM     23  F   UNL     1      -2.684  18.631  20.704  0.00  0.00    +0.000 F 
ATOM     24  C   UNL     1      -1.559  17.492  18.933  0.00  0.00    +0.000 A 
ATOM     25  C   UNL     1      -0.719  16.430  18.485  0.00  0.00    +0.000 A 
ENDBRANCH  15  19
BRANCH   1  26
ATOM     26  C   UNL     1       2.432   4.352  17.931  0.00  0.00    +0.000 C 
BRANCH  26  27
ATOM     27  C   UNL     1       1.401   3.181  18.054  0.00  0.00    +0.000 C 
BRANCH  27  28
ATOM     28  C   UNL     1       0.865   2.765  19.428  0.00  0.00    +0.000 C 
BRANCH  28  30
ATOM     29  C   UNL     1       1.835   3.278  21.527  0.00  0.00    +0.000 C 
ATOM     30  O   UNL     1       1.055   3.768  20.429  0.00  0.00    +0.000 OA
ENDBRANCH  28  30
ENDBRANCH  27  28
ENDBRANCH  26  27
ENDBRANCH   1  26
TORSDOF 5
ENDMDL
MODEL 3
REMARK VINA RESULT:      -6.1      1.898      2.801
REMARK  Name = 
REMARK  6 active torsions:
REMARK  status: ('A' for Active; 'I' for Inactive)
REMARK    1  A    between atoms: C_1  and  O_2
REMARK    2  A    between atoms: O_2  and  C_3
REMARK    3  A    between atoms: C_3  and  C_4
REMARK    4  A    between atoms: C_4  and  C_5
REMARK    5  A    between atoms: C_5  and  N_6
REMARK    6  A    between atoms: C_20  and  C_21
REMARK                            x       y       z     vdW  Elec       q    Type
REMARK                         _______ _______ _______ _____ _____    ______ ____
ROOT
ATOM      1  N   UNL     1       1.945   5.576  18.124  0.00  0.00    +0.000 N 
ATOM      2  C   UNL     1       2.512   6.410  19.078  0.00  0.00    +0.000 C 
ATOM      3  O   UNL     1       3.187   5.891  19.976  0.00  0.00    +0.000 OA
ATOM      4  N   UNL     1       2.092   7.793  19.180  0.00  0.00    +0.000 N 
ATOM      5  C   UNL     1       1.755   8.009  20.593  0.00  0.00    +0.000 C 
ATOM      6  C   UNL     1       0.361   8.544  20.785  0.00  0.00    +0.000 C 
ATOM      7  C   UNL     1       0.425  10.052  20.899  0.00  0.00    +0.000 C 
ATOM      8  C   UNL     1      -0.747  10.575  20.117  0.00  0.00    +0.000 C 
ATOM      9  C   UNL     1      -0.711  12.072  20.050  0.00  0.00    +0.000 C 
ATOM     10  C   UNL     1      -0.631  12.442  18.579  0.00  0.00    +0.000 C 
ATOM     11  N   UNL     1       0.711  12.928  18.389  0.00  0.00    +0.000 N 
ATOM     12  C   UNL     1       1.908  12.150  18.431  0.00  0.00    +0.000 A 
ATOM     13  N   UNL     1       2.847  13.075  18.680  0.00  0.00    +0.000 NA
ATOM     14  N   UNL     1       2.292  14.329  18.932  0.00  0.00    +0.000 NA
ATOM     15  C   UNL     1       0.980  14.271  18.805  0.00  0.00    +0.000 A 
ATOM     16  C   UNL     1       2.404  10.566  18.097  0.00  0.00    +0.000 C 
ATOM     17  C   UNL     1       1.785   8.974  18.106  0.00  0.00    +0.000 C 
ATOM     18  H   UNL     1       1.854   6.010  17.218  0.00  0.00    +0.000 HD
ENDROOT
BRANCH  15  19
ATOM     19  C   UNL     1      -0.022  15.321  19.258  0.00  0.00    +0.000 A 
ATOM     20  C   UNL     1      -0.584  15.406  20.562  0.00  0.00    +0.000 A 
ATOM     21  C   UNL     1      -1.385  16.492  20.993  0.00  0.00    +0.000 A 
ATOM     22  C   UNL     1      -1.731  17.509  20.115  0.00  0.00    +0.000 A 
ATOM     23  F   UNL     1      -2.496  18.535  20.534  0.00  0.00    +0.000 F 
ATOM     24  C   UNL     1      -1.258  17.445  18.809  0.00  0.00    +0.000 A 
ATOM     25  C   UNL     1      -0.441  16.360  18.372  0.00  0.00    +0.000 A 
ENDBRANCH  15  19
BRANCH   1  26
ATOM     26  C   UNL     1       2.313   4.102  18.059  0.00  0.00    +0.000 C 
BRANCH  26  27
ATOM     27  C   UNL     1       3.724   3.599  17.608  0.00  0.00    +0.000 C 
BRANCH  27  28
ATOM     28  C   UNL     1       4.537   4.394  16.581  0.00  0.00    +0.000 C 
BRANCH  28  30
ATOM     29  C   UNL     1       5.052   6.677  16.212  0.00  0.00    +0.000 C 
ATOM     30  O   UNL     1       5.124   5.578  17.128  0.00  0.00    +0.000 OA
ENDBRANCH  28  30
ENDBRANCH  27  28
ENDBRANCH  26  27
ENDBRANCH   1  26
TORSDOF 5
ENDMDL
MODEL 4
REMARK VINA RESULT:      -5.9      1.919      2.296
REMARK  Name = 
REMARK  6 active torsions:
REMARK  status: ('A' for Active; 'I' for Inactive)
REMARK    1  A    between atoms: C_1  and  O_2
REMARK    2  A    between atoms: O_2  and  C_3
REMARK    3  A    between atoms: C_3  and  C_4
REMARK    4  A    between atoms: C_4  and  C_5
REMARK    5  A    between atoms: C_5  and  N_6
REMARK    6  A    between atoms: C_20  and  C_21
REMARK                            x       y       z     vdW  Elec       q    Type
REMARK                         _______ _______ _______ _____ _____    ______ ____
ROOT
ATOM      1  N   UNL     1       1.624   5.751  18.036  0.00  0.00    +0.000 N 
ATOM      2  C   UNL     1       2.313   6.548  18.939  0.00  0.00    +0.000 C 
ATOM      3  O   UNL     1       3.018   5.988  19.788  0.00  0.00    +0.000 OA
ATOM      4  N   UNL     1       1.995   7.957  19.062  0.00  0.00    +0.000 N 
ATOM      5  C   UNL     1       1.779   8.197  20.495  0.00  0.00    +0.000 C 
ATOM      6  C   UNL     1       0.441   8.824  20.786  0.00  0.00    +0.000 C 
ATOM      7  C   UNL     1       0.613  10.325  20.884  0.00  0.00    +0.000 C 
ATOM      8  C   UNL     1      -0.578  10.923  20.187  0.00  0.00    +0.000 C 
ATOM      9  C   UNL     1      -0.449  12.413  20.107  0.00  0.00    +0.000 C 
ATOM     10  C   UNL     1      -0.455  12.773  18.632  0.00  0.00    +0.000 C 
ATOM     11  N   UNL     1       0.898  13.170  18.338  0.00  0.00    +0.000 N 
ATOM     12  C   UNL     1       2.042  12.314  18.296  0.00  0.00    +0.000 A 
ATOM     13  N   UNL     1       3.055  13.176  18.468  0.00  0.00    +0.000 NA
ATOM     14  N   UNL     1       2.604  14.464  18.752  0.00  0.00    +0.000 NA
ATOM     15  C   UNL     1       1.285  14.493  18.723  0.00  0.00    +0.000 A 
ATOM     16  C   UNL     1       2.406  10.700  17.939  0.00  0.00    +0.000 C 
ATOM     17  C   UNL     1       1.686   9.153  18.005  0.00  0.00    +0.000 C 
ATOM     18  H   UNL     1       1.494   6.188  17.137  0.00  0.00    +0.000 HD
ENDROOT
BRANCH  15  19
ATOM     19  C   UNL     1       0.391  15.608  19.241  0.00  0.00    +0.000 A 
ATOM     20  C   UNL     1      -0.410  16.458  18.428  0.00  0.00    +0.000 A 
ATOM     21  C   UNL     1      -1.353  17.373  18.955  0.00  0.00    +0.000 A 
ATOM     22  C   UNL     1      -1.487  17.542  20.326  0.00  0.00    +0.000 A 
ATOM     23  F   UNL     1      -2.384  18.418  20.816  0.00  0.00    +0.000 F 
ATOM     24  C   UNL     1      -0.685  16.779  21.168  0.00  0.00    +0.000 A 
ATOM     25  C   UNL     1       0.259  15.846  20.643  0.00  0.00    +0.000 A 
ENDBRANCH  15  19
BRANCH   1  26
ATOM     26  C   UNL     1       1.888   4.256  17.955  0.00  0.00    +0.000 C 
BRANCH  26  27
ATOM     27  C   UNL     1       3.099   3.650  17.171  0.00  0.00    +0.000 C 
BRANCH  27  28
ATOM     28  C   UNL     1       4.124   2.769  17.892  0.00  0.00    +0.000 C 
BRANCH  28  30
ATOM     29  C   UNL     1       4.135   2.377  20.228  0.00  0.00    +0.000 C 
ATOM     30  O   UNL     1       3.556   2.017  18.968  0.00  0.00    +0.000 OA
ENDBRANCH  28  30
ENDBRANCH  27  28
ENDBRANCH  26  27
ENDBRANCH   1  26
TORSDOF 5
ENDMDL
MODEL 5
REMARK VINA RESULT:      -5.9      1.918      2.647
REMARK  Name = 
REMARK  6 active torsions:
REMARK  status: ('A' for Active; 'I' for Inactive)
REMARK    1  A    between atoms: C_1  and  O_2
REMARK    2  A    between atoms: O_2  and  C_3
REMARK    3  A    between atoms: C_3  and  C_4
REMARK    4  A    between atoms: C_4  and  C_5
REMARK    5  A    between atoms: C_5  and  N_6
REMARK    6  A    between atoms: C_20  and  C_21
REMARK                            x       y       z     vdW  Elec       q    Type
REMARK                         _______ _______ _______ _____ _____    ______ ____
ROOT
ATOM      1  N   UNL     1       1.761   5.770  18.248  0.00  0.00    +0.000 N 
ATOM      2  C   UNL     1       2.357   6.603  19.184  0.00  0.00    +0.000 C 
ATOM      3  O   UNL     1       3.015   6.081  20.092  0.00  0.00    +0.000 OA
ATOM      4  N   UNL     1       1.985   8.002  19.258  0.00  0.00    +0.000 N 
ATOM      5  C   UNL     1       1.658   8.259  20.666  0.00  0.00    +0.000 C 
ATOM      6  C   UNL     1       0.283   8.846  20.847  0.00  0.00    +0.000 C 
ATOM      7  C   UNL     1       0.400  10.353  20.929  0.00  0.00    +0.000 C 
ATOM      8  C   UNL     1      -0.755  10.900  20.137  0.00  0.00    +0.000 C 
ATOM      9  C   UNL     1      -0.668  12.392  20.039  0.00  0.00    +0.000 C 
ATOM     10  C   UNL     1      -0.577  12.728  18.561  0.00  0.00    +0.000 C 
ATOM     11  N   UNL     1       0.781  13.164  18.359  0.00  0.00    +0.000 N 
ATOM     12  C   UNL     1       1.951  12.346  18.416  0.00  0.00    +0.000 A 
ATOM     13  N   UNL     1       2.921  13.243  18.645  0.00  0.00    +0.000 NA
ATOM     14  N   UNL     1       2.410  14.520  18.872  0.00  0.00    +0.000 NA
ATOM     15  C   UNL     1       1.096  14.505  18.747  0.00  0.00    +0.000 A 
ATOM     16  C   UNL     1       2.391  10.739  18.116  0.00  0.00    +0.000 C 
ATOM     17  C   UNL     1       1.717   9.170  18.159  0.00  0.00    +0.000 C 
ATOM     18  H   UNL     1       1.683   6.187  17.333  0.00  0.00    +0.000 HD
ENDROOT
BRANCH  15  19
ATOM     19  C   UNL     1       0.132  15.598  19.177  0.00  0.00    +0.000 A 
ATOM     20  C   UNL     1      -0.446  16.568  18.310  0.00  0.00    +0.000 A 
ATOM     21  C   UNL     1      -1.464  17.463  18.716  0.00  0.00    +0.000 A 
ATOM     22  C   UNL     1      -1.901  17.490  20.033  0.00  0.00    +0.000 A 
ATOM     23  F   UNL     1      -2.868  18.349  20.408  0.00  0.00    +0.000 F 
ATOM     24  C   UNL     1      -1.328  16.604  20.938  0.00  0.00    +0.000 A 
ATOM     25  C   UNL     1      -0.310  15.690  20.533  0.00  0.00    +0.000 A 
ENDBRANCH  15  19
BRANCH   1  26
ATOM     26  C   UNL     1       2.077   4.283  18.214  0.00  0.00    +0.000 C 
BRANCH  26  27
ATOM     27  C   UNL     1       2.811   3.599  17.013  0.00  0.00    +0.000 C 
BRANCH  27  28
ATOM     28  C   UNL     1       4.281   3.919  16.722  0.00  0.00    +0.000 C 
BRANCH  28  30
ATOM     29  C   UNL     1       5.885   4.586  18.332  0.00  0.00    +0.000 C 
ATOM     30  O   UNL     1       4.785   4.999  17.512  0.00  0.00    +0.000 OA
ENDBRANCH  28  30
ENDBRANCH  27  28
ENDBRANCH  26  27
ENDBRANCH   1  26
TORSDOF 5
ENDMDL
MODEL 6
REMARK VINA RESULT:      -5.5      2.009      2.999
REMARK  Name = 
REMARK  6 active torsions:
REMARK  status: ('A' for Active; 'I' for Inactive)
REMARK    1  A    between atoms: C_1  and  O_2
REMARK    2  A    between atoms: O_2  and  C_3
REMARK    3  A    between atoms: C_3  and  C_4
REMARK    4  A    between atoms: C_4  and  C_5
REMARK    5  A    between atoms: C_5  and  N_6
REMARK    6  A    between atoms: C_20  and  C_21
REMARK                            x       y       z     vdW  Elec       q    Type
REMARK                         _______ _______ _______ _____ _____    ______ ____
ROOT
ATOM      1  N   UNL     1       3.478   5.062  17.111  0.00  0.00    +0.000 N 
ATOM      2  C   UNL     1       3.964   5.915  18.092  0.00  0.00    +0.000 C 
ATOM      3  O   UNL     1       5.009   5.596  18.674  0.00  0.00    +0.000 OA
ATOM      4  N   UNL     1       3.133   6.984  18.609  0.00  0.00    +0.000 N 
ATOM      5  C   UNL     1       3.167   6.850  20.071  0.00  0.00    +0.000 C 
ATOM      6  C   UNL     1       1.793   6.745  20.679  0.00  0.00    +0.000 C 
ATOM      7  C   UNL     1       1.351   8.120  21.133  0.00  0.00    +0.000 C 
ATOM      8  C   UNL     1      -0.103   8.227  20.768  0.00  0.00    +0.000 C 
ATOM      9  C   UNL     1      -0.619   9.604  21.054  0.00  0.00    +0.000 C 
ATOM     10  C   UNL     1      -1.106  10.171  19.732  0.00  0.00    +0.000 C 
ATOM     11  N   UNL     1      -0.139  11.179  19.380  0.00  0.00    +0.000 N 
ATOM     12  C   UNL     1       1.213  10.953  18.977  0.00  0.00    +0.000 A 
ATOM     13  N   UNL     1       1.793  12.135  19.232  0.00  0.00    +0.000 NA
ATOM     14  N   UNL     1       0.930  13.010  19.889  0.00  0.00    +0.000 NA
ATOM     15  C   UNL     1      -0.253  12.446  20.037  0.00  0.00    +0.000 A 
ATOM     16  C   UNL     1       2.116   9.766  18.177  0.00  0.00    +0.000 C 
ATOM     17  C   UNL     1       2.130   8.074  17.939  0.00  0.00    +0.000 C 
ATOM     18  H   UNL     1       2.981   5.542  16.376  0.00  0.00    +0.000 HD
ENDROOT
BRANCH  15  19
ATOM     19  C   UNL     1      -1.384  12.930  20.930  0.00  0.00    +0.000 A 
ATOM     20  C   UNL     1      -1.350  12.951  22.353  0.00  0.00    +0.000 A 
ATOM     21  C   UNL     1      -2.353  13.560  23.144  0.00  0.00    +0.000 A 
ATOM     22  C   UNL     1      -3.484  14.109  22.555  0.00  0.00    +0.000 A 
ATOM     23  F   UNL     1      -4.434  14.683  23.318  0.00  0.00    +0.000 F 
ATOM     24  C   UNL     1      -3.597  14.063  21.170  0.00  0.00    +0.000 A 
ATOM     25  C   UNL     1      -2.584  13.461  20.366  0.00  0.00    +0.000 A 
ENDBRANCH  15  19
BRANCH   1  26
ATOM     26  C   UNL     1       4.307   3.886  16.620  0.00  0.00    +0.000 C 
BRANCH  26  27
ATOM     27  C   UNL     1       5.459   4.039  15.571  0.00  0.00    +0.000 C 
BRANCH  27  28
ATOM     28  C   UNL     1       6.859   4.469  16.019  0.00  0.00    +0.000 C 
BRANCH  28  30
ATOM     29  C   UNL     1       7.136   4.823  13.693  0.00  0.00    +0.000 C 
ATOM     30  O   UNL     1       7.574   5.185  15.008  0.00  0.00    +0.000 OA
ENDBRANCH  28  30
ENDBRANCH  27  28
ENDBRANCH  26  27
ENDBRANCH   1  26
TORSDOF 5
ENDMDL
MODEL 7
REMARK VINA RESULT:      -5.4      5.317     10.029
REMARK  Name = 
REMARK  6 active torsions:
REMARK  status: ('A' for Active; 'I' for Inactive)
REMARK    1  A    between atoms: C_1  and  O_2
REMARK    2  A    between atoms: O_2  and  C_3
REMARK    3  A    between atoms: C_3  and  C_4
REMARK    4  A    between atoms: C_4  and  C_5
REMARK    5  A    between atoms: C_5  and  N_6
REMARK    6  A    between atoms: C_20  and  C_21
REMARK                            x       y       z     vdW  Elec       q    Type
REMARK                         _______ _______ _______ _____ _____    ______ ____
ROOT
ATOM      1  N   UNL     1      -4.977  14.637  22.685  0.00  0.00    +0.000 N 
ATOM      2  C   UNL     1      -3.599  14.799  22.670  0.00  0.00    +0.000 C 
ATOM      3  O   UNL     1      -3.148  15.948  22.770  0.00  0.00    +0.000 OA
ATOM      4  N   UNL     1      -2.738  13.705  22.267  0.00  0.00    +0.000 N 
ATOM      5  C   UNL     1      -1.844  14.253  21.240  0.00  0.00    +0.000 C 
ATOM      6  C   UNL     1      -1.881  13.468  19.955  0.00  0.00    +0.000 C 
ATOM      7  C   UNL     1      -0.744  12.467  19.959  0.00  0.00    +0.000 C 
ATOM      8  C   UNL     1      -1.308  11.202  19.375  0.00  0.00    +0.000 C 
ATOM      9  C   UNL     1      -0.302  10.093  19.449  0.00  0.00    +0.000 C 
ATOM     10  C   UNL     1      -0.925   8.994  20.292  0.00  0.00    +0.000 C 
ATOM     11  N   UNL     1      -0.202   9.022  21.537  0.00  0.00    +0.000 N 
ATOM     12  C   UNL     1      -0.262  10.048  22.529  0.00  0.00    +0.000 A 
ATOM     13  N   UNL     1       0.884   9.868  23.202  0.00  0.00    +0.000 NA
ATOM     14  N   UNL     1       1.696   8.906  22.604  0.00  0.00    +0.000 NA
ATOM     15  C   UNL     1       1.084   8.393  21.554  0.00  0.00    +0.000 A 
ATOM     16  C   UNL     1      -1.375  11.180  23.117  0.00  0.00    +0.000 C 
ATOM     17  C   UNL     1      -2.702  12.109  22.576  0.00  0.00    +0.000 C 
ATOM     18  H   UNL     1      -5.271  13.759  23.085  0.00  0.00    +0.000 HD
ENDROOT
BRANCH  15  19
ATOM     19  C   UNL     1       1.711   7.531  20.470  0.00  0.00    +0.000 A 
ATOM     20  C   UNL     1       1.781   6.110  20.494  0.00  0.00    +0.000 A 
ATOM     21  C   UNL     1       2.222   5.337  19.393  0.00  0.00    +0.000 A 
ATOM     22  C   UNL     1       2.693   5.949  18.240  0.00  0.00    +0.000 A 
ATOM     23  F   UNL     1       3.114   5.203  17.201  0.00  0.00    +0.000 F 
ATOM     24  C   UNL     1       2.703   7.338  18.185  0.00  0.00    +0.000 A 
ATOM     25  C   UNL     1       2.248   8.124  19.286  0.00  0.00    +0.000 A 
ENDBRANCH  15  19
BRANCH   1  26
ATOM     26  C   UNL     1      -5.897  15.799  23.023  0.00  0.00    +0.000 C 
BRANCH  26  27
ATOM     27  C   UNL     1      -7.146  16.172  22.158  0.00  0.00    +0.000 C 
BRANCH  27  28
ATOM     28  C   UNL     1      -7.338  15.553  20.770  0.00  0.00    +0.000 C 
BRANCH  28  30
ATOM     29  C   UNL     1      -6.036  14.096  19.430  0.00  0.00    +0.000 C 
ATOM     30  O   UNL     1      -6.109  15.381  20.059  0.00  0.00    +0.000 OA
ENDBRANCH  28  30
ENDBRANCH  27  28
ENDBRANCH  26  27
ENDBRANCH   1  26
TORSDOF 5
ENDMDL
MODEL 8
REMARK VINA RESULT:      -5.3      1.516      2.189
REMARK  Name = 
REMARK  6 active torsions:
REMARK  status: ('A' for Active; 'I' for Inactive)
REMARK    1  A    between atoms: C_1  and  O_2
REMARK    2  A    between atoms: O_2  and  C_3
REMARK    3  A    between atoms: C_3  and  C_4
REMARK    4  A    between atoms: C_4  and  C_5
REMARK    5  A    between atoms: C_5  and  N_6
REMARK    6  A    between atoms: C_20  and  C_21
REMARK                            x       y       z     vdW  Elec       q    Type
REMARK                         _______ _______ _______ _____ _____    ______ ____
ROOT
ATOM      1  N   UNL     1       2.023   5.425  17.864  0.00  0.00    +0.000 N 
ATOM      2  C   UNL     1       2.710   6.217  18.773  0.00  0.00    +0.000 C 
ATOM      3  O   UNL     1       3.558   5.673  19.493  0.00  0.00    +0.000 OA
ATOM      4  N   UNL     1       2.251   7.560  19.066  0.00  0.00    +0.000 N 
ATOM      5  C   UNL     1       2.162   7.646  20.529  0.00  0.00    +0.000 C 
ATOM      6  C   UNL     1       0.800   8.078  21.005  0.00  0.00    +0.000 C 
ATOM      7  C   UNL     1       0.813   9.575  21.236  0.00  0.00    +0.000 C 
ATOM      8  C   UNL     1      -0.502  10.083  20.717  0.00  0.00    +0.000 C 
ATOM      9  C   UNL     1      -0.550  11.580  20.774  0.00  0.00    +0.000 C 
ATOM     10  C   UNL     1      -0.750  12.065  19.349  0.00  0.00    +0.000 C 
ATOM     11  N   UNL     1       0.512  12.646  18.971  0.00  0.00    +0.000 N 
ATOM     12  C   UNL     1       1.733  11.941  18.737  0.00  0.00    +0.000 A 
ATOM     13  N   UNL     1       2.657  12.901  18.898  0.00  0.00    +0.000 NA
ATOM     14  N   UNL     1       2.097  14.095  19.350  0.00  0.00    +0.000 NA
ATOM     15  C   UNL     1       0.788  13.967  19.448  0.00  0.00    +0.000 A 
ATOM     16  C   UNL     1       2.235  10.421  18.188  0.00  0.00    +0.000 C 
ATOM     17  C   UNL     1       1.702   8.798  18.167  0.00  0.00    +0.000 C 
ATOM     18  H   UNL     1       1.751   5.921  17.029  0.00  0.00    +0.000 HD
ENDROOT
BRANCH  15  19
ATOM     19  C   UNL     1      -0.165  14.916  20.156  0.00  0.00    +0.000 A 
ATOM     20  C   UNL     1      -1.073  15.800  19.506  0.00  0.00    +0.000 A 
ATOM     21  C   UNL     1      -2.058  16.545  20.196  0.00  0.00    +0.000 A 
ATOM     22  C   UNL     1      -2.134  16.508  21.582  0.00  0.00    +0.000 A 
ATOM     23  F   UNL     1      -3.073  17.225  22.228  0.00  0.00    +0.000 F 
ATOM     24  C   UNL     1      -1.232  15.706  22.272  0.00  0.00    +0.000 A 
ATOM     25  C   UNL     1      -0.244  14.943  21.582  0.00  0.00    +0.000 A 
ENDBRANCH  15  19
BRANCH   1  26
ATOM     26  C   UNL     1       2.441   3.986  17.610  0.00  0.00    +0.000 C 
BRANCH  26  27
ATOM     27  C   UNL     1       3.910   3.482  17.806  0.00  0.00    +0.000 C 
BRANCH  27  28
ATOM     28  C   UNL     1       5.032   4.000  16.901  0.00  0.00    +0.000 C 
BRANCH  28  30
ATOM     29  C   UNL     1       5.635   6.246  16.454  0.00  0.00    +0.000 C 
ATOM     30  O   UNL     1       4.684   5.203  16.211  0.00  0.00    +0.000 OA
ENDBRANCH  28  30
ENDBRANCH  27  28
ENDBRANCH  26  27
ENDBRANCH   1  26
TORSDOF 5
ENDMDL
MODEL 9
REMARK VINA RESULT:      -5.3      2.290      3.631
REMARK  Name = 
REMARK  6 active torsions:
REMARK  status: ('A' for Active; 'I' for Inactive)
REMARK    1  A    between atoms: C_1  and  O_2
REMARK    2  A    between atoms: O_2  and  C_3
REMARK    3  A    between atoms: C_3  and  C_4
REMARK    4  A    between atoms: C_4  and  C_5
REMARK    5  A    between atoms: C_5  and  N_6
REMARK    6  A    between atoms: C_20  and  C_21
REMARK                            x       y       z     vdW  Elec       q    Type
REMARK                         _______ _______ _______ _____ _____    ______ ____
ROOT
ATOM      1  N   UNL     1       4.229   5.654  18.842  0.00  0.00    +0.000 N 
ATOM      2  C   UNL     1       2.855   5.812  18.719  0.00  0.00    +0.000 C 
ATOM      3  O   UNL     1       2.237   4.995  18.023  0.00  0.00    +0.000 OA
ATOM      4  N   UNL     1       2.219   7.041  19.148  0.00  0.00    +0.000 N 
ATOM      5  C   UNL     1       1.400   7.488  18.014  0.00  0.00    +0.000 C 
ATOM      6  C   UNL     1       1.717   8.896  17.584  0.00  0.00    +0.000 C 
ATOM      7  C   UNL     1       0.743   9.844  18.253  0.00  0.00    +0.000 C 
ATOM      8  C   UNL     1       1.552  11.041  18.666  0.00  0.00    +0.000 C 
ATOM      9  C   UNL     1       0.714  11.997  19.459  0.00  0.00    +0.000 C 
ATOM     10  C   UNL     1       1.370  12.126  20.823  0.00  0.00    +0.000 C 
ATOM     11  N   UNL     1       0.492  11.430  21.727  0.00  0.00    +0.000 N 
ATOM     12  C   UNL     1       0.275  10.018  21.780  0.00  0.00    +0.000 A 
ATOM     13  N   UNL     1      -0.913   9.931  22.397  0.00  0.00    +0.000 NA
ATOM     14  N   UNL     1      -1.494  11.182  22.593  0.00  0.00    +0.000 NA
ATOM     15  C   UNL     1      -0.683  12.126  22.157  0.00  0.00    +0.000 A 
ATOM     16  C   UNL     1       1.129   8.591  21.464  0.00  0.00    +0.000 C 
ATOM     17  C   UNL     1       2.370   8.010  20.444  0.00  0.00    +0.000 C 
ATOM     18  H   UNL     1       4.589   5.975  19.728  0.00  0.00    +0.000 HD
ENDROOT
BRANCH  15  19
ATOM     19  C   UNL     1      -1.032  13.587  21.925  0.00  0.00    +0.000 A 
ATOM     20  C   UNL     1      -1.954  14.063  20.949  0.00  0.00    +0.000 A 
ATOM     21  C   UNL     1      -2.376  15.411  20.874  0.00  0.00    +0.000 A 
ATOM     22  C   UNL     1      -1.838  16.372  21.719  0.00  0.00    +0.000 A 
ATOM     23  F   UNL     1      -2.245  17.652  21.636  0.00  0.00    +0.000 F 
ATOM     24  C   UNL     1      -0.889  15.973  22.653  0.00  0.00    +0.000 A 
ATOM     25  C   UNL     1      -0.467  14.613  22.743  0.00  0.00    +0.000 A 
ENDBRANCH  15  19
BRANCH   1  26
ATOM     26  C   UNL     1       4.921   4.405  18.320  0.00  0.00    +0.000 C 
BRANCH  26  27
ATOM     27  C   UNL     1       5.557   4.323  16.892  0.00  0.00    +0.000 C 
BRANCH  27  28
ATOM     28  C   UNL     1       7.048   4.610  16.692  0.00  0.00    +0.000 C 
BRANCH  28  30
ATOM     29  C   UNL     1       6.938   4.822  14.335  0.00  0.00    +0.000 C 
ATOM     30  O   UNL     1       7.309   5.454  15.567  0.00  0.00    +0.000 OA
ENDBRANCH  28  30
ENDBRANCH  27  28
ENDBRANCH  26  27
ENDBRANCH   1  26
TORSDOF 5
ENDMDL
