MODEL 1
REMARK VINA RESULT:      -7.1      0.000      0.000
REMARK  Name = 
REMARK  4 active torsions:
REMARK  status: ('A' for Active; 'I' for Inactive)
REMARK    1  A    between atoms: C_1  and  C_2
REMARK    2  A    between atoms: C_2  and  C_14
REMARK    3  A    between atoms: N_3  and  N_4
REMARK    4  A    between atoms: C_17  and  O_18
REMARK                            x       y       z     vdW  Elec       q    Type
REMARK                         _______ _______ _______ _____ _____    ______ ____
ROOT
ATOM      1  N   UNL     1       2.651   6.025  20.215  0.00  0.00    +0.000 N 
ATOM      2  C   UNL     1       1.822   7.121  20.341  0.00  0.00    +0.000 C 
ATOM      3  O   UNL     1       1.004   7.172  21.253  0.00  0.00    +0.000 OA
ATOM      4  N   UNL     1       2.004   8.053  19.345  0.00  0.00    +0.000 N 
ATOM      5  C   UNL     1       1.374   9.246  19.149  0.00  0.00    +0.000 A 
ATOM      6  N   UNL     1       1.381   9.820  17.988  0.00  0.00    +0.000 NA
ATOM      7  N   UNL     1       0.650  10.973  18.065  0.00  0.00    +0.000 N 
ATOM      8  C   UNL     1       0.097  11.295  19.276  0.00  0.00    +0.000 A 
ATOM      9  S   UNL     1      -0.849  12.626  19.547  0.00  0.00    +0.000 S 
ATOM     10  S   UNL     1       0.551  10.078  20.431  0.00  0.00    +0.000 S 
ATOM     11  H   UNL     1       2.524   5.313  20.920  0.00  0.00    +0.000 HD
ATOM     12  H   UNL     1       2.548   7.692  18.574  0.00  0.00    +0.000 HD
ATOM     13  H   UNL     1       0.484  11.517  17.224  0.00  0.00    +0.000 HD
ENDROOT
BRANCH   1  16
ATOM     14  C   UNL     1       2.209   4.476  17.849  0.00  0.00    +0.000 C 
ATOM     15  C   UNL     1       3.463   5.260  18.195  0.00  0.00    +0.000 C 
ATOM     16  N   UNL     1       3.635   5.969  19.277  0.00  0.00    +0.000 NA
BRANCH  15  17
ATOM     17  C   UNL     1       4.599   5.203  17.205  0.00  0.00    +0.000 A 
ATOM     18  C   UNL     1       4.736   4.146  16.292  0.00  0.00    +0.000 A 
ATOM     19  C   UNL     1       5.812   4.111  15.398  0.00  0.00    +0.000 A 
ATOM     20  C   UNL     1       6.752   5.135  15.415  0.00  0.00    +0.000 A 
ATOM     21  C   UNL     1       6.634   6.193  16.309  0.00  0.00    +0.000 A 
ATOM     22  C   UNL     1       5.562   6.222  17.205  0.00  0.00    +0.000 A 
BRANCH  20  23
ATOM     23  O   UNL     1       7.817   5.138  14.565  0.00  0.00    +0.000 OA
ATOM     24  H   UNL     1       8.134   6.050  14.462  0.00  0.00    +0.000 HD
ENDBRANCH  20  23
ENDBRANCH  15  17
ENDBRANCH   1  16
TORSDOF 3
ENDMDL
MODEL 2
REMARK VINA RESULT:      -7.1      0.243      1.091
REMARK  Name = 
REMARK  4 active torsions:
REMARK  status: ('A' for Active; 'I' for Inactive)
REMARK    1  A    between atoms: C_1  and  C_2
REMARK    2  A    between atoms: C_2  and  C_14
REMARK    3  A    between atoms: N_3  and  N_4
REMARK    4  A    between atoms: C_17  and  O_18
REMARK                            x       y       z     vdW  Elec       q    Type
REMARK                         _______ _______ _______ _____ _____    ______ ____
ROOT
ATOM      1  N   UNL     1       2.791   6.031  20.179  0.00  0.00    +0.000 N 
ATOM      2  C   UNL     1       1.912   7.087  20.309  0.00  0.00    +0.000 C 
ATOM      3  O   UNL     1       1.101   7.102  21.228  0.00  0.00    +0.000 OA
ATOM      4  N   UNL     1       2.039   8.022  19.307  0.00  0.00    +0.000 N 
ATOM      5  C   UNL     1       1.351   9.182  19.113  0.00  0.00    +0.000 A 
ATOM      6  N   UNL     1       1.319   9.751  17.949  0.00  0.00    +0.000 NA
ATOM      7  N   UNL     1       0.535  10.868  18.029  0.00  0.00    +0.000 N 
ATOM      8  C   UNL     1      -0.022  11.168  19.244  0.00  0.00    +0.000 A 
ATOM      9  S   UNL     1      -1.028  12.453  19.519  0.00  0.00    +0.000 S 
ATOM     10  S   UNL     1       0.501   9.979  20.400  0.00  0.00    +0.000 S 
ATOM     11  H   UNL     1       2.705   5.316  20.888  0.00  0.00    +0.000 HD
ATOM     12  H   UNL     1       2.592   7.684  18.532  0.00  0.00    +0.000 HD
ATOM     13  H   UNL     1       0.334  11.400  17.187  0.00  0.00    +0.000 HD
ENDROOT
BRANCH   1  16
ATOM     14  C   UNL     1       2.590   4.161  18.021  0.00  0.00    +0.000 C 
ATOM     15  C   UNL     1       3.706   5.167  18.244  0.00  0.00    +0.000 C 
ATOM     16  N   UNL     1       3.768   6.018  19.231  0.00  0.00    +0.000 NA
BRANCH  15  17
ATOM     17  C   UNL     1       4.832   5.170  17.242  0.00  0.00    +0.000 A 
ATOM     18  C   UNL     1       5.939   6.023  17.371  0.00  0.00    +0.000 A 
ATOM     19  C   UNL     1       6.959   6.017  16.413  0.00  0.00    +0.000 A 
ATOM     20  C   UNL     1       6.875   5.155  15.325  0.00  0.00    +0.000 A 
ATOM     21  C   UNL     1       5.789   4.300  15.179  0.00  0.00    +0.000 A 
ATOM     22  C   UNL     1       4.768   4.313  16.134  0.00  0.00    +0.000 A 
BRANCH  20  23
ATOM     23  O   UNL     1       7.844   5.119  14.368  0.00  0.00    +0.000 OA
ATOM     24  H   UNL     1       7.998   4.196  14.111  0.00  0.00    +0.000 HD
ENDBRANCH  20  23
ENDBRANCH  15  17
ENDBRANCH   1  16
TORSDOF 3
ENDMDL
MODEL 3
REMARK VINA RESULT:      -6.9      2.848      3.740
REMARK  Name = 
REMARK  4 active torsions:
REMARK  status: ('A' for Active; 'I' for Inactive)
REMARK    1  A    between atoms: C_1  and  C_2
REMARK    2  A    between atoms: C_2  and  C_14
REMARK    3  A    between atoms: N_3  and  N_4
REMARK    4  A    between atoms: C_17  and  O_18
REMARK                            x       y       z     vdW  Elec       q    Type
REMARK                         _______ _______ _______ _____ _____    ______ ____
ROOT
ATOM      1  N   UNL     1       2.590   8.248  17.718  0.00  0.00    +0.000 N 
ATOM      2  C   UNL     1       1.914   9.163  18.499  0.00  0.00    +0.000 C 
ATOM      3  O   UNL     1       1.807  10.327  18.130  0.00  0.00    +0.000 OA
ATOM      4  N   UNL     1       1.454   8.629  19.681  0.00  0.00    +0.000 N 
ATOM      5  C   UNL     1       0.751   9.224  20.686  0.00  0.00    +0.000 A 
ATOM      6  N   UNL     1       0.722   8.709  21.874  0.00  0.00    +0.000 NA
ATOM      7  N   UNL     1      -0.019   9.523  22.686  0.00  0.00    +0.000 N 
ATOM      8  C   UNL     1      -0.568  10.647  22.128  0.00  0.00    +0.000 A 
ATOM      9  S   UNL     1      -1.457  11.766  22.963  0.00  0.00    +0.000 S 
ATOM     10  S   UNL     1      -0.160  10.682  20.439  0.00  0.00    +0.000 S 
ATOM     11  H   UNL     1       2.960   8.618  16.854  0.00  0.00    +0.000 HD
ATOM     12  H   UNL     1       1.866   7.729  19.884  0.00  0.00    +0.000 HD
ATOM     13  H   UNL     1      -0.087   9.314  23.677  0.00  0.00    +0.000 HD
ENDROOT
BRANCH   1  16
ATOM     14  C   UNL     1       4.773   6.686  16.723  0.00  0.00    +0.000 C 
ATOM     15  C   UNL     1       3.630   6.191  17.593  0.00  0.00    +0.000 C 
ATOM     16  N   UNL     1       2.652   6.928  18.044  0.00  0.00    +0.000 NA
BRANCH  15  17
ATOM     17  C   UNL     1       3.631   4.727  17.953  0.00  0.00    +0.000 A 
ATOM     18  C   UNL     1       4.431   4.217  18.987  0.00  0.00    +0.000 A 
ATOM     19  C   UNL     1       4.425   2.850  19.285  0.00  0.00    +0.000 A 
ATOM     20  C   UNL     1       3.615   1.991  18.551  0.00  0.00    +0.000 A 
ATOM     21  C   UNL     1       2.813   2.475  17.525  0.00  0.00    +0.000 A 
ATOM     22  C   UNL     1       2.826   3.840  17.225  0.00  0.00    +0.000 A 
BRANCH  20  23
ATOM     23  O   UNL     1       3.581   0.653  18.805  0.00  0.00    +0.000 OA
ATOM     24  H   UNL     1       3.377   0.181  17.982  0.00  0.00    +0.000 HD
ENDBRANCH  20  23
ENDBRANCH  15  17
ENDBRANCH   1  16
TORSDOF 3
ENDMDL
MODEL 4
REMARK VINA RESULT:      -6.9      2.854      3.858
REMARK  Name = 
REMARK  4 active torsions:
REMARK  status: ('A' for Active; 'I' for Inactive)
REMARK    1  A    between atoms: C_1  and  C_2
REMARK    2  A    between atoms: C_2  and  C_14
REMARK    3  A    between atoms: N_3  and  N_4
REMARK    4  A    between atoms: C_17  and  O_18
REMARK                            x       y       z     vdW  Elec       q    Type
REMARK                         _______ _______ _______ _____ _____    ______ ____
ROOT
ATOM      1  N   UNL     1       2.339   8.792  17.842  0.00  0.00    +0.000 N 
ATOM      2  C   UNL     1       1.704   9.712  18.652  0.00  0.00    +0.000 C 
ATOM      3  O   UNL     1       1.745  10.905  18.377  0.00  0.00    +0.000 OA
ATOM      4  N   UNL     1       1.105   9.140  19.751  0.00  0.00    +0.000 N 
ATOM      5  C   UNL     1       0.393   9.728  20.754  0.00  0.00    +0.000 A 
ATOM      6  N   UNL     1       0.223   9.128  21.890  0.00  0.00    +0.000 NA
ATOM      7  N   UNL     1      -0.488   9.951  22.718  0.00  0.00    +0.000 N 
ATOM      8  C   UNL     1      -0.877  11.168  22.222  0.00  0.00    +0.000 A 
ATOM      9  S   UNL     1      -1.706  12.308  23.090  0.00  0.00    +0.000 S 
ATOM     10  S   UNL     1      -0.342  11.290  20.573  0.00  0.00    +0.000 S 
ATOM     11  H   UNL     1       2.809   9.187  17.039  0.00  0.00    +0.000 HD
ATOM     12  H   UNL     1       1.407   8.187  19.903  0.00  0.00    +0.000 HD
ATOM     13  H   UNL     1      -0.651   9.674  23.680  0.00  0.00    +0.000 HD
ENDROOT
BRANCH   1  16
ATOM     14  C   UNL     1       4.566   7.124  17.169  0.00  0.00    +0.000 C 
ATOM     15  C   UNL     1       3.237   6.668  17.747  0.00  0.00    +0.000 C 
ATOM     16  N   UNL     1       2.241   7.452  18.057  0.00  0.00    +0.000 NA
BRANCH  15  17
ATOM     17  C   UNL     1       3.063   5.188  17.971  0.00  0.00    +0.000 A 
ATOM     18  C   UNL     1       1.819   4.555  17.822  0.00  0.00    +0.000 A 
ATOM     19  C   UNL     1       1.685   3.182  18.057  0.00  0.00    +0.000 A 
ATOM     20  C   UNL     1       2.796   2.439  18.439  0.00  0.00    +0.000 A 
ATOM     21  C   UNL     1       4.038   3.045  18.590  0.00  0.00    +0.000 A 
ATOM     22  C   UNL     1       4.167   4.418  18.361  0.00  0.00    +0.000 A 
BRANCH  20  23
ATOM     23  O   UNL     1       2.709   1.101  18.681  0.00  0.00    +0.000 OA
ATOM     24  H   UNL     1       3.551   0.793  19.053  0.00  0.00    +0.000 HD
ENDBRANCH  20  23
ENDBRANCH  15  17
ENDBRANCH   1  16
TORSDOF 3
ENDMDL
MODEL 5
REMARK VINA RESULT:      -6.9      1.347      1.490
REMARK  Name = 
REMARK  4 active torsions:
REMARK  status: ('A' for Active; 'I' for Inactive)
REMARK    1  A    between atoms: C_1  and  C_2
REMARK    2  A    between atoms: C_2  and  C_14
REMARK    3  A    between atoms: N_3  and  N_4
REMARK    4  A    between atoms: C_17  and  O_18
REMARK                            x       y       z     vdW  Elec       q    Type
REMARK                         _______ _______ _______ _____ _____    ______ ____
ROOT
ATOM      1  N   UNL     1       3.194   4.541  19.722  0.00  0.00    +0.000 N 
ATOM      2  C   UNL     1       2.367   5.530  20.216  0.00  0.00    +0.000 C 
ATOM      3  O   UNL     1       1.605   5.287  21.144  0.00  0.00    +0.000 OA
ATOM      4  N   UNL     1       2.484   6.720  19.536  0.00  0.00    +0.000 N 
ATOM      5  C   UNL     1       1.837   7.902  19.741  0.00  0.00    +0.000 A 
ATOM      6  N   UNL     1       1.771   8.796  18.806  0.00  0.00    +0.000 NA
ATOM      7  N   UNL     1       1.039   9.857  19.264  0.00  0.00    +0.000 N 
ATOM      8  C   UNL     1       0.557   9.789  20.544  0.00  0.00    +0.000 A 
ATOM      9  S   UNL     1      -0.379  10.956  21.252  0.00  0.00    +0.000 S 
ATOM     10  S   UNL     1       1.086   8.294  21.256  0.00  0.00    +0.000 S 
ATOM     11  H   UNL     1       3.113   3.648  20.188  0.00  0.00    +0.000 HD
ATOM     12  H   UNL     1       2.983   6.619  18.663  0.00  0.00    +0.000 HD
ATOM     13  H   UNL     1       0.820  10.623  18.635  0.00  0.00    +0.000 HD
ENDROOT
BRANCH   1  16
ATOM     14  C   UNL     1       2.817   3.399  17.124  0.00  0.00    +0.000 C 
ATOM     15  C   UNL     1       3.979   4.272  17.569  0.00  0.00    +0.000 C 
ATOM     16  N   UNL     1       4.121   4.790  18.758  0.00  0.00    +0.000 NA
BRANCH  15  17
ATOM     17  C   UNL     1       5.053   4.550  16.548  0.00  0.00    +0.000 A 
ATOM     18  C   UNL     1       5.095   3.885  15.313  0.00  0.00    +0.000 A 
ATOM     19  C   UNL     1       6.116   4.151  14.394  0.00  0.00    +0.000 A 
ATOM     20  C   UNL     1       7.096   5.085  14.708  0.00  0.00    +0.000 A 
ATOM     21  C   UNL     1       7.072   5.758  15.924  0.00  0.00    +0.000 A 
ATOM     22  C   UNL     1       6.054   5.485  16.843  0.00  0.00    +0.000 A 
BRANCH  20  23
ATOM     23  O   UNL     1       8.109   5.372  13.844  0.00  0.00    +0.000 OA
ATOM     24  H   UNL     1       8.498   6.228  14.087  0.00  0.00    +0.000 HD
ENDBRANCH  20  23
ENDBRANCH  15  17
ENDBRANCH   1  16
TORSDOF 3
ENDMDL
MODEL 6
REMARK VINA RESULT:      -6.9      1.656      2.075
REMARK  Name = 
REMARK  4 active torsions:
REMARK  status: ('A' for Active; 'I' for Inactive)
REMARK    1  A    between atoms: C_1  and  C_2
REMARK    2  A    between atoms: C_2  and  C_14
REMARK    3  A    between atoms: N_3  and  N_4
REMARK    4  A    between atoms: C_17  and  O_18
REMARK                            x       y       z     vdW  Elec       q    Type
REMARK                         _______ _______ _______ _____ _____    ______ ____
ROOT
ATOM      1  N   UNL     1       1.433   7.168  21.192  0.00  0.00    +0.000 N 
ATOM      2  C   UNL     1       0.939   8.456  21.152  0.00  0.00    +0.000 C 
ATOM      3  O   UNL     1       0.273   8.889  22.086  0.00  0.00    +0.000 OA
ATOM      4  N   UNL     1       1.240   9.114  19.982  0.00  0.00    +0.000 N 
ATOM      5  C   UNL     1       0.925  10.382  19.594  0.00  0.00    +0.000 A 
ATOM      6  N   UNL     1       0.947  10.721  18.344  0.00  0.00    +0.000 NA
ATOM      7  N   UNL     1       0.556  12.027  18.238  0.00  0.00    +0.000 N 
ATOM      8  C   UNL     1       0.250  12.695  19.394  0.00  0.00    +0.000 A 
ATOM      9  S   UNL     1      -0.279  14.262  19.456  0.00  0.00    +0.000 S 
ATOM     10  S   UNL     1       0.501  11.619  20.736  0.00  0.00    +0.000 S 
ATOM     11  H   UNL     1       1.207   6.653  22.031  0.00  0.00    +0.000 HD
ATOM     12  H   UNL     1       1.578   8.488  19.264  0.00  0.00    +0.000 HD
ATOM     13  H   UNL     1       0.441  12.442  17.318  0.00  0.00    +0.000 HD
ENDROOT
BRANCH   1  16
ATOM     14  C   UNL     1       1.557   4.336  20.794  0.00  0.00    +0.000 C 
ATOM     15  C   UNL     1       2.337   5.392  20.029  0.00  0.00    +0.000 C 
ATOM     16  N   UNL     1       2.253   6.680  20.223  0.00  0.00    +0.000 NA
BRANCH  15  17
ATOM     17  C   UNL     1       3.287   4.902  18.966  0.00  0.00    +0.000 A 
ATOM     18  C   UNL     1       2.850   4.138  17.874  0.00  0.00    +0.000 A 
ATOM     19  C   UNL     1       3.760   3.681  16.913  0.00  0.00    +0.000 A 
ATOM     20  C   UNL     1       5.109   3.989  17.044  0.00  0.00    +0.000 A 
ATOM     21  C   UNL     1       5.563   4.747  18.117  0.00  0.00    +0.000 A 
ATOM     22  C   UNL     1       4.653   5.197  19.078  0.00  0.00    +0.000 A 
BRANCH  20  23
ATOM     23  O   UNL     1       6.028   3.562  16.135  0.00  0.00    +0.000 OA
ATOM     24  H   UNL     1       6.335   4.322  15.615  0.00  0.00    +0.000 HD
ENDBRANCH  20  23
ENDBRANCH  15  17
ENDBRANCH   1  16
TORSDOF 3
ENDMDL
MODEL 7
REMARK VINA RESULT:      -6.8      1.358      1.824
REMARK  Name = 
REMARK  4 active torsions:
REMARK  status: ('A' for Active; 'I' for Inactive)
REMARK    1  A    between atoms: C_1  and  C_2
REMARK    2  A    between atoms: C_2  and  C_14
REMARK    3  A    between atoms: N_3  and  N_4
REMARK    4  A    between atoms: C_17  and  O_18
REMARK                            x       y       z     vdW  Elec       q    Type
REMARK                         _______ _______ _______ _____ _____    ______ ____
ROOT
ATOM      1  N   UNL     1       3.203   4.526  19.754  0.00  0.00    +0.000 N 
ATOM      2  C   UNL     1       2.362   5.510  20.235  0.00  0.00    +0.000 C 
ATOM      3  O   UNL     1       1.578   5.259  21.142  0.00  0.00    +0.000 OA
ATOM      4  N   UNL     1       2.493   6.705  19.566  0.00  0.00    +0.000 N 
ATOM      5  C   UNL     1       1.838   7.885  19.764  0.00  0.00    +0.000 A 
ATOM      6  N   UNL     1       1.793   8.786  18.834  0.00  0.00    +0.000 NA
ATOM      7  N   UNL     1       1.048   9.841  19.281  0.00  0.00    +0.000 N 
ATOM      8  C   UNL     1       0.535   9.763  20.549  0.00  0.00    +0.000 A 
ATOM      9  S   UNL     1      -0.421  10.923  21.243  0.00  0.00    +0.000 S 
ATOM     10  S   UNL     1       1.049   8.264  21.263  0.00  0.00    +0.000 S 
ATOM     11  H   UNL     1       3.112   3.630  20.211  0.00  0.00    +0.000 HD
ATOM     12  H   UNL     1       3.013   6.611  18.705  0.00  0.00    +0.000 HD
ATOM     13  H   UNL     1       0.843  10.611  18.653  0.00  0.00    +0.000 HD
ENDROOT
BRANCH   1  16
ATOM     14  C   UNL     1       2.857   3.459  17.120  0.00  0.00    +0.000 C 
ATOM     15  C   UNL     1       4.024   4.299  17.609  0.00  0.00    +0.000 C 
ATOM     16  N   UNL     1       4.152   4.785  18.814  0.00  0.00    +0.000 NA
BRANCH  15  17
ATOM     17  C   UNL     1       5.122   4.585  16.617  0.00  0.00    +0.000 A 
ATOM     18  C   UNL     1       6.196   5.435  16.922  0.00  0.00    +0.000 A 
ATOM     19  C   UNL     1       7.191   5.697  15.972  0.00  0.00    +0.000 A 
ATOM     20  C   UNL     1       7.113   5.106  14.716  0.00  0.00    +0.000 A 
ATOM     21  C   UNL     1       6.059   4.259  14.394  0.00  0.00    +0.000 A 
ATOM     22  C   UNL     1       5.064   4.005  15.342  0.00  0.00    +0.000 A 
BRANCH  20  23
ATOM     23  O   UNL     1       8.057   5.336  13.761  0.00  0.00    +0.000 OA
ATOM     24  H   UNL     1       8.009   4.632  13.095  0.00  0.00    +0.000 HD
ENDBRANCH  20  23
ENDBRANCH  15  17
ENDBRANCH   1  16
TORSDOF 3
ENDMDL
MODEL 8
REMARK VINA RESULT:      -6.8      1.121      1.208
REMARK  Name = 
REMARK  4 active torsions:
REMARK  status: ('A' for Active; 'I' for Inactive)
REMARK    1  A    between atoms: C_1  and  C_2
REMARK    2  A    between atoms: C_2  and  C_14
REMARK    3  A    between atoms: N_3  and  N_4
REMARK    4  A    between atoms: C_17  and  O_18
REMARK                            x       y       z     vdW  Elec       q    Type
REMARK                         _______ _______ _______ _____ _____    ______ ____
ROOT
ATOM      1  N   UNL     1       1.889   6.506  20.772  0.00  0.00    +0.000 N 
ATOM      2  C   UNL     1       1.197   7.699  20.715  0.00  0.00    +0.000 C 
ATOM      3  O   UNL     1       0.254   7.899  21.471  0.00  0.00    +0.000 OA
ATOM      4  N   UNL     1       1.659   8.543  19.732  0.00  0.00    +0.000 N 
ATOM      5  C   UNL     1       1.228   9.790  19.388  0.00  0.00    +0.000 A 
ATOM      6  N   UNL     1       1.500  10.292  18.225  0.00  0.00    +0.000 NA
ATOM      7  N   UNL     1       0.920  11.527  18.134  0.00  0.00    +0.000 N 
ATOM      8  C   UNL     1       0.220  11.981  19.220  0.00  0.00    +0.000 A 
ATOM      9  S   UNL     1      -0.580  13.429  19.277  0.00  0.00    +0.000 S 
ATOM     10  S   UNL     1       0.317  10.787  20.480  0.00  0.00    +0.000 S 
ATOM     11  H   UNL     1       1.557   5.855  21.471  0.00  0.00    +0.000 HD
ATOM     12  H   UNL     1       2.272   8.076  19.078  0.00  0.00    +0.000 HD
ATOM     13  H   UNL     1       0.966  12.038  17.258  0.00  0.00    +0.000 HD
ENDROOT
BRANCH   1  16
ATOM     14  C   UNL     1       1.846   4.366  18.870  0.00  0.00    +0.000 C 
ATOM     15  C   UNL     1       3.010   5.301  19.153  0.00  0.00    +0.000 C 
ATOM     16  N   UNL     1       2.999   6.278  20.019  0.00  0.00    +0.000 NA
BRANCH  15  17
ATOM     17  C   UNL     1       4.277   5.070  18.370  0.00  0.00    +0.000 A 
ATOM     18  C   UNL     1       4.257   4.625  17.040  0.00  0.00    +0.000 A 
ATOM     19  C   UNL     1       5.451   4.401  16.345  0.00  0.00    +0.000 A 
ATOM     20  C   UNL     1       6.667   4.624  16.980  0.00  0.00    +0.000 A 
ATOM     21  C   UNL     1       6.710   5.068  18.297  0.00  0.00    +0.000 A 
ATOM     22  C   UNL     1       5.516   5.285  18.990  0.00  0.00    +0.000 A 
BRANCH  20  23
ATOM     23  O   UNL     1       7.853   4.416  16.343  0.00  0.00    +0.000 OA
ATOM     24  H   UNL     1       8.091   3.477  16.419  0.00  0.00    +0.000 HD
ENDBRANCH  20  23
ENDBRANCH  15  17
ENDBRANCH   1  16
TORSDOF 3
ENDMDL
MODEL 9
REMARK VINA RESULT:      -6.8      1.550      2.158
REMARK  Name = 
REMARK  4 active torsions:
REMARK  status: ('A' for Active; 'I' for Inactive)
REMARK    1  A    between atoms: C_1  and  C_2
REMARK    2  A    between atoms: C_2  and  C_14
REMARK    3  A    between atoms: N_3  and  N_4
REMARK    4  A    between atoms: C_17  and  O_18
REMARK                            x       y       z     vdW  Elec       q    Type
REMARK                         _______ _______ _______ _____ _____    ______ ____
ROOT
ATOM      1  N   UNL     1       1.587   7.382  21.022  0.00  0.00    +0.000 N 
ATOM      2  C   UNL     1       0.997   8.627  21.106  0.00  0.00    +0.000 C 
ATOM      3  O   UNL     1       0.389   8.952  22.119  0.00  0.00    +0.000 OA
ATOM      4  N   UNL     1       1.143   9.371  19.958  0.00  0.00    +0.000 N 
ATOM      5  C   UNL     1       0.701  10.631  19.680  0.00  0.00    +0.000 A 
ATOM      6  N   UNL     1       0.584  11.041  18.457  0.00  0.00    +0.000 NA
ATOM      7  N   UNL     1       0.090  12.316  18.468  0.00  0.00    +0.000 N 
ATOM      8  C   UNL     1      -0.159  12.890  19.686  0.00  0.00    +0.000 A 
ATOM      9  S   UNL     1      -0.794  14.405  19.893  0.00  0.00    +0.000 S 
ATOM     10  S   UNL     1       0.291  11.763  20.931  0.00  0.00    +0.000 S 
ATOM     11  H   UNL     1       1.476   6.803  21.843  0.00  0.00    +0.000 HD
ATOM     12  H   UNL     1       1.459   8.816  19.175  0.00  0.00    +0.000 HD
ATOM     13  H   UNL     1      -0.138  12.771  17.590  0.00  0.00    +0.000 HD
ENDROOT
BRANCH   1  16
ATOM     14  C   UNL     1       1.638   4.625  20.250  0.00  0.00    +0.000 C 
ATOM     15  C   UNL     1       2.400   5.763  19.592  0.00  0.00    +0.000 C 
ATOM     16  N   UNL     1       2.349   7.015  19.956  0.00  0.00    +0.000 NA
BRANCH  15  17
ATOM     17  C   UNL     1       3.288   5.406  18.427  0.00  0.00    +0.000 A 
ATOM     18  C   UNL     1       4.007   6.378  17.715  0.00  0.00    +0.000 A 
ATOM     19  C   UNL     1       4.808   6.017  16.626  0.00  0.00    +0.000 A 
ATOM     20  C   UNL     1       4.893   4.682  16.249  0.00  0.00    +0.000 A 
ATOM     21  C   UNL     1       4.192   3.702  16.942  0.00  0.00    +0.000 A 
ATOM     22  C   UNL     1       3.387   4.066  18.025  0.00  0.00    +0.000 A 
BRANCH  20  23
ATOM     23  O   UNL     1       5.658   4.287  15.193  0.00  0.00    +0.000 OA
ATOM     24  H   UNL     1       6.474   3.881  15.529  0.00  0.00    +0.000 HD
ENDBRANCH  20  23
ENDBRANCH  15  17
ENDBRANCH   1  16
TORSDOF 3
ENDMDL
