MODEL 1
REMARK VINA RESULT:      -7.9      0.000      0.000
REMARK  Name = 
REMARK  2 active torsions:
REMARK  status: ('A' for Active; 'I' for Inactive)
REMARK    1  A    between atoms: C_1  and  C_2
REMARK    2  A    between atoms: C_11  and  C_12
REMARK                            x       y       z     vdW  Elec       q    Type
REMARK                         _______ _______ _______ _____ _____    ______ ____
ROOT
ATOM      1  C   UNL     1       1.922   3.649  21.202  0.00  0.00    +0.000 C 
ATOM      2  C   UNL     1       2.539   3.805  19.843  0.00  0.00    +0.000 A 
ATOM      3  C   UNL     1       1.808   3.541  18.676  0.00  0.00    +0.000 A 
ATOM      4  C   UNL     1       2.407   3.656  17.418  0.00  0.00    +0.000 A 
ATOM      5  C   UNL     1       3.743   4.040  17.310  0.00  0.00    +0.000 A 
ATOM      6  C   UNL     1       4.475   4.295  18.470  0.00  0.00    +0.000 A 
ATOM      7  C   UNL     1       3.877   4.193  19.730  0.00  0.00    +0.000 A 
ATOM      8  C   UNL     1       5.910   4.604  18.351  0.00  0.00    +0.000 C 
ATOM      9  O   UNL     1       6.577   4.919  19.331  0.00  0.00    +0.000 OA
ATOM     10  C   UNL     1       6.507   4.402  16.994  0.00  0.00    +0.000 C 
ATOM     11  C   UNL     1       5.489   4.856  15.959  0.00  0.00    +0.000 C 
ATOM     12  O   UNL     1       4.270   4.093  16.045  0.00  0.00    +0.000 OA
ENDROOT
BRANCH  11  13
ATOM     13  C   UNL     1       6.120   4.708  14.582  0.00  0.00    +0.000 A 
ATOM     14  C   UNL     1       5.604   3.824  13.636  0.00  0.00    +0.000 A 
ATOM     15  C   UNL     1       6.296   3.630  12.443  0.00  0.00    +0.000 A 
ATOM     16  C   UNL     1       7.482   4.320  12.222  0.00  0.00    +0.000 A 
ATOM     17  C   UNL     1       7.923   5.189  13.204  0.00  0.00    +0.000 A 
ATOM     18  N   UNL     1       7.274   5.394  14.372  0.00  0.00    +0.000 NA
ENDBRANCH  11  13
TORSDOF 1
ENDMDL
MODEL 2
REMARK VINA RESULT:      -7.6      2.106      6.259
REMARK  Name = 
REMARK  2 active torsions:
REMARK  status: ('A' for Active; 'I' for Inactive)
REMARK    1  A    between atoms: C_1  and  C_2
REMARK    2  A    between atoms: C_11  and  C_12
REMARK                            x       y       z     vdW  Elec       q    Type
REMARK                         _______ _______ _______ _____ _____    ______ ____
ROOT
ATOM      1  C   UNL     1       8.010   5.183  13.315  0.00  0.00    +0.000 C 
ATOM      2  C   UNL     1       6.973   4.778  14.320  0.00  0.00    +0.000 A 
ATOM      3  C   UNL     1       5.684   4.395  13.922  0.00  0.00    +0.000 A 
ATOM      4  C   UNL     1       4.716   4.054  14.873  0.00  0.00    +0.000 A 
ATOM      5  C   UNL     1       5.026   4.088  16.232  0.00  0.00    +0.000 A 
ATOM      6  C   UNL     1       6.305   4.476  16.630  0.00  0.00    +0.000 A 
ATOM      7  C   UNL     1       7.280   4.807  15.683  0.00  0.00    +0.000 A 
ATOM      8  C   UNL     1       6.593   4.604  18.069  0.00  0.00    +0.000 C 
ATOM      9  O   UNL     1       7.722   4.858  18.473  0.00  0.00    +0.000 OA
ATOM     10  C   UNL     1       5.408   4.511  18.978  0.00  0.00    +0.000 C 
ATOM     11  C   UNL     1       4.473   3.445  18.427  0.00  0.00    +0.000 C 
ATOM     12  O   UNL     1       4.014   3.777  17.103  0.00  0.00    +0.000 OA
ENDROOT
BRANCH  11  13
ATOM     13  C   UNL     1       3.299   3.308  19.386  0.00  0.00    +0.000 A 
ATOM     14  C   UNL     1       2.064   3.895  19.113  0.00  0.00    +0.000 A 
ATOM     15  C   UNL     1       1.065   3.851  20.083  0.00  0.00    +0.000 A 
ATOM     16  C   UNL     1       1.321   3.226  21.297  0.00  0.00    +0.000 A 
ATOM     17  C   UNL     1       2.567   2.656  21.488  0.00  0.00    +0.000 A 
ATOM     18  N   UNL     1       3.555   2.687  20.566  0.00  0.00    +0.000 NA
ENDBRANCH  11  13
TORSDOF 1
ENDMDL
MODEL 3
REMARK VINA RESULT:      -7.4      0.736      1.169
REMARK  Name = 
REMARK  2 active torsions:
REMARK  status: ('A' for Active; 'I' for Inactive)
REMARK    1  A    between atoms: C_1  and  C_2
REMARK    2  A    between atoms: C_11  and  C_12
REMARK                            x       y       z     vdW  Elec       q    Type
REMARK                         _______ _______ _______ _____ _____    ______ ____
ROOT
ATOM      1  C   UNL     1       1.784   3.259  21.147  0.00  0.00    +0.000 C 
ATOM      2  C   UNL     1       2.444   3.420  19.810  0.00  0.00    +0.000 A 
ATOM      3  C   UNL     1       1.795   3.040  18.627  0.00  0.00    +0.000 A 
ATOM      4  C   UNL     1       2.438   3.162  17.390  0.00  0.00    +0.000 A 
ATOM      5  C   UNL     1       3.735   3.669  17.322  0.00  0.00    +0.000 A 
ATOM      6  C   UNL     1       4.385   4.040  18.498  0.00  0.00    +0.000 A 
ATOM      7  C   UNL     1       3.743   3.931  19.736  0.00  0.00    +0.000 A 
ATOM      8  C   UNL     1       5.789   4.481  18.426  0.00  0.00    +0.000 C 
ATOM      9  O   UNL     1       6.378   4.897  19.417  0.00  0.00    +0.000 OA
ATOM     10  C   UNL     1       6.464   4.283  17.104  0.00  0.00    +0.000 C 
ATOM     11  C   UNL     1       5.455   4.595  16.009  0.00  0.00    +0.000 C 
ATOM     12  O   UNL     1       4.311   3.722  16.079  0.00  0.00    +0.000 OA
ENDROOT
BRANCH  11  13
ATOM     13  C   UNL     1       6.159   4.454  14.668  0.00  0.00    +0.000 A 
ATOM     14  C   UNL     1       7.254   5.251  14.332  0.00  0.00    +0.000 A 
ATOM     15  C   UNL     1       7.777   5.173  13.043  0.00  0.00    +0.000 A 
ATOM     16  C   UNL     1       7.199   4.307  12.124  0.00  0.00    +0.000 A 
ATOM     17  C   UNL     1       6.123   3.540  12.536  0.00  0.00    +0.000 A 
ATOM     18  N   UNL     1       5.593   3.598  13.778  0.00  0.00    +0.000 NA
ENDBRANCH  11  13
TORSDOF 1
ENDMDL
MODEL 4
REMARK VINA RESULT:      -7.3      2.076      6.269
REMARK  Name = 
REMARK  2 active torsions:
REMARK  status: ('A' for Active; 'I' for Inactive)
REMARK    1  A    between atoms: C_1  and  C_2
REMARK    2  A    between atoms: C_11  and  C_12
REMARK                            x       y       z     vdW  Elec       q    Type
REMARK                         _______ _______ _______ _____ _____    ______ ____
ROOT
ATOM      1  C   UNL     1       7.926   5.199  13.211  0.00  0.00    +0.000 C 
ATOM      2  C   UNL     1       6.970   4.831  14.307  0.00  0.00    +0.000 A 
ATOM      3  C   UNL     1       5.733   4.236  14.025  0.00  0.00    +0.000 A 
ATOM      4  C   UNL     1       4.836   3.932  15.054  0.00  0.00    +0.000 A 
ATOM      5  C   UNL     1       5.168   4.216  16.379  0.00  0.00    +0.000 A 
ATOM      6  C   UNL     1       6.395   4.815  16.661  0.00  0.00    +0.000 A 
ATOM      7  C   UNL     1       7.300   5.111  15.636  0.00  0.00    +0.000 A 
ATOM      8  C   UNL     1       6.695   5.201  18.051  0.00  0.00    +0.000 C 
ATOM      9  O   UNL     1       7.790   5.652  18.364  0.00  0.00    +0.000 OA
ATOM     10  C   UNL     1       5.550   5.107  19.011  0.00  0.00    +0.000 C 
ATOM     11  C   UNL     1       4.748   3.861  18.668  0.00  0.00    +0.000 C 
ATOM     12  O   UNL     1       4.222   3.923  17.328  0.00  0.00    +0.000 OA
ENDROOT
BRANCH  11  13
ATOM     13  C   UNL     1       3.621   3.733  19.682  0.00  0.00    +0.000 A 
ATOM     14  C   UNL     1       3.562   2.661  20.573  0.00  0.00    +0.000 A 
ATOM     15  C   UNL     1       2.441   2.522  21.389  0.00  0.00    +0.000 A 
ATOM     16  C   UNL     1       1.412   3.450  21.299  0.00  0.00    +0.000 A 
ATOM     17  C   UNL     1       1.551   4.493  20.400  0.00  0.00    +0.000 A 
ATOM     18  N   UNL     1       2.624   4.650  19.593  0.00  0.00    +0.000 NA
ENDBRANCH  11  13
TORSDOF 1
ENDMDL
MODEL 5
REMARK VINA RESULT:      -7.2      1.988      2.126
REMARK  Name = 
REMARK  2 active torsions:
REMARK  status: ('A' for Active; 'I' for Inactive)
REMARK    1  A    between atoms: C_1  and  C_2
REMARK    2  A    between atoms: C_11  and  C_12
REMARK                            x       y       z     vdW  Elec       q    Type
REMARK                         _______ _______ _______ _____ _____    ______ ____
ROOT
ATOM      1  C   UNL     1       1.561   6.880  20.870  0.00  0.00    +0.000 C 
ATOM      2  C   UNL     1       2.401   6.691  19.642  0.00  0.00    +0.000 A 
ATOM      3  C   UNL     1       2.545   7.713  18.693  0.00  0.00    +0.000 A 
ATOM      4  C   UNL     1       3.303   7.509  17.535  0.00  0.00    +0.000 A 
ATOM      5  C   UNL     1       3.928   6.283  17.313  0.00  0.00    +0.000 A 
ATOM      6  C   UNL     1       3.780   5.262  18.252  0.00  0.00    +0.000 A 
ATOM      7  C   UNL     1       3.033   5.464  19.417  0.00  0.00    +0.000 A 
ATOM      8  C   UNL     1       4.362   3.940  17.962  0.00  0.00    +0.000 C 
ATOM      9  O   UNL     1       4.333   3.036  18.790  0.00  0.00    +0.000 OA
ATOM     10  C   UNL     1       4.882   3.751  16.572  0.00  0.00    +0.000 C 
ATOM     11  C   UNL     1       5.551   5.047  16.139  0.00  0.00    +0.000 C 
ATOM     12  O   UNL     1       4.621   6.148  16.138  0.00  0.00    +0.000 OA
ENDROOT
BRANCH  11  13
ATOM     13  C   UNL     1       6.134   4.834  14.749  0.00  0.00    +0.000 A 
ATOM     14  C   UNL     1       5.581   3.912  13.861  0.00  0.00    +0.000 A 
ATOM     15  C   UNL     1       6.231   3.661  12.655  0.00  0.00    +0.000 A 
ATOM     16  C   UNL     1       7.412   4.332  12.364  0.00  0.00    +0.000 A 
ATOM     17  C   UNL     1       7.890   5.241  13.291  0.00  0.00    +0.000 A 
ATOM     18  N   UNL     1       7.283   5.501  14.470  0.00  0.00    +0.000 NA
ENDBRANCH  11  13
TORSDOF 1
ENDMDL
MODEL 6
REMARK VINA RESULT:      -6.9      5.534      8.349
REMARK  Name = 
REMARK  2 active torsions:
REMARK  status: ('A' for Active; 'I' for Inactive)
REMARK    1  A    between atoms: C_1  and  C_2
REMARK    2  A    between atoms: C_11  and  C_12
REMARK                            x       y       z     vdW  Elec       q    Type
REMARK                         _______ _______ _______ _____ _____    ______ ____
ROOT
ATOM      1  C   UNL     1       3.557   3.355  17.653  0.00  0.00    +0.000 C 
ATOM      2  C   UNL     1       2.995   4.428  18.540  0.00  0.00    +0.000 A 
ATOM      3  C   UNL     1       2.503   4.133  19.818  0.00  0.00    +0.000 A 
ATOM      4  C   UNL     1       1.949   5.137  20.619  0.00  0.00    +0.000 A 
ATOM      5  C   UNL     1       1.885   6.449  20.153  0.00  0.00    +0.000 A 
ATOM      6  C   UNL     1       2.368   6.744  18.878  0.00  0.00    +0.000 A 
ATOM      7  C   UNL     1       2.933   5.746  18.078  0.00  0.00    +0.000 A 
ATOM      8  C   UNL     1       2.207   8.112  18.356  0.00  0.00    +0.000 C 
ATOM      9  O   UNL     1       2.688   8.444  17.278  0.00  0.00    +0.000 OA
ATOM     10  C   UNL     1       1.336   9.018  19.169  0.00  0.00    +0.000 C 
ATOM     11  C   UNL     1       1.604   8.735  20.639  0.00  0.00    +0.000 C 
ATOM     12  O   UNL     1       1.295   7.370  20.980  0.00  0.00    +0.000 OA
ENDROOT
BRANCH  11  13
ATOM     13  C   UNL     1       0.765   9.699  21.464  0.00  0.00    +0.000 A 
ATOM     14  C   UNL     1       0.026   9.264  22.564  0.00  0.00    +0.000 A 
ATOM     15  C   UNL     1      -0.828  10.161  23.203  0.00  0.00    +0.000 A 
ATOM     16  C   UNL     1      -0.924  11.464  22.732  0.00  0.00    +0.000 A 
ATOM     17  C   UNL     1      -0.149  11.823  21.644  0.00  0.00    +0.000 A 
ATOM     18  N   UNL     1       0.684  10.974  21.003  0.00  0.00    +0.000 NA
ENDBRANCH  11  13
TORSDOF 1
ENDMDL
MODEL 7
REMARK VINA RESULT:      -6.9      4.606      7.309
REMARK  Name = 
REMARK  2 active torsions:
REMARK  status: ('A' for Active; 'I' for Inactive)
REMARK    1  A    between atoms: C_1  and  C_2
REMARK    2  A    between atoms: C_11  and  C_12
REMARK                            x       y       z     vdW  Elec       q    Type
REMARK                         _______ _______ _______ _____ _____    ______ ____
ROOT
ATOM      1  C   UNL     1       3.582   1.448  18.416  0.00  0.00    +0.000 C 
ATOM      2  C   UNL     1       3.049   2.717  19.012  0.00  0.00    +0.000 A 
ATOM      3  C   UNL     1       2.229   2.700  20.149  0.00  0.00    +0.000 A 
ATOM      4  C   UNL     1       1.710   3.889  20.673  0.00  0.00    +0.000 A 
ATOM      5  C   UNL     1       2.008   5.109  20.068  0.00  0.00    +0.000 A 
ATOM      6  C   UNL     1       2.818   5.129  18.933  0.00  0.00    +0.000 A 
ATOM      7  C   UNL     1       3.348   3.944  18.412  0.00  0.00    +0.000 A 
ATOM      8  C   UNL     1       3.046   6.411  18.244  0.00  0.00    +0.000 C 
ATOM      9  O   UNL     1       3.816   6.495  17.294  0.00  0.00    +0.000 OA
ATOM     10  C   UNL     1       2.203   7.556  18.710  0.00  0.00    +0.000 C 
ATOM     11  C   UNL     1       2.067   7.458  20.222  0.00  0.00    +0.000 C 
ATOM     12  O   UNL     1       1.432   6.226  20.617  0.00  0.00    +0.000 OA
ENDROOT
BRANCH  11  13
ATOM     13  C   UNL     1       1.262   8.656  20.701  0.00  0.00    +0.000 A 
ATOM     14  C   UNL     1       0.900   8.803  22.039  0.00  0.00    +0.000 A 
ATOM     15  C   UNL     1       0.052   9.848  22.400  0.00  0.00    +0.000 A 
ATOM     16  C   UNL     1      -0.413  10.718  21.422  0.00  0.00    +0.000 A 
ATOM     17  C   UNL     1       0.001  10.514  20.118  0.00  0.00    +0.000 A 
ATOM     18  N   UNL     1       0.819   9.507  19.739  0.00  0.00    +0.000 NA
ENDBRANCH  11  13
TORSDOF 1
ENDMDL
MODEL 8
REMARK VINA RESULT:      -6.8      1.528      1.846
REMARK  Name = 
REMARK  2 active torsions:
REMARK  status: ('A' for Active; 'I' for Inactive)
REMARK    1  A    between atoms: C_1  and  C_2
REMARK    2  A    between atoms: C_11  and  C_12
REMARK                            x       y       z     vdW  Elec       q    Type
REMARK                         _______ _______ _______ _____ _____    ______ ____
ROOT
ATOM      1  C   UNL     1       2.001   3.975  21.254  0.00  0.00    +0.000 C 
ATOM      2  C   UNL     1       2.727   3.847  19.947  0.00  0.00    +0.000 A 
ATOM      3  C   UNL     1       3.105   2.595  19.443  0.00  0.00    +0.000 A 
ATOM      4  C   UNL     1       3.813   2.493  18.241  0.00  0.00    +0.000 A 
ATOM      5  C   UNL     1       4.149   3.643  17.527  0.00  0.00    +0.000 A 
ATOM      6  C   UNL     1       3.781   4.890  18.030  0.00  0.00    +0.000 A 
ATOM      7  C   UNL     1       3.062   4.996  19.226  0.00  0.00    +0.000 A 
ATOM      8  C   UNL     1       4.225   6.103  17.320  0.00  0.00    +0.000 C 
ATOM      9  O   UNL     1       3.857   7.218  17.673  0.00  0.00    +0.000 OA
ATOM     10  C   UNL     1       5.224   5.885  16.228  0.00  0.00    +0.000 C 
ATOM     11  C   UNL     1       4.852   4.604  15.496  0.00  0.00    +0.000 C 
ATOM     12  O   UNL     1       4.876   3.465  16.378  0.00  0.00    +0.000 OA
ENDROOT
BRANCH  11  13
ATOM     13  C   UNL     1       5.832   4.417  14.348  0.00  0.00    +0.000 A 
ATOM     14  C   UNL     1       7.023   5.138  14.282  0.00  0.00    +0.000 A 
ATOM     15  C   UNL     1       7.819   5.026  13.144  0.00  0.00    +0.000 A 
ATOM     16  C   UNL     1       7.411   4.201  12.104  0.00  0.00    +0.000 A 
ATOM     17  C   UNL     1       6.222   3.507  12.250  0.00  0.00    +0.000 A 
ATOM     18  N   UNL     1       5.429   3.600  13.340  0.00  0.00    +0.000 NA
ENDBRANCH  11  13
TORSDOF 1
ENDMDL
MODEL 9
REMARK VINA RESULT:      -6.8      3.451      3.992
REMARK  Name = 
REMARK  2 active torsions:
REMARK  status: ('A' for Active; 'I' for Inactive)
REMARK    1  A    between atoms: C_1  and  C_2
REMARK    2  A    between atoms: C_11  and  C_12
REMARK                            x       y       z     vdW  Elec       q    Type
REMARK                         _______ _______ _______ _____ _____    ______ ____
ROOT
ATOM      1  C   UNL     1      -0.052   9.251  21.691  0.00  0.00    +0.000 C 
ATOM      2  C   UNL     1       0.858   8.696  20.635  0.00  0.00    +0.000 A 
ATOM      3  C   UNL     1       1.147   9.419  19.469  0.00  0.00    +0.000 A 
ATOM      4  C   UNL     1       1.969   8.874  18.477  0.00  0.00    +0.000 A 
ATOM      5  C   UNL     1       2.515   7.601  18.641  0.00  0.00    +0.000 A 
ATOM      6  C   UNL     1       2.223   6.878  19.796  0.00  0.00    +0.000 A 
ATOM      7  C   UNL     1       1.411   7.422  20.797  0.00  0.00    +0.000 A 
ATOM      8  C   UNL     1       2.724   5.497  19.916  0.00  0.00    +0.000 C 
ATOM      9  O   UNL     1       2.567   4.850  20.945  0.00  0.00    +0.000 OA
ATOM     10  C   UNL     1       3.327   4.917  18.676  0.00  0.00    +0.000 C 
ATOM     11  C   UNL     1       4.121   6.012  17.980  0.00  0.00    +0.000 C 
ATOM     12  O   UNL     1       3.279   7.121  17.609  0.00  0.00    +0.000 OA
ENDROOT
BRANCH  11  13
ATOM     13  C   UNL     1       4.785   5.405  16.753  0.00  0.00    +0.000 A 
ATOM     14  C   UNL     1       4.994   4.031  16.643  0.00  0.00    +0.000 A 
ATOM     15  C   UNL     1       5.724   3.543  15.561  0.00  0.00    +0.000 A 
ATOM     16  C   UNL     1       6.225   4.432  14.619  0.00  0.00    +0.000 A 
ATOM     17  C   UNL     1       5.964   5.780  14.792  0.00  0.00    +0.000 A 
ATOM     18  N   UNL     1       5.264   6.282  15.832  0.00  0.00    +0.000 NA
ENDBRANCH  11  13
TORSDOF 1
ENDMDL
