MODEL 1
REMARK VINA RESULT:      -7.3      0.000      0.000
REMARK  Name = 
REMARK  10 active torsions:
REMARK  status: ('A' for Active; 'I' for Inactive)
REMARK    1  A    between atoms: C_1  and  O_2
REMARK    2  A    between atoms: O_2  and  C_3
REMARK    3  A    between atoms: C_6  and  C_7
REMARK    4  A    between atoms: C_7  and  N_8
REMARK    5  A    between atoms: C_9  and  C_11
REMARK    6  A    between atoms: C_11  and  N_12
REMARK    7  A    between atoms: C_14  and  C_15
REMARK    8  A    between atoms: C_15  and  C_16
REMARK    9  A    between atoms: C_16  and  C_17
REMARK   10  A    between atoms: C_17  and  C_18
REMARK                            x       y       z     vdW  Elec       q    Type
REMARK                         _______ _______ _______ _____ _____    ______ ____
ROOT
ATOM      1  N   UNL     1       1.695   8.048  20.236  0.00  0.00    +0.000 N 
ATOM      2  C   UNL     1       1.994   6.741  20.168  0.00  0.00    +0.000 A 
ATOM      3  C   UNL     1       2.313   6.490  18.853  0.00  0.00    +0.000 A 
ATOM      4  N   UNL     1       2.204   7.645  18.161  0.00  0.00    +0.000 NA
ATOM      5  N   UNL     1       1.824   8.575  19.029  0.00  0.00    +0.000 NA
ENDROOT
BRANCH   1   6
ATOM      6  C   UNL     1       1.267   8.780  21.425  0.00  0.00    +0.000 C 
BRANCH   6   8
ATOM      7  N   UNL     1      -0.471  10.073  20.220  0.00  0.00    +0.000 N 
ATOM      8  C   UNL     1       0.606  10.084  21.052  0.00  0.00    +0.000 C 
ATOM      9  O   UNL     1       1.046  11.140  21.488  0.00  0.00    +0.000 OA
ATOM     10  H   UNL     1      -0.817   9.167  19.867  0.00  0.00    +0.000 HD
BRANCH   7  11
ATOM     11  C   UNL     1      -1.164  11.275  19.786  0.00  0.00    +0.000 C 
BRANCH  11  15
ATOM     12  C   UNL     1      -3.361  10.455  16.157  0.00  0.00    +0.000 A 
ATOM     13  C   UNL     1      -3.803  11.445  17.056  0.00  0.00    +0.000 A 
ATOM     14  C   UNL     1      -3.084  11.711  18.223  0.00  0.00    +0.000 A 
ATOM     15  C   UNL     1      -1.913  10.995  18.513  0.00  0.00    +0.000 A 
ATOM     16  C   UNL     1      -1.463  10.017  17.611  0.00  0.00    +0.000 A 
ATOM     17  C   UNL     1      -2.185   9.751  16.443  0.00  0.00    +0.000 A 
BRANCH  12  19
ATOM     18  C   UNL     1      -3.497  10.087  13.756  0.00  0.00    +0.000 C 
ATOM     19  O   UNL     1      -4.042  10.145  15.023  0.00  0.00    +0.000 OA
ENDBRANCH  12  19
ENDBRANCH  11  15
ENDBRANCH   7  11
ENDBRANCH   6   8
ENDBRANCH   1   6
BRANCH   3  20
ATOM     20  C   UNL     1       2.694   5.167  18.264  0.00  0.00    +0.000 C 
BRANCH  20  21
ATOM     21  C   UNL     1       4.128   4.785  18.641  0.00  0.00    +0.000 C 
BRANCH  21  22
ATOM     22  C   UNL     1       5.127   5.791  18.059  0.00  0.00    +0.000 C 
BRANCH  22  23
ATOM     23  C   UNL     1       5.715   5.276  16.782  0.00  0.00    +0.000 A 
ATOM     24  C   UNL     1       5.497   4.032  16.225  0.00  0.00    +0.000 A 
ATOM     25  N   UNL     1       6.205   3.959  15.086  0.00  0.00    +0.000 N 
ATOM     26  C   UNL     1       6.831   5.146  14.978  0.00  0.00    +0.000 A 
ATOM     27  N   UNL     1       7.686   5.485  13.907  0.00  0.00    +0.000 N 
ATOM     28  N   UNL     1       6.557   5.982  15.999  0.00  0.00    +0.000 NA
ATOM     29  H   UNL     1       6.258   3.151  14.426  0.00  0.00    +0.000 HD
ATOM     30  H   UNL     1       7.864   4.810  13.150  0.00  0.00    +0.000 HD
ATOM     31  H   UNL     1       8.137   6.411  13.878  0.00  0.00    +0.000 HD
ENDBRANCH  22  23
ENDBRANCH  21  22
ENDBRANCH  20  21
ENDBRANCH   3  20
TORSDOF 9
ENDMDL
MODEL 2
REMARK VINA RESULT:      -7.3      5.374      8.041
REMARK  Name = 
REMARK  10 active torsions:
REMARK  status: ('A' for Active; 'I' for Inactive)
REMARK    1  A    between atoms: C_1  and  O_2
REMARK    2  A    between atoms: O_2  and  C_3
REMARK    3  A    between atoms: C_6  and  C_7
REMARK    4  A    between atoms: C_7  and  N_8
REMARK    5  A    between atoms: C_9  and  C_11
REMARK    6  A    between atoms: C_11  and  N_12
REMARK    7  A    between atoms: C_14  and  C_15
REMARK    8  A    between atoms: C_15  and  C_16
REMARK    9  A    between atoms: C_16  and  C_17
REMARK   10  A    between atoms: C_17  and  C_18
REMARK                            x       y       z     vdW  Elec       q    Type
REMARK                         _______ _______ _______ _____ _____    ______ ____
ROOT
ATOM      1  N   UNL     1       7.473   6.148  17.635  0.00  0.00    +0.000 N 
ATOM      2  C   UNL     1       7.378   7.355  17.056  0.00  0.00    +0.000 A 
ATOM      3  C   UNL     1       8.000   8.238  17.908  0.00  0.00    +0.000 A 
ATOM      4  N   UNL     1       8.459   7.549  18.974  0.00  0.00    +0.000 NA
ATOM      5  N   UNL     1       8.121   6.279  18.782  0.00  0.00    +0.000 NA
ENDROOT
BRANCH   1   6
ATOM      6  C   UNL     1       6.933   4.892  17.120  0.00  0.00    +0.000 C 
BRANCH   6   8
ATOM      7  N   UNL     1       4.464   4.737  17.287  0.00  0.00    +0.000 N 
ATOM      8  C   UNL     1       5.677   4.498  17.858  0.00  0.00    +0.000 C 
ATOM      9  O   UNL     1       5.754   3.977  18.963  0.00  0.00    +0.000 OA
ATOM     10  H   UNL     1       4.432   5.179  16.356  0.00  0.00    +0.000 HD
BRANCH   7  11
ATOM     11  C   UNL     1       3.199   4.413  17.924  0.00  0.00    +0.000 C 
BRANCH  11  15
ATOM     12  C   UNL     1       1.759   7.897  20.036  0.00  0.00    +0.000 A 
ATOM     13  C   UNL     1       2.246   8.006  18.718  0.00  0.00    +0.000 A 
ATOM     14  C   UNL     1       2.702   6.875  18.039  0.00  0.00    +0.000 A 
ATOM     15  C   UNL     1       2.680   5.617  18.660  0.00  0.00    +0.000 A 
ATOM     16  C   UNL     1       2.182   5.504  19.967  0.00  0.00    +0.000 A 
ATOM     17  C   UNL     1       1.726   6.638  20.648  0.00  0.00    +0.000 A 
BRANCH  12  19
ATOM     18  C   UNL     1       1.097   8.993  22.104  0.00  0.00    +0.000 C 
ATOM     19  O   UNL     1       1.329   8.974  20.744  0.00  0.00    +0.000 OA
ENDBRANCH  12  19
ENDBRANCH  11  15
ENDBRANCH   7  11
ENDBRANCH   6   8
ENDBRANCH   1   6
BRANCH   3  20
ATOM     20  C   UNL     1       8.135   9.717  17.717  0.00  0.00    +0.000 C 
BRANCH  20  21
ATOM     21  C   UNL     1       9.050  10.332  18.780  0.00  0.00    +0.000 C 
BRANCH  21  22
ATOM     22  C   UNL     1      10.343  10.856  18.146  0.00  0.00    +0.000 C 
BRANCH  22  23
ATOM     23  C   UNL     1      10.265  12.334  17.925  0.00  0.00    +0.000 A 
ATOM     24  C   UNL     1       9.435  13.217  18.587  0.00  0.00    +0.000 A 
ATOM     25  N   UNL     1       9.666  14.447  18.099  0.00  0.00    +0.000 N 
ATOM     26  C   UNL     1      10.619  14.286  17.162  0.00  0.00    +0.000 A 
ATOM     27  N   UNL     1      11.154  15.347  16.401  0.00  0.00    +0.000 N 
ATOM     28  N   UNL     1      11.013  13.004  17.024  0.00  0.00    +0.000 NA
ATOM     29  H   UNL     1       9.202  15.338  18.387  0.00  0.00    +0.000 HD
ATOM     30  H   UNL     1      10.819  16.310  16.543  0.00  0.00    +0.000 HD
ATOM     31  H   UNL     1      11.884  15.163  15.697  0.00  0.00    +0.000 HD
ENDBRANCH  22  23
ENDBRANCH  21  22
ENDBRANCH  20  21
ENDBRANCH   3  20
TORSDOF 9
ENDMDL
MODEL 3
REMARK VINA RESULT:      -7.2      1.678      2.430
REMARK  Name = 
REMARK  10 active torsions:
REMARK  status: ('A' for Active; 'I' for Inactive)
REMARK    1  A    between atoms: C_1  and  O_2
REMARK    2  A    between atoms: O_2  and  C_3
REMARK    3  A    between atoms: C_6  and  C_7
REMARK    4  A    between atoms: C_7  and  N_8
REMARK    5  A    between atoms: C_9  and  C_11
REMARK    6  A    between atoms: C_11  and  N_12
REMARK    7  A    between atoms: C_14  and  C_15
REMARK    8  A    between atoms: C_15  and  C_16
REMARK    9  A    between atoms: C_16  and  C_17
REMARK   10  A    between atoms: C_17  and  C_18
REMARK                            x       y       z     vdW  Elec       q    Type
REMARK                         _______ _______ _______ _____ _____    ______ ____
ROOT
ATOM      1  N   UNL     1       1.736   7.584  20.396  0.00  0.00    +0.000 N 
ATOM      2  C   UNL     1       1.637   6.245  20.414  0.00  0.00    +0.000 A 
ATOM      3  C   UNL     1       2.204   5.804  19.241  0.00  0.00    +0.000 A 
ATOM      4  N   UNL     1       2.635   6.879  18.547  0.00  0.00    +0.000 NA
ATOM      5  N   UNL     1       2.334   7.948  19.273  0.00  0.00    +0.000 NA
ENDROOT
BRANCH   1   6
ATOM      6  C   UNL     1       1.245   8.505  21.418  0.00  0.00    +0.000 C 
BRANCH   6   8
ATOM      7  N   UNL     1       0.228   9.867  19.613  0.00  0.00    +0.000 N 
ATOM      8  C   UNL     1       0.868   9.835  20.814  0.00  0.00    +0.000 C 
ATOM      9  O   UNL     1       1.148  10.874  21.399  0.00  0.00    +0.000 OA
ATOM     10  H   UNL     1       0.009   8.975  19.144  0.00  0.00    +0.000 HD
BRANCH   7  11
ATOM     11  C   UNL     1      -0.158  11.096  18.940  0.00  0.00    +0.000 C 
BRANCH  11  15
ATOM     12  C   UNL     1      -4.371  11.002  17.982  0.00  0.00    +0.000 A 
ATOM     13  C   UNL     1      -3.481  10.078  17.400  0.00  0.00    +0.000 A 
ATOM     14  C   UNL     1      -2.122  10.109  17.720  0.00  0.00    +0.000 A 
ATOM     15  C   UNL     1      -1.628  11.059  18.626  0.00  0.00    +0.000 A 
ATOM     16  C   UNL     1      -2.516  11.971  19.219  0.00  0.00    +0.000 A 
ATOM     17  C   UNL     1      -3.876  11.941  18.897  0.00  0.00    +0.000 A 
BRANCH  12  19
ATOM     18  C   UNL     1      -6.717  10.719  18.557  0.00  0.00    +0.000 C 
ATOM     19  O   UNL     1      -5.696  11.025  17.682  0.00  0.00    +0.000 OA
ENDBRANCH  12  19
ENDBRANCH  11  15
ENDBRANCH   7  11
ENDBRANCH   6   8
ENDBRANCH   1   6
BRANCH   3  20
ATOM     20  C   UNL     1       2.314   4.382  18.782  0.00  0.00    +0.000 C 
BRANCH  20  21
ATOM     21  C   UNL     1       3.236   4.263  17.566  0.00  0.00    +0.000 C 
BRANCH  21  22
ATOM     22  C   UNL     1       4.468   3.414  17.901  0.00  0.00    +0.000 C 
BRANCH  22  23
ATOM     23  C   UNL     1       5.705   4.256  17.918  0.00  0.00    +0.000 A 
ATOM     24  C   UNL     1       6.446   4.642  16.819  0.00  0.00    +0.000 A 
ATOM     25  N   UNL     1       7.476   5.385  17.254  0.00  0.00    +0.000 N 
ATOM     26  C   UNL     1       7.339   5.434  18.593  0.00  0.00    +0.000 A 
ATOM     27  N   UNL     1       8.227   6.127  19.444  0.00  0.00    +0.000 N 
ATOM     28  N   UNL     1       6.265   4.753  19.040  0.00  0.00    +0.000 NA
ATOM     29  H   UNL     1       8.224   5.830  16.675  0.00  0.00    +0.000 HD
ATOM     30  H   UNL     1       9.034   6.633  19.054  0.00  0.00    +0.000 HD
ATOM     31  H   UNL     1       8.070   6.130  20.463  0.00  0.00    +0.000 HD
ENDBRANCH  22  23
ENDBRANCH  21  22
ENDBRANCH  20  21
ENDBRANCH   3  20
TORSDOF 9
ENDMDL
MODEL 4
REMARK VINA RESULT:      -7.1      3.785      8.697
REMARK  Name = 
REMARK  10 active torsions:
REMARK  status: ('A' for Active; 'I' for Inactive)
REMARK    1  A    between atoms: C_1  and  O_2
REMARK    2  A    between atoms: O_2  and  C_3
REMARK    3  A    between atoms: C_6  and  C_7
REMARK    4  A    between atoms: C_7  and  N_8
REMARK    5  A    between atoms: C_9  and  C_11
REMARK    6  A    between atoms: C_11  and  N_12
REMARK    7  A    between atoms: C_14  and  C_15
REMARK    8  A    between atoms: C_15  and  C_16
REMARK    9  A    between atoms: C_16  and  C_17
REMARK   10  A    between atoms: C_17  and  C_18
REMARK                            x       y       z     vdW  Elec       q    Type
REMARK                         _______ _______ _______ _____ _____    ______ ____
ROOT
ATOM      1  N   UNL     1       2.025   5.623  19.598  0.00  0.00    +0.000 N 
ATOM      2  C   UNL     1       1.553   6.090  20.764  0.00  0.00    +0.000 A 
ATOM      3  C   UNL     1       1.647   7.461  20.693  0.00  0.00    +0.000 A 
ATOM      4  N   UNL     1       2.165   7.790  19.491  0.00  0.00    +0.000 NA
ATOM      5  N   UNL     1       2.388   6.650  18.846  0.00  0.00    +0.000 NA
ENDROOT
BRANCH   1   6
ATOM      6  C   UNL     1       2.153   4.220  19.212  0.00  0.00    +0.000 C 
BRANCH   6   8
ATOM      7  N   UNL     1       4.038   4.450  17.618  0.00  0.00    +0.000 N 
ATOM      8  C   UNL     1       3.561   3.905  18.770  0.00  0.00    +0.000 C 
ATOM      9  O   UNL     1       4.260   3.156  19.441  0.00  0.00    +0.000 OA
ATOM     10  H   UNL     1       3.424   5.075  17.073  0.00  0.00    +0.000 HD
BRANCH   7  11
ATOM     11  C   UNL     1       5.370   4.193  17.097  0.00  0.00    +0.000 C 
BRANCH  11  15
ATOM     12  C   UNL     1       8.011   7.380  18.337  0.00  0.00    +0.000 A 
ATOM     13  C   UNL     1       8.015   6.142  19.008  0.00  0.00    +0.000 A 
ATOM     14  C   UNL     1       7.165   5.114  18.598  0.00  0.00    +0.000 A 
ATOM     15  C   UNL     1       6.298   5.302  17.511  0.00  0.00    +0.000 A 
ATOM     16  C   UNL     1       6.303   6.530  16.831  0.00  0.00    +0.000 A 
ATOM     17  C   UNL     1       7.154   7.560  17.244  0.00  0.00    +0.000 A 
BRANCH  12  19
ATOM     18  C   UNL     1       8.644   9.729  18.320  0.00  0.00    +0.000 C 
ATOM     19  O   UNL     1       8.803   8.417  18.717  0.00  0.00    +0.000 OA
ENDBRANCH  12  19
ENDBRANCH  11  15
ENDBRANCH   7  11
ENDBRANCH   6   8
ENDBRANCH   1   6
BRANCH   3  20
ATOM     20  C   UNL     1       1.268   8.438  21.763  0.00  0.00    +0.000 C 
BRANCH  20  21
ATOM     21  C   UNL     1      -0.229   8.754  21.719  0.00  0.00    +0.000 C 
BRANCH  21  22
ATOM     22  C   UNL     1      -0.461  10.249  21.470  0.00  0.00    +0.000 C 
BRANCH  22  23
ATOM     23  C   UNL     1       0.081  10.654  20.135  0.00  0.00    +0.000 A 
ATOM     24  C   UNL     1      -0.396  10.253  18.903  0.00  0.00    +0.000 A 
ATOM     25  N   UNL     1       0.360  10.833  17.957  0.00  0.00    +0.000 N 
ATOM     26  C   UNL     1       1.270  11.565  18.627  0.00  0.00    +0.000 A 
ATOM     27  N   UNL     1       2.266  12.342  17.997  0.00  0.00    +0.000 N 
ATOM     28  N   UNL     1       1.133  11.481  19.966  0.00  0.00    +0.000 NA
ATOM     29  H   UNL     1       0.262  10.735  16.921  0.00  0.00    +0.000 HD
ATOM     30  H   UNL     1       2.329  12.372  16.970  0.00  0.00    +0.000 HD
ATOM     31  H   UNL     1       2.935  12.883  18.564  0.00  0.00    +0.000 HD
ENDBRANCH  22  23
ENDBRANCH  21  22
ENDBRANCH  20  21
ENDBRANCH   3  20
TORSDOF 9
ENDMDL
MODEL 5
REMARK VINA RESULT:      -7.0      5.369      8.643
REMARK  Name = 
REMARK  10 active torsions:
REMARK  status: ('A' for Active; 'I' for Inactive)
REMARK    1  A    between atoms: C_1  and  O_2
REMARK    2  A    between atoms: O_2  and  C_3
REMARK    3  A    between atoms: C_6  and  C_7
REMARK    4  A    between atoms: C_7  and  N_8
REMARK    5  A    between atoms: C_9  and  C_11
REMARK    6  A    between atoms: C_11  and  N_12
REMARK    7  A    between atoms: C_14  and  C_15
REMARK    8  A    between atoms: C_15  and  C_16
REMARK    9  A    between atoms: C_16  and  C_17
REMARK   10  A    between atoms: C_17  and  C_18
REMARK                            x       y       z     vdW  Elec       q    Type
REMARK                         _______ _______ _______ _____ _____    ______ ____
ROOT
ATOM      1  N   UNL     1       5.458   4.762  18.582  0.00  0.00    +0.000 N 
ATOM      2  C   UNL     1       4.306   4.779  17.895  0.00  0.00    +0.000 A 
ATOM      3  C   UNL     1       3.737   3.538  18.072  0.00  0.00    +0.000 A 
ATOM      4  N   UNL     1       4.551   2.806  18.862  0.00  0.00    +0.000 NA
ATOM      5  N   UNL     1       5.592   3.576  19.155  0.00  0.00    +0.000 NA
ENDROOT
BRANCH   1   6
ATOM      6  C   UNL     1       6.432   5.847  18.673  0.00  0.00    +0.000 C 
BRANCH   6   8
ATOM      7  N   UNL     1       7.129   5.134  16.403  0.00  0.00    +0.000 N 
ATOM      8  C   UNL     1       7.056   6.130  17.328  0.00  0.00    +0.000 C 
ATOM      9  O   UNL     1       7.501   7.243  17.082  0.00  0.00    +0.000 OA
ATOM     10  H   UNL     1       6.748   4.206  16.641  0.00  0.00    +0.000 HD
BRANCH   7  11
ATOM     11  C   UNL     1       7.729   5.300  15.089  0.00  0.00    +0.000 C 
BRANCH  11  15
ATOM     12  C   UNL     1       5.335   3.307  12.095  0.00  0.00    +0.000 A 
ATOM     13  C   UNL     1       6.667   3.674  11.822  0.00  0.00    +0.000 A 
ATOM     14  C   UNL     1       7.438   4.311  12.797  0.00  0.00    +0.000 A 
ATOM     15  C   UNL     1       6.895   4.591  14.059  0.00  0.00    +0.000 A 
ATOM     16  C   UNL     1       5.572   4.212  14.338  0.00  0.00    +0.000 A 
ATOM     17  C   UNL     1       4.800   3.576  13.361  0.00  0.00    +0.000 A 
BRANCH  12  19
ATOM     18  C   UNL     1       3.408   3.265  10.611  0.00  0.00    +0.000 C 
ATOM     19  O   UNL     1       4.541   2.709  11.169  0.00  0.00    +0.000 OA
ENDBRANCH  12  19
ENDBRANCH  11  15
ENDBRANCH   7  11
ENDBRANCH   6   8
ENDBRANCH   1   6
BRANCH   3  20
ATOM     20  C   UNL     1       2.449   3.055  17.480  0.00  0.00    +0.000 C 
BRANCH  20  21
ATOM     21  C   UNL     1       1.754   2.055  18.409  0.00  0.00    +0.000 C 
BRANCH  21  22
ATOM     22  C   UNL     1       0.685   2.754  19.256  0.00  0.00    +0.000 C 
BRANCH  22  23
ATOM     23  C   UNL     1       1.280   3.888  20.032  0.00  0.00    +0.000 A 
ATOM     24  C   UNL     1       2.037   3.782  21.182  0.00  0.00    +0.000 A 
ATOM     25  N   UNL     1       2.378   5.023  21.568  0.00  0.00    +0.000 N 
ATOM     26  C   UNL     1       1.826   5.844  20.655  0.00  0.00    +0.000 A 
ATOM     27  N   UNL     1       1.949   7.250  20.694  0.00  0.00    +0.000 N 
ATOM     28  N   UNL     1       1.144   5.187  19.696  0.00  0.00    +0.000 NA
ATOM     29  H   UNL     1       2.949   5.290  22.401  0.00  0.00    +0.000 HD
ATOM     30  H   UNL     1       2.481   7.705  21.448  0.00  0.00    +0.000 HD
ATOM     31  H   UNL     1       1.505   7.828  19.965  0.00  0.00    +0.000 HD
ENDBRANCH  22  23
ENDBRANCH  21  22
ENDBRANCH  20  21
ENDBRANCH   3  20
TORSDOF 9
ENDMDL
MODEL 6
REMARK VINA RESULT:      -7.0      2.179      3.059
REMARK  Name = 
REMARK  10 active torsions:
REMARK  status: ('A' for Active; 'I' for Inactive)
REMARK    1  A    between atoms: C_1  and  O_2
REMARK    2  A    between atoms: O_2  and  C_3
REMARK    3  A    between atoms: C_6  and  C_7
REMARK    4  A    between atoms: C_7  and  N_8
REMARK    5  A    between atoms: C_9  and  C_11
REMARK    6  A    between atoms: C_11  and  N_12
REMARK    7  A    between atoms: C_14  and  C_15
REMARK    8  A    between atoms: C_15  and  C_16
REMARK    9  A    between atoms: C_16  and  C_17
REMARK   10  A    between atoms: C_17  and  C_18
REMARK                            x       y       z     vdW  Elec       q    Type
REMARK                         _______ _______ _______ _____ _____    ______ ____
ROOT
ATOM      1  N   UNL     1       2.265   6.839  18.471  0.00  0.00    +0.000 N 
ATOM      2  C   UNL     1       1.780   5.620  18.191  0.00  0.00    +0.000 A 
ATOM      3  C   UNL     1       1.650   4.973  19.399  0.00  0.00    +0.000 A 
ATOM      4  N   UNL     1       2.052   5.813  20.376  0.00  0.00    +0.000 NA
ATOM      5  N   UNL     1       2.423   6.941  19.781  0.00  0.00    +0.000 NA
ENDROOT
BRANCH   1   6
ATOM      6  C   UNL     1       2.598   7.884  17.506  0.00  0.00    +0.000 C 
BRANCH   6   8
ATOM      7  N   UNL     1       0.910   9.287  18.659  0.00  0.00    +0.000 N 
ATOM      8  C   UNL     1       2.074   9.226  17.955  0.00  0.00    +0.000 C 
ATOM      9  O   UNL     1       2.689  10.247  17.678  0.00  0.00    +0.000 OA
ATOM     10  H   UNL     1       0.413   8.409  18.874  0.00  0.00    +0.000 HD
BRANCH   7  11
ATOM     11  C   UNL     1       0.312  10.530  19.118  0.00  0.00    +0.000 C 
BRANCH  11  15
ATOM     12  C   UNL     1      -3.640  10.946  17.421  0.00  0.00    +0.000 A 
ATOM     13  C   UNL     1      -2.717  10.031  16.878  0.00  0.00    +0.000 A 
ATOM     14  C   UNL     1      -1.445   9.895  17.436  0.00  0.00    +0.000 A 
ATOM     15  C   UNL     1      -1.071  10.669  18.545  0.00  0.00    +0.000 A 
ATOM     16  C   UNL     1      -1.993  11.571  19.097  0.00  0.00    +0.000 A 
ATOM     17  C   UNL     1      -3.267  11.708  18.536  0.00  0.00    +0.000 A 
BRANCH  12  19
ATOM     18  C   UNL     1      -5.780  12.095  17.295  0.00  0.00    +0.000 C 
ATOM     19  O   UNL     1      -4.879  11.130  16.896  0.00  0.00    +0.000 OA
ENDBRANCH  12  19
ENDBRANCH  11  15
ENDBRANCH   7  11
ENDBRANCH   6   8
ENDBRANCH   1   6
BRANCH   3  20
ATOM     20  C   UNL     1       1.170   3.571  19.613  0.00  0.00    +0.000 C 
BRANCH  20  21
ATOM     21  C   UNL     1       2.296   2.673  20.133  0.00  0.00    +0.000 C 
BRANCH  21  22
ATOM     22  C   UNL     1       3.097   2.080  18.968  0.00  0.00    +0.000 C 
BRANCH  22  23
ATOM     23  C   UNL     1       4.211   2.997  18.568  0.00  0.00    +0.000 A 
ATOM     24  C   UNL     1       4.567   3.335  17.277  0.00  0.00    +0.000 A 
ATOM     25  N   UNL     1       5.612   4.176  17.344  0.00  0.00    +0.000 N 
ATOM     26  C   UNL     1       5.865   4.327  18.658  0.00  0.00    +0.000 A 
ATOM     27  N   UNL     1       6.899   5.143  19.165  0.00  0.00    +0.000 N 
ATOM     28  N   UNL     1       5.028   3.620  19.442  0.00  0.00    +0.000 NA
ATOM     29  H   UNL     1       6.120   4.617  16.544  0.00  0.00    +0.000 HD
ATOM     30  H   UNL     1       7.513   5.664  18.524  0.00  0.00    +0.000 HD
ATOM     31  H   UNL     1       7.044   5.221  20.183  0.00  0.00    +0.000 HD
ENDBRANCH  22  23
ENDBRANCH  21  22
ENDBRANCH  20  21
ENDBRANCH   3  20
TORSDOF 9
ENDMDL
MODEL 7
REMARK VINA RESULT:      -6.9      4.700      6.682
REMARK  Name = 
REMARK  10 active torsions:
REMARK  status: ('A' for Active; 'I' for Inactive)
REMARK    1  A    between atoms: C_1  and  O_2
REMARK    2  A    between atoms: O_2  and  C_3
REMARK    3  A    between atoms: C_6  and  C_7
REMARK    4  A    between atoms: C_7  and  N_8
REMARK    5  A    between atoms: C_9  and  C_11
REMARK    6  A    between atoms: C_11  and  N_12
REMARK    7  A    between atoms: C_14  and  C_15
REMARK    8  A    between atoms: C_15  and  C_16
REMARK    9  A    between atoms: C_16  and  C_17
REMARK   10  A    between atoms: C_17  and  C_18
REMARK                            x       y       z     vdW  Elec       q    Type
REMARK                         _______ _______ _______ _____ _____    ______ ____
ROOT
ATOM      1  N   UNL     1       6.078   5.361  18.238  0.00  0.00    +0.000 N 
ATOM      2  C   UNL     1       6.396   6.364  17.406  0.00  0.00    +0.000 A 
ATOM      3  C   UNL     1       7.544   6.931  17.912  0.00  0.00    +0.000 A 
ATOM      4  N   UNL     1       7.893   6.258  19.028  0.00  0.00    +0.000 NA
ATOM      5  N   UNL     1       6.981   5.310  19.204  0.00  0.00    +0.000 NA
ENDROOT
BRANCH   1   6
ATOM      6  C   UNL     1       4.917   4.480  18.133  0.00  0.00    +0.000 C 
BRANCH   6   8
ATOM      7  N   UNL     1       3.221   6.071  18.993  0.00  0.00    +0.000 N 
ATOM      8  C   UNL     1       3.848   4.869  19.123  0.00  0.00    +0.000 C 
ATOM      9  O   UNL     1       3.558   4.112  20.040  0.00  0.00    +0.000 OA
ATOM     10  H   UNL     1       3.490   6.688  18.211  0.00  0.00    +0.000 HD
BRANCH   7  11
ATOM     11  C   UNL     1       2.194   6.546  19.905  0.00  0.00    +0.000 C 
BRANCH  11  15
ATOM     12  C   UNL     1       1.168  10.617  18.883  0.00  0.00    +0.000 A 
ATOM     13  C   UNL     1       1.814   9.783  17.950  0.00  0.00    +0.000 A 
ATOM     14  C   UNL     1       2.135   8.466  18.283  0.00  0.00    +0.000 A 
ATOM     15  C   UNL     1       1.818   7.958  19.552  0.00  0.00    +0.000 A 
ATOM     16  C   UNL     1       1.161   8.783  20.479  0.00  0.00    +0.000 A 
ATOM     17  C   UNL     1       0.840  10.102  20.144  0.00  0.00    +0.000 A 
BRANCH  12  19
ATOM     18  C   UNL     1       0.325  12.810  19.512  0.00  0.00    +0.000 C 
ATOM     19  O   UNL     1       0.858  11.912  18.611  0.00  0.00    +0.000 OA
ENDBRANCH  12  19
ENDBRANCH  11  15
ENDBRANCH   7  11
ENDBRANCH   6   8
ENDBRANCH   1   6
BRANCH   3  20
ATOM     20  C   UNL     1       8.281   8.107  17.349  0.00  0.00    +0.000 C 
BRANCH  20  21
ATOM     21  C   UNL     1       7.912   9.397  18.087  0.00  0.00    +0.000 C 
BRANCH  21  22
ATOM     22  C   UNL     1       9.110   9.929  18.881  0.00  0.00    +0.000 C 
BRANCH  22  23
ATOM     23  C   UNL     1       9.606  11.215  18.296  0.00  0.00    +0.000 A 
ATOM     24  C   UNL     1      10.875  11.456  17.809  0.00  0.00    +0.000 A 
ATOM     25  N   UNL     1      10.918  12.726  17.377  0.00  0.00    +0.000 N 
ATOM     26  C   UNL     1       9.689  13.224  17.610  0.00  0.00    +0.000 A 
ATOM     27  N   UNL     1       9.309  14.546  17.296  0.00  0.00    +0.000 N 
ATOM     28  N   UNL     1       8.854  12.328  18.173  0.00  0.00    +0.000 NA
ATOM     29  H   UNL     1      11.734  13.222  16.952  0.00  0.00    +0.000 HD
ATOM     30  H   UNL     1       9.984  15.193  16.866  0.00  0.00    +0.000 HD
ATOM     31  H   UNL     1       8.351  14.871  17.496  0.00  0.00    +0.000 HD
ENDBRANCH  22  23
ENDBRANCH  21  22
ENDBRANCH  20  21
ENDBRANCH   3  20
TORSDOF 9
ENDMDL
MODEL 8
REMARK VINA RESULT:      -6.9      2.490      3.952
REMARK  Name = 
REMARK  10 active torsions:
REMARK  status: ('A' for Active; 'I' for Inactive)
REMARK    1  A    between atoms: C_1  and  O_2
REMARK    2  A    between atoms: O_2  and  C_3
REMARK    3  A    between atoms: C_6  and  C_7
REMARK    4  A    between atoms: C_7  and  N_8
REMARK    5  A    between atoms: C_9  and  C_11
REMARK    6  A    between atoms: C_11  and  N_12
REMARK    7  A    between atoms: C_14  and  C_15
REMARK    8  A    between atoms: C_15  and  C_16
REMARK    9  A    between atoms: C_16  and  C_17
REMARK   10  A    between atoms: C_17  and  C_18
REMARK                            x       y       z     vdW  Elec       q    Type
REMARK                         _______ _______ _______ _____ _____    ______ ____
ROOT
ATOM      1  N   UNL     1       2.758   4.526  19.222  0.00  0.00    +0.000 N 
ATOM      2  C   UNL     1       2.991   4.605  17.903  0.00  0.00    +0.000 A 
ATOM      3  C   UNL     1       4.088   3.810  17.660  0.00  0.00    +0.000 A 
ATOM      4  N   UNL     1       4.487   3.269  18.830  0.00  0.00    +0.000 NA
ATOM      5  N   UNL     1       3.661   3.725  19.764  0.00  0.00    +0.000 NA
ENDROOT
BRANCH   1   6
ATOM      6  C   UNL     1       1.710   5.224  19.963  0.00  0.00    +0.000 C 
BRANCH   6   8
ATOM      7  N   UNL     1       1.333   7.421  21.049  0.00  0.00    +0.000 N 
ATOM      8  C   UNL     1       2.073   6.672  20.185  0.00  0.00    +0.000 C 
ATOM      9  O   UNL     1       3.018   7.165  19.584  0.00  0.00    +0.000 OA
ATOM     10  H   UNL     1       0.541   6.977  21.538  0.00  0.00    +0.000 HD
BRANCH   7  11
ATOM     11  C   UNL     1       1.589   8.826  21.316  0.00  0.00    +0.000 C 
BRANCH  11  15
ATOM     12  C   UNL     1      -1.337  11.230  19.235  0.00  0.00    +0.000 A 
ATOM     13  C   UNL     1      -1.220  11.295  20.637  0.00  0.00    +0.000 A 
ATOM     14  C   UNL     1      -0.267  10.522  21.302  0.00  0.00    +0.000 A 
ATOM     15  C   UNL     1       0.585   9.672  20.582  0.00  0.00    +0.000 A 
ATOM     16  C   UNL     1       0.480   9.616  19.184  0.00  0.00    +0.000 A 
ATOM     17  C   UNL     1      -0.475  10.390  18.517  0.00  0.00    +0.000 A 
BRANCH  12  19
ATOM     18  C   UNL     1      -3.044  11.459  17.517  0.00  0.00    +0.000 C 
ATOM     19  O   UNL     1      -2.266  11.945  18.547  0.00  0.00    +0.000 OA
ENDBRANCH  12  19
ENDBRANCH  11  15
ENDBRANCH   7  11
ENDBRANCH   6   8
ENDBRANCH   1   6
BRANCH   3  20
ATOM     20  C   UNL     1       4.754   3.589  16.337  0.00  0.00    +0.000 C 
BRANCH  20  21
ATOM     21  C   UNL     1       5.302   4.900  15.767  0.00  0.00    +0.000 C 
BRANCH  21  22
ATOM     22  C   UNL     1       6.834   4.914  15.816  0.00  0.00    +0.000 C 
BRANCH  22  23
ATOM     23  C   UNL     1       7.319   5.478  17.115  0.00  0.00    +0.000 A 
ATOM     24  C   UNL     1       7.540   6.812  17.396  0.00  0.00    +0.000 A 
ATOM     25  N   UNL     1       7.972   6.901  18.664  0.00  0.00    +0.000 N 
ATOM     26  C   UNL     1       8.003   5.635  19.121  0.00  0.00    +0.000 A 
ATOM     27  N   UNL     1       8.405   5.285  20.428  0.00  0.00    +0.000 N 
ATOM     28  N   UNL     1       7.611   4.732  18.200  0.00  0.00    +0.000 NA
ATOM     29  H   UNL     1       8.229   7.771  19.184  0.00  0.00    +0.000 HD
ATOM     30  H   UNL     1       8.697   6.013  21.095  0.00  0.00    +0.000 HD
ATOM     31  H   UNL     1       8.407   4.297  20.721  0.00  0.00    +0.000 HD
ENDBRANCH  22  23
ENDBRANCH  21  22
ENDBRANCH  20  21
ENDBRANCH   3  20
TORSDOF 9
ENDMDL
MODEL 9
REMARK VINA RESULT:      -6.9      5.863      8.192
REMARK  Name = 
REMARK  10 active torsions:
REMARK  status: ('A' for Active; 'I' for Inactive)
REMARK    1  A    between atoms: C_1  and  O_2
REMARK    2  A    between atoms: O_2  and  C_3
REMARK    3  A    between atoms: C_6  and  C_7
REMARK    4  A    between atoms: C_7  and  N_8
REMARK    5  A    between atoms: C_9  and  C_11
REMARK    6  A    between atoms: C_11  and  N_12
REMARK    7  A    between atoms: C_14  and  C_15
REMARK    8  A    between atoms: C_15  and  C_16
REMARK    9  A    between atoms: C_16  and  C_17
REMARK   10  A    between atoms: C_17  and  C_18
REMARK                            x       y       z     vdW  Elec       q    Type
REMARK                         _______ _______ _______ _____ _____    ______ ____
ROOT
ATOM      1  N   UNL     1       7.680   6.737  17.849  0.00  0.00    +0.000 N 
ATOM      2  C   UNL     1       8.437   7.438  18.707  0.00  0.00    +0.000 A 
ATOM      3  C   UNL     1       8.313   8.758  18.336  0.00  0.00    +0.000 A 
ATOM      4  N   UNL     1       7.486   8.824  17.271  0.00  0.00    +0.000 NA
ATOM      5  N   UNL     1       7.118   7.578  16.995  0.00  0.00    +0.000 NA
ENDROOT
BRANCH   1   6
ATOM      6  C   UNL     1       7.514   5.286  17.823  0.00  0.00    +0.000 C 
BRANCH   6   8
ATOM      7  N   UNL     1       5.046   5.407  17.623  0.00  0.00    +0.000 N 
ATOM      8  C   UNL     1       6.128   4.889  18.267  0.00  0.00    +0.000 C 
ATOM      9  O   UNL     1       5.983   4.117  19.206  0.00  0.00    +0.000 OA
ATOM     10  H   UNL     1       5.201   6.057  16.837  0.00  0.00    +0.000 HD
BRANCH   7  11
ATOM     11  C   UNL     1       3.672   5.104  17.986  0.00  0.00    +0.000 C 
BRANCH  11  15
ATOM     12  C   UNL     1       1.719   8.748  19.241  0.00  0.00    +0.000 A 
ATOM     13  C   UNL     1       2.247   8.627  17.941  0.00  0.00    +0.000 A 
ATOM     14  C   UNL     1       2.869   7.444  17.539  0.00  0.00    +0.000 A 
ATOM     15  C   UNL     1       2.976   6.362  18.426  0.00  0.00    +0.000 A 
ATOM     16  C   UNL     1       2.438   6.475  19.717  0.00  0.00    +0.000 A 
ATOM     17  C   UNL     1       1.815   7.661  20.120  0.00  0.00    +0.000 A 
BRANCH  12  19
ATOM     18  C   UNL     1       0.866  11.002  18.912  0.00  0.00    +0.000 C 
ATOM     19  O   UNL     1       1.127   9.889  19.683  0.00  0.00    +0.000 OA
ENDBRANCH  12  19
ENDBRANCH  11  15
ENDBRANCH   7  11
ENDBRANCH   6   8
ENDBRANCH   1   6
BRANCH   3  20
ATOM     20  C   UNL     1       8.990   9.932  18.974  0.00  0.00    +0.000 C 
BRANCH  20  21
ATOM     21  C   UNL     1       9.378  10.982  17.930  0.00  0.00    +0.000 C 
BRANCH  21  22
ATOM     22  C   UNL     1      10.701  11.658  18.307  0.00  0.00    +0.000 C 
BRANCH  22  23
ATOM     23  C   UNL     1      10.455  13.004  18.914  0.00  0.00    +0.000 A 
ATOM     24  C   UNL     1       9.314  13.769  18.771  0.00  0.00    +0.000 A 
ATOM     25  N   UNL     1       9.488  14.905  19.466  0.00  0.00    +0.000 N 
ATOM     26  C   UNL     1      10.716  14.807  20.009  0.00  0.00    +0.000 A 
ATOM     27  N   UNL     1      11.291  15.804  20.826  0.00  0.00    +0.000 N 
ATOM     28  N   UNL     1      11.343  13.656  19.694  0.00  0.00    +0.000 NA
ATOM     29  H   UNL     1       8.812  15.696  19.563  0.00  0.00    +0.000 HD
ATOM     30  H   UNL     1      10.772  16.667  21.037  0.00  0.00    +0.000 HD
ATOM     31  H   UNL     1      12.237  15.672  21.215  0.00  0.00    +0.000 HD
ENDBRANCH  22  23
ENDBRANCH  21  22
ENDBRANCH  20  21
ENDBRANCH   3  20
TORSDOF 9
ENDMDL
